0:0:0
     RDKit          3D

 13 14  0  0  1  0  0  0  0  0999 V2000
    1.2008  -11.4497    3.6515 C   0  0  0  0  0  0  0  0  0  0  0  0
    1.0066  -10.0775    3.0175 C   0  0  0  0  0  0  0  0  0  0  0  0
    1.9728   -9.2891    2.5302 N   0  0  0  0  0  0  0  0  0  0  0  0
    1.3561   -8.1898    2.0871 N   0  0  0  0  0  0  0  0  0  0  0  0
    1.9868   -7.1809    1.5272 C   0  0  0  0  0  0  0  0  0  0  0  0
    1.0806   -6.2714    1.1774 N   0  0  0  0  0  0  0  0  0  0  0  0
   -0.1922   -6.7742    1.5939 N   0  0  0  0  0  0  0  0  0  0  0  0
    0.0214   -7.9522    2.1270 C   0  0  0  0  0  0  0  0  0  0  0  0
   -0.6642   -9.3783    2.8788 S   0  0  0  0  0  0  0  0  0  0  0  0
    2.2491  -11.7495    3.6692 H   0  0  0  0  0  0  0  0  0  0  0  0
    0.6337  -12.1987    3.0954 H   0  0  0  0  0  0  0  0  0  0  0  0
    0.8131  -11.4458    4.6743 H   0  0  0  0  0  0  0  0  0  0  0  0
    3.0541   -7.0960    1.3518 H   0  0  0  0  0  0  0  0  0  0  0  0
  1  2  1  0
  1 10  1  0
  1 11  1  0
  1 12  1  0
  2  9  1  0
  2  3  2  0
  3  4  1  0
  4  8  1  0
  4  5  1  0
  5  6  2  0
  5 13  1  0
  6  7  1  0
  7  8  2  0
  8  9  1  0
M  END
>  <i_m_ct_stereo_status>  (1) 
1

>  <s_m_source_file>  (1) 
/var/tmp/pbs.5076255.sched01/tmpvsf1hu0j/0g1dnczxv.sdf

>  <i_m_source_file_index>  (1) 
1

>  <i_lp_mmshare_version>  (1) 
48012

>  <i_f3d_flags>  (1) 
0

>  <s_epik_input>  (1) 
W0NIM11jKG4xKXNjKG4xMilubltjSF0y

>  <s_epik_cmdline>  (1) 
J2VwaWtfcHl0aG9uJywgJy1waHQnLCAnMi4wJywgJy1waCcsICc3LjAnLCAnLXRuJywgJzgnLCAnLW1hJywgJzIwMCcsICctaW1hZScsICc8aW5maWxlLm1hZT4nLCAnLW9tYWUnLCAnPG91dGZpbGUubWFlPic=

>  <r_lp_tautomer_probability>  (1) 
1

>  <r_epik_Ionization_Penalty>  (1) 
2.78616e-07

>  <r_epik_Ionization_Penalty_Charging>  (1) 
0

>  <r_epik_Ionization_Penalty_Neutral>  (1) 
2.78616e-07

>  <r_epik_State_Penalty>  (1) 
-0

>  <r_epik_Charging_Adjusted_Penalty>  (1) 
0

>  <i_epik_Tot_Q>  (1) 
0

>  <i_epik_Tot_abs_Q>  (1) 
0

>  <s_lp_Force_Field>  (1) 
OPLS3e

>  <r_lp_Energy>  (1) 
2.54979

>  <b_lp_Chiralities_Consistent>  (1) 
1

>  <s_lp_Variant>  (1) 
0:0-1

>  <s_i_glide_gridfile>  (1) 
pfpi4k_grid

>  <i_i_glide_lignum>  (1) 
1

>  <i_i_glide_rotatable_bonds>  (1) 
0

>  <r_i_docking_score>  (1) 
-4.38515

>  <r_i_glide_ligand_efficiency>  (1) 
-0.487239

>  <r_i_glide_ligand_efficiency_sa>  (1) 
-1.0135

>  <r_i_glide_ligand_efficiency_ln>  (1) 
-1.37155

>  <r_i_glide_gscore>  (1) 
-4.38515

>  <r_i_glide_lipo>  (1) 
-0.296401

>  <r_i_glide_hbond>  (1) 
0

>  <r_i_glide_metal>  (1) 
-0

>  <r_i_glide_rewards>  (1) 
-2.25

>  <r_i_glide_evdw>  (1) 
-16.5039

>  <r_i_glide_ecoul>  (1) 
-4.70459

>  <r_i_glide_erotb>  (1) 
0

>  <r_i_glide_esite>  (1) 
-0.307863

>  <r_i_glide_emodel>  (1) 
-28.2441

>  <r_i_glide_energy>  (1) 
-21.2085

>  <r_i_glide_einternal>  (1) 
0

>  <r_i_glide_intrahb_reward>  (1) 
-0

>  <i_i_glide_confnum>  (1) 
1

>  <i_i_glide_posenum>  (1) 
5

>  <r_i_glide_eff_state_penalty>  (1) 
0

>  <ligand_id>  (1) 
0

>  <original_smiles>  (1) 
Cc1nn2cnnc2s1

>  <smiles>  (1) 
[H]c1nnc2sc(C([H])([H])[H])nn12

$$$$
0:0:1
     RDKit          3D

 13 14  0  0  1  0  0  0  0  0999 V2000
    3.2759   -0.1158   -4.9440 C   0  0  0  0  0  0  0  0  0  0  0  0
    3.5204   -0.9549   -3.6974 C   0  0  0  0  0  0  0  0  0  0  0  0
    4.2487   -0.5641   -2.6513 N   0  0  0  0  0  0  0  0  0  0  0  0
    4.2007   -1.5702   -1.7730 N   0  0  0  0  0  0  0  0  0  0  0  0
    4.7945   -1.5301   -0.6041 C   0  0  0  0  0  0  0  0  0  0  0  0
    4.5791   -2.6896    0.0109 N   0  0  0  0  0  0  0  0  0  0  0  0
    3.7656   -3.4667   -0.8726 N   0  0  0  0  0  0  0  0  0  0  0  0
    3.5547   -2.7505   -1.9470 C   0  0  0  0  0  0  0  0  0  0  0  0
    2.8173   -2.6287   -3.5320 S   0  0  0  0  0  0  0  0  0  0  0  0
    3.7519    0.8700   -4.8966 H   0  0  0  0  0  0  0  0  0  0  0  0
    2.2018    0.0168   -5.0864 H   0  0  0  0  0  0  0  0  0  0  0  0
    3.6516   -0.6481   -5.8170 H   0  0  0  0  0  0  0  0  0  0  0  0
    5.3725   -0.7023   -0.2062 H   0  0  0  0  0  0  0  0  0  0  0  0
  1  2  1  0
  1 10  1  0
  1 11  1  0
  1 12  1  0
  2  9  1  0
  2  3  2  0
  3  4  1  0
  4  8  1  0
  4  5  1  0
  5  6  2  0
  5 13  1  0
  6  7  1  0
  7  8  2  0
  8  9  1  0
M  END
>  <i_m_ct_stereo_status>  (2) 
1

>  <s_m_source_file>  (2) 
/var/tmp/pbs.5076255.sched01/tmpvsf1hu0j/0g1dnczxv.sdf

>  <i_m_source_file_index>  (2) 
1

>  <i_lp_mmshare_version>  (2) 
48012

>  <i_f3d_flags>  (2) 
0

>  <s_epik_input>  (2) 
W0NIM11jKG4xKXNjKG4xMilubltjSF0y

>  <s_epik_cmdline>  (2) 
J2VwaWtfcHl0aG9uJywgJy1waHQnLCAnMi4wJywgJy1waCcsICc3LjAnLCAnLXRuJywgJzgnLCAnLW1hJywgJzIwMCcsICctaW1hZScsICc8aW5maWxlLm1hZT4nLCAnLW9tYWUnLCAnPG91dGZpbGUubWFlPic=

>  <r_lp_tautomer_probability>  (2) 
1

>  <r_epik_Ionization_Penalty>  (2) 
2.78616e-07

>  <r_epik_Ionization_Penalty_Charging>  (2) 
0

>  <r_epik_Ionization_Penalty_Neutral>  (2) 
2.78616e-07

>  <r_epik_State_Penalty>  (2) 
-0

>  <r_epik_Charging_Adjusted_Penalty>  (2) 
0

>  <i_epik_Tot_Q>  (2) 
0

>  <i_epik_Tot_abs_Q>  (2) 
0

>  <s_lp_Force_Field>  (2) 
OPLS3e

>  <r_lp_Energy>  (2) 
2.54979

>  <b_lp_Chiralities_Consistent>  (2) 
1

>  <s_lp_Variant>  (2) 
0:0-1

>  <s_i_glide_gridfile>  (2) 
pfpi4k_grid

>  <i_i_glide_lignum>  (2) 
1

>  <i_i_glide_rotatable_bonds>  (2) 
0

>  <r_i_docking_score>  (2) 
-3.93245

>  <r_i_glide_ligand_efficiency>  (2) 
-0.436939

>  <r_i_glide_ligand_efficiency_sa>  (2) 
-0.908869

>  <r_i_glide_ligand_efficiency_ln>  (2) 
-1.22996

>  <r_i_glide_gscore>  (2) 
-3.93245

>  <r_i_glide_lipo>  (2) 
-0.622821

>  <r_i_glide_hbond>  (2) 
0

>  <r_i_glide_metal>  (2) 
-0

>  <r_i_glide_rewards>  (2) 
-2.25

>  <r_i_glide_evdw>  (2) 
-21.2385

>  <r_i_glide_ecoul>  (2) 
0.661811

>  <r_i_glide_erotb>  (2) 
0

>  <r_i_glide_esite>  (2) 
-0.0969728

>  <r_i_glide_emodel>  (2) 
-26.9068

>  <r_i_glide_energy>  (2) 
-20.5767

>  <r_i_glide_einternal>  (2) 
0

>  <r_i_glide_intrahb_reward>  (2) 
-0

>  <i_i_glide_confnum>  (2) 
2

>  <i_i_glide_posenum>  (2) 
10

>  <r_i_glide_eff_state_penalty>  (2) 
0

>  <ligand_id>  (2) 
0

>  <original_smiles>  (2) 
Cc1nn2cnnc2s1

>  <smiles>  (2) 
[H]c1nnc2sc(C([H])([H])[H])nn12

$$$$
0:0:2
     RDKit          3D

 13 14  0  0  1  0  0  0  0  0999 V2000
    0.9384    1.6978    1.7006 C   0  0  0  0  0  0  0  0  0  0  0  0
    0.2204    0.9321    2.7899 C   0  0  0  0  0  0  0  0  0  0  0  0
    0.5717   -0.2951    3.2101 N   0  0  0  0  0  0  0  0  0  0  0  0
   -0.3151   -0.6211    4.1681 N   0  0  0  0  0  0  0  0  0  0  0  0
   -0.3159   -1.7659    4.8208 C   0  0  0  0  0  0  0  0  0  0  0  0
   -1.3469   -1.7474    5.6863 N   0  0  0  0  0  0  0  0  0  0  0  0
   -1.9860   -0.4832    5.5207 N   0  0  0  0  0  0  0  0  0  0  0  0
   -1.3270    0.1595    4.5849 C   0  0  0  0  0  0  0  0  0  0  0  0
   -1.2066    1.6353    3.6324 S   0  0  0  0  0  0  0  0  0  0  0  0
    1.7868    1.1525    1.2745 H   0  0  0  0  0  0  0  0  0  0  0  0
    1.2973    2.6446    2.1011 H   0  0  0  0  0  0  0  0  0  0  0  0
    0.2286    1.9275    0.9102 H   0  0  0  0  0  0  0  0  0  0  0  0
    0.3863   -2.5730    4.6596 H   0  0  0  0  0  0  0  0  0  0  0  0
  1  2  1  0
  1 10  1  0
  1 11  1  0
  1 12  1  0
  2  9  1  0
  2  3  2  0
  3  4  1  0
  4  8  1  0
  4  5  1  0
  5  6  2  0
  5 13  1  0
  6  7  1  0
  7  8  2  0
  8  9  1  0
M  END
>  <i_m_ct_stereo_status>  (3) 
1

>  <s_m_source_file>  (3) 
/var/tmp/pbs.5076255.sched01/tmpvsf1hu0j/0g1dnczxv.sdf

>  <i_m_source_file_index>  (3) 
1

>  <i_lp_mmshare_version>  (3) 
48012

>  <i_f3d_flags>  (3) 
0

>  <s_epik_input>  (3) 
W0NIM11jKG4xKXNjKG4xMilubltjSF0y

>  <s_epik_cmdline>  (3) 
J2VwaWtfcHl0aG9uJywgJy1waHQnLCAnMi4wJywgJy1waCcsICc3LjAnLCAnLXRuJywgJzgnLCAnLW1hJywgJzIwMCcsICctaW1hZScsICc8aW5maWxlLm1hZT4nLCAnLW9tYWUnLCAnPG91dGZpbGUubWFlPic=

>  <r_lp_tautomer_probability>  (3) 
1

>  <r_epik_Ionization_Penalty>  (3) 
2.78616e-07

>  <r_epik_Ionization_Penalty_Charging>  (3) 
0

>  <r_epik_Ionization_Penalty_Neutral>  (3) 
2.78616e-07

>  <r_epik_State_Penalty>  (3) 
-0

>  <r_epik_Charging_Adjusted_Penalty>  (3) 
0

>  <i_epik_Tot_Q>  (3) 
0

>  <i_epik_Tot_abs_Q>  (3) 
0

>  <s_lp_Force_Field>  (3) 
OPLS3e

>  <r_lp_Energy>  (3) 
2.54979

>  <b_lp_Chiralities_Consistent>  (3) 
1

>  <s_lp_Variant>  (3) 
0:0-1

>  <s_i_glide_gridfile>  (3) 
pfpi4k_grid

>  <i_i_glide_lignum>  (3) 
1

>  <i_i_glide_rotatable_bonds>  (3) 
0

>  <r_i_docking_score>  (3) 
-3.77823

>  <r_i_glide_ligand_efficiency>  (3) 
-0.419803

>  <r_i_glide_ligand_efficiency_sa>  (3) 
-0.873225

>  <r_i_glide_ligand_efficiency_ln>  (3) 
-1.18172

>  <r_i_glide_gscore>  (3) 
-3.77823

>  <r_i_glide_lipo>  (3) 
0

>  <r_i_glide_hbond>  (3) 
0

>  <r_i_glide_metal>  (3) 
-0

>  <r_i_glide_rewards>  (3) 
-2.25

>  <r_i_glide_evdw>  (3) 
-13.8543

>  <r_i_glide_ecoul>  (3) 
-4.30409

>  <r_i_glide_erotb>  (3) 
0

>  <r_i_glide_esite>  (3) 
-0.189894

>  <r_i_glide_emodel>  (3) 
-24.229

>  <r_i_glide_energy>  (3) 
-18.1584

>  <r_i_glide_einternal>  (3) 
0

>  <r_i_glide_intrahb_reward>  (3) 
-0

>  <i_i_glide_confnum>  (3) 
2

>  <i_i_glide_posenum>  (3) 
24

>  <r_i_glide_eff_state_penalty>  (3) 
0

>  <ligand_id>  (3) 
0

>  <original_smiles>  (3) 
Cc1nn2cnnc2s1

>  <smiles>  (3) 
[H]c1nnc2sc(C([H])([H])[H])nn12

$$$$
1:0:0
     RDKit          3D

 98106  0  0  1  0  0  0  0  0999 V2000
    2.8262   -7.2417    3.5393 C   0  0  0  0  0  0  0  0  0  0  0  0
    2.3202   -6.0171    2.7424 C   0  0  2  0  0  0  0  0  0  0  0  0
    2.6132   -6.2011    1.2448 C   0  0  0  0  0  0  0  0  0  0  0  0
    4.0393   -5.7985    0.8744 C   0  0  0  0  0  0  0  0  0  0  0  0
    4.3191   -4.3888    1.3908 C   0  0  2  0  0  0  0  0  0  0  0  0
    5.3575   -3.6278    0.5350 C   0  0  2  0  0  0  0  0  0  0  0  0
    6.3812   -4.3180   -0.1421 O   0  0  0  0  0  0  0  0  0  0  0  0
    7.3236   -3.3189   -0.4310 C   0  0  0  0  0  0  0  0  0  0  0  0
    8.7232   -3.8955   -0.1520 C   0  0  0  0  0  0  0  0  0  0  0  0
    7.1706   -2.8813   -1.8945 C   0  0  0  0  0  0  0  0  0  0  0  0
    7.1076   -2.1940    0.3821 O   0  0  0  0  0  0  0  0  0  0  0  0
    6.2184   -2.7200    1.3398 C   0  0  1  0  0  0  0  0  0  0  0  0
    5.4002   -1.8183    2.2622 C   0  0  1  0  0  0  0  0  0  0  0  0
    4.3542   -1.1639    1.5699 O   0  0  0  0  0  0  0  0  0  0  0  0
    4.8703   -2.7813    3.3727 C   0  0  1  0  0  0  0  0  0  0  0  0
    4.2740   -2.0162    4.5684 C   0  0  1  0  0  0  0  0  0  0  0  0
    2.9874   -1.5872    4.2469 O   0  0  0  0  0  0  0  0  0  0  0  0
    2.6335   -0.3323    4.7453 C   0  0  2  0  0  0  0  0  0  0  0  0
    1.9534   -0.4277    5.9622 O   0  0  0  0  0  0  0  0  0  0  0  0
    1.3863    0.7903    6.3646 C   0  0  2  0  0  0  0  0  0  0  0  0
    1.1004    0.6979    7.7262 O   0  0  0  0  0  0  0  0  0  0  0  0
   -0.0094    1.4205    8.1698 C   0  0  1  0  0  0  0  0  0  0  0  0
   -0.1046    1.1368    9.6872 C   0  0  0  0  0  0  0  0  0  0  0  0
    0.2146    2.9349    7.9031 C   0  0  0  0  0  0  0  0  0  0  0  0
   -0.4992    3.3681    6.6131 C   0  0  0  0  0  0  0  0  0  0  0  0
   -0.1329    2.6037    5.3192 C   0  0  2  0  0  0  0  0  0  0  0  0
   -1.1813    2.9133    4.1984 C   0  0  1  0  0  0  0  0  0  0  0  0
   -1.3593    4.4111    3.9237 C   0  0  0  0  0  0  0  0  0  0  0  0
   -0.8466    2.2050    2.8861 C   0  0  0  0  0  0  0  0  0  0  0  0
   -0.7408    0.7035    3.0872 C   0  0  0  0  0  0  0  0  0  0  0  0
    0.2709    0.2976    4.1671 C   0  0  1  0  0  0  0  0  0  0  0  0
    1.7371    0.3305    3.6717 C   0  0  1  0  0  0  0  0  0  0  0  0
    2.2207    1.6126    3.3329 O   0  0  0  0  0  0  0  0  0  0  0  0
    0.0826    1.0601    5.5271 C   0  0  1  0  0  0  0  0  0  0  0  0
   -1.0993    0.4321    6.3260 C   0  0  1  0  0  0  0  0  0  0  0  0
   -0.9811   -0.9660    6.4357 O   0  0  0  0  0  0  0  0  0  0  0  0
   -1.2234    1.0052    7.6024 O   0  0  0  0  0  0  0  0  0  0  0  0
    4.4104   -2.7044    5.7833 O   0  0  0  0  0  0  0  0  0  0  0  0
    4.4362   -4.1368    5.8587 C   0  0  1  0  0  0  0  0  0  0  0  0
    5.0234   -4.3577    7.2688 C   0  0  0  0  0  0  0  0  0  0  0  0
    3.0299   -4.7548    5.8755 C   0  0  0  0  0  0  0  0  0  0  0  0
    2.1219   -4.4100    4.7007 C   0  0  0  0  0  0  0  0  0  0  0  0
    2.6991   -4.5860    3.2824 C   0  0  1  0  0  0  0  0  0  0  0  0
    4.2073   -4.1828    2.9740 C   0  0  1  0  0  0  0  0  0  0  0  0
    4.9042   -5.2165    3.6715 O   0  0  0  0  0  0  0  0  0  0  0  0
    5.4327   -4.7627    5.0328 O   0  0  0  0  0  0  0  0  0  0  0  0
    3.9107   -7.3341    3.5407 H   0  0  0  0  0  0  0  0  0  0  0  0
    2.4450   -8.1672    3.1068 H   0  0  0  0  0  0  0  0  0  0  0  0
    2.4814   -7.2354    4.5700 H   0  0  0  0  0  0  0  0  0  0  0  0
    1.2381   -6.0965    2.8184 H   0  0  0  0  0  0  0  0  0  0  0  0
    2.4421   -7.2383    0.9503 H   0  0  0  0  0  0  0  0  0  0  0  0
    1.9108   -5.6023    0.6639 H   0  0  0  0  0  0  0  0  0  0  0  0
    4.7540   -6.5006    1.3023 H   0  0  0  0  0  0  0  0  0  0  0  0
    4.1591   -5.8403   -0.2111 H   0  0  0  0  0  0  0  0  0  0  0  0
    3.4461   -3.8304    1.0487 H   0  0  0  0  0  0  0  0  0  0  0  0
    4.8268   -3.0396   -0.2182 H   0  0  0  0  0  0  0  0  0  0  0  0
    8.7972   -4.2448    0.8782 H   0  0  0  0  0  0  0  0  0  0  0  0
    9.4788   -3.1317   -0.3289 H   0  0  0  0  0  0  0  0  0  0  0  0
    8.9232   -4.7400   -0.8135 H   0  0  0  0  0  0  0  0  0  0  0  0
    6.1955   -2.4282   -2.0728 H   0  0  0  0  0  0  0  0  0  0  0  0
    7.2910   -3.7312   -2.5639 H   0  0  0  0  0  0  0  0  0  0  0  0
    7.9560   -2.1707   -2.1412 H   0  0  0  0  0  0  0  0  0  0  0  0
    6.8484   -3.3511    1.9687 H   0  0  0  0  0  0  0  0  0  0  0  0
    6.0534   -1.0597    2.6969 H   0  0  0  0  0  0  0  0  0  0  0  0
    4.7350   -0.6487    0.8750 H   0  0  0  0  0  0  0  0  0  0  0  0
    5.8417   -3.0449    3.7654 H   0  0  0  0  0  0  0  0  0  0  0  0
    4.9405   -1.1728    4.7399 H   0  0  0  0  0  0  0  0  0  0  0  0
    3.4953    0.3260    4.8952 H   0  0  0  0  0  0  0  0  0  0  0  0
    2.1022    1.6084    6.2361 H   0  0  0  0  0  0  0  0  0  0  0  0
   -0.2320    0.0684    9.8500 H   0  0  0  0  0  0  0  0  0  0  0  0
   -0.9563    1.6564   10.1235 H   0  0  0  0  0  0  0  0  0  0  0  0
    0.8062    1.4539   10.1917 H   0  0  0  0  0  0  0  0  0  0  0  0
   -0.2207    3.4975    8.7270 H   0  0  0  0  0  0  0  0  0  0  0  0
    1.2799    3.1610    7.9011 H   0  0  0  0  0  0  0  0  0  0  0  0
   -1.5754    3.3326    6.7657 H   0  0  0  0  0  0  0  0  0  0  0  0
   -0.2610    4.4169    6.4561 H   0  0  0  0  0  0  0  0  0  0  0  0
    0.8128    3.0208    4.9668 H   0  0  0  0  0  0  0  0  0  0  0  0
   -2.1544    2.5417    4.5212 H   0  0  0  0  0  0  0  0  0  0  0  0
   -0.4192    4.8905    3.6539 H   0  0  0  0  0  0  0  0  0  0  0  0
   -1.7642    4.9132    4.7967 H   0  0  0  0  0  0  0  0  0  0  0  0
   -2.0561    4.5690    3.1020 H   0  0  0  0  0  0  0  0  0  0  0  0
   -1.6227    2.4042    2.1450 H   0  0  0  0  0  0  0  0  0  0  0  0
    0.0795    2.5983    2.4690 H   0  0  0  0  0  0  0  0  0  0  0  0
   -1.7267    0.3325    3.3689 H   0  0  0  0  0  0  0  0  0  0  0  0
   -0.4936    0.2318    2.1354 H   0  0  0  0  0  0  0  0  0  0  0  0
    0.0955   -0.7663    4.3057 H   0  0  0  0  0  0  0  0  0  0  0  0
    1.8122   -0.2785    2.7678 H   0  0  0  0  0  0  0  0  0  0  0  0
    3.0432    1.5104    2.8731 H   0  0  0  0  0  0  0  0  0  0  0  0
   -2.0466    0.5939    5.8018 H   0  0  0  0  0  0  0  0  0  0  0  0
   -0.0471   -1.1493    6.5854 H   0  0  0  0  0  0  0  0  0  0  0  0
    6.0382   -3.9726    7.3328 H   0  0  0  0  0  0  0  0  0  0  0  0
    5.0504   -5.4137    7.5306 H   0  0  0  0  0  0  0  0  0  0  0  0
    4.4311   -3.8487    8.0297 H   0  0  0  0  0  0  0  0  0  0  0  0
    3.0930   -5.8268    6.0505 H   0  0  0  0  0  0  0  0  0  0  0  0
    2.5150   -4.3732    6.7603 H   0  0  0  0  0  0  0  0  0  0  0  0
    1.2245   -5.0178    4.8002 H   0  0  0  0  0  0  0  0  0  0  0  0
    1.7321   -3.4091    4.8423 H   0  0  0  0  0  0  0  0  0  0  0  0
    2.0858   -3.8983    2.7010 H   0  0  0  0  0  0  0  0  0  0  0  0
  1  2  1  0
  1 47  1  0
  1 48  1  0
  1 49  1  0
  2 43  1  0
  2  3  1  0
  2 50  1  6
  3  4  1  0
  3 51  1  0
  3 52  1  0
  4  5  1  0
  4 53  1  0
  4 54  1  0
  5 44  1  0
  5  6  1  0
  5 55  1  6
  6 12  1  0
  6  7  1  0
  6 56  1  6
  7  8  1  0
  8  9  1  0
  8 10  1  0
  8 11  1  0
  9 57  1  0
  9 58  1  0
  9 59  1  0
 10 60  1  0
 10 61  1  0
 10 62  1  0
 11 12  1  0
 12 13  1  0
 12 63  1  1
 13 14  1  0
 13 15  1  0
 13 64  1  1
 14 65  1  0
 15 44  1  0
 15 16  1  0
 15 66  1  1
 16 17  1  0
 16 38  1  0
 16 67  1  1
 17 18  1  0
 18 32  1  0
 18 19  1  0
 18 68  1  1
 19 20  1  0
 20 34  1  0
 20 21  1  0
 20 69  1  1
 21 22  1  0
 22 37  1  0
 22 23  1  1
 22 24  1  0
 23 70  1  0
 23 71  1  0
 23 72  1  0
 24 25  1  0
 24 73  1  0
 24 74  1  0
 25 26  1  0
 25 75  1  0
 25 76  1  0
 26 34  1  0
 26 27  1  0
 26 77  1  6
 27 28  1  0
 27 29  1  0
 27 78  1  1
 28 79  1  0
 28 80  1  0
 28 81  1  0
 29 30  1  0
 29 82  1  0
 29 83  1  0
 30 31  1  0
 30 84  1  0
 30 85  1  0
 31 32  1  0
 31 34  1  0
 31 86  1  1
 32 33  1  0
 32 87  1  6
 33 88  1  0
 34 35  1  1
 35 36  1  0
 35 37  1  0
 35 89  1  6
 36 90  1  0
 38 39  1  0
 39 46  1  0
 39 40  1  1
 39 41  1  0
 40 91  1  0
 40 92  1  0
 40 93  1  0
 41 42  1  0
 41 94  1  0
 41 95  1  0
 42 43  1  0
 42 96  1  0
 42 97  1  0
 43 44  1  0
 43 98  1  6
 44 45  1  1
 45 46  1  0
M  END
>  <i_m_ct_stereo_status>  (4) 
1

>  <s_m_source_file>  (4) 
/var/tmp/pbs.5076255.sched01/tmpvsf1hu0j/0g1dnczxv.sdf

>  <i_m_source_file_index>  (4) 
2

>  <i_lp_mmshare_version>  (4) 
48012

>  <i_f3d_flags>  (4) 
0

>  <s_epik_input>  (4) 
W0NIMl0xW0NIMl1bQ0BASF0oW0NIM10pW0NASF0yW0NIMl1bQ0gyXVtDQEBdKFtDSDNdKShPTzMpT1tDQEBIXShbQ0BASF00W0NASF0oW09IXSlbQ0BASF0oW0NAQEhdNVtDQEBIXTFbQ0BAXTIzNClPQyhPNSkoW0NIM10pW0NIM10pT1tDQEhdKE9bQ0BIXTZbQ0BAXTc4OSlbQ0BIXShbT0hdKVtDQEBIXThbQ0gyXVtDSDJdW0NASF0oW0NIM10pW0NASF03W0NIMl1bQ0gyXVtDQEBdKE82KShbQ0gzXSlPW0NAQEhdOVtPSF0=

>  <s_epik_cmdline>  (4) 
J2VwaWtfcHl0aG9uJywgJy1waHQnLCAnMi4wJywgJy1waCcsICc3LjAnLCAnLXRuJywgJzgnLCAnLW1hJywgJzIwMCcsICctaW1hZScsICc8aW5maWxlLm1hZT4nLCAnLW9tYWUnLCAnPG91dGZpbGUubWFlPic=

>  <r_lp_tautomer_probability>  (4) 
1

>  <r_epik_Ionization_Penalty>  (4) 
1.5488e-06

>  <r_epik_Ionization_Penalty_Charging>  (4) 
0

>  <r_epik_Ionization_Penalty_Neutral>  (4) 
1.5488e-06

>  <r_epik_State_Penalty>  (4) 
-0

>  <r_epik_Charging_Adjusted_Penalty>  (4) 
0

>  <i_epik_Tot_Q>  (4) 
0

>  <i_epik_Tot_abs_Q>  (4) 
0

>  <s_epik_Chemistry_Notes>  (4) 
This compound contains an acetal/aminal-like group ( X-CH(R)-Y where X, Y are N, S, or O) that may be acid/base labile, releasing an aldehyde.

>  <s_lp_Force_Field>  (4) 
OPLS3e

>  <r_lp_Energy>  (4) 
99.4099

>  <b_lp_Chiralities_Consistent>  (4) 
1

>  <s_lp_Variant>  (4) 
1:0-1

>  <s_i_glide_gridfile>  (4) 
pfpi4k_grid

>  <i_i_glide_lignum>  (4) 
2

>  <i_i_glide_rotatable_bonds>  (4) 
5

>  <r_i_docking_score>  (4) 
-2.95929

>  <r_i_glide_ligand_efficiency>  (4) 
-0.0643324

>  <r_i_glide_ligand_efficiency_sa>  (4) 
-0.230506

>  <r_i_glide_ligand_efficiency_ln>  (4) 
-0.612862

>  <r_i_glide_gscore>  (4) 
-2.95929

>  <r_i_glide_lipo>  (4) 
-0.362167

>  <r_i_glide_hbond>  (4) 
-0.0977872

>  <r_i_glide_metal>  (4) 
-0

>  <r_i_glide_rewards>  (4) 
-0.241725

>  <r_i_glide_evdw>  (4) 
-34.3983

>  <r_i_glide_ecoul>  (4) 
-3.78704

>  <r_i_glide_erotb>  (4) 
0.0997182

>  <r_i_glide_esite>  (4) 
-0.0693575

>  <r_i_glide_emodel>  (4) 
-43.7878

>  <r_i_glide_energy>  (4) 
-38.1854

>  <r_i_glide_einternal>  (4) 
4.12789

>  <r_i_glide_intrahb_reward>  (4) 
-0

>  <i_i_glide_confnum>  (4) 
1

>  <i_i_glide_posenum>  (4) 
5

>  <r_i_glide_eff_state_penalty>  (4) 
0

>  <ligand_id>  (4) 
1

>  <original_smiles>  (4) 
CC1CCC2C3OC(C)(C)OC3C(O)C3C(OC4OC5OC6(C)CCC7C(C)CCC(C4O)C57C(O)O6)OC4(C)CCC1C23OO4

>  <smiles>  (4) 
[H]OC1([H])OC2(C([H])([H])[H])OC3([H])OC([H])(OC4([H])OC5(C([H])([H])[H])OOC67C4([H])C([H])(O[H])C4([H])OC(C([H])([H])[H])(C([H])([H])[H])OC4([H])C6([H])C([H])([H])C([H])([H])C([H])(C([H])([H])[H])C7([H])C([H])([H])C5([H])[H])C([H])(O[H])C4([H])C([H])([H])C([H])([H])C([H])(C([H])([H])[H])C([H])(C([H])([H])C2([H])[H])C134

$$$$
1:0:1
     RDKit          3D

 98106  0  0  1  0  0  0  0  0999 V2000
    1.6254   -2.3097    7.2750 C   0  0  0  0  0  0  0  0  0  0  0  0
    0.7087   -1.8176    6.1320 C   0  0  2  0  0  0  0  0  0  0  0  0
    0.3388   -2.9762    5.1957 C   0  0  0  0  0  0  0  0  0  0  0  0
    1.4248   -3.2543    4.1577 C   0  0  0  0  0  0  0  0  0  0  0  0
    1.7712   -1.9610    3.4174 C   0  0  2  0  0  0  0  0  0  0  0  0
    2.2828   -2.2053    1.9763 C   0  0  2  0  0  0  0  0  0  0  0  0
    2.9458   -3.3979    1.6229 O   0  0  0  0  0  0  0  0  0  0  0  0
    3.5828   -3.0693    0.4130 C   0  0  0  0  0  0  0  0  0  0  0  0
    5.0052   -3.6518    0.4565 C   0  0  0  0  0  0  0  0  0  0  0  0
    2.7726   -3.6391   -0.7626 C   0  0  0  0  0  0  0  0  0  0  0  0
    3.6558   -1.6750    0.2628 O   0  0  0  0  0  0  0  0  0  0  0  0
    3.3294   -1.2287    1.5550 C   0  0  1  0  0  0  0  0  0  0  0  0
    2.8724    0.2066    1.8203 C   0  0  1  0  0  0  0  0  0  0  0  0
    1.5611    0.4717    1.3591 O   0  0  0  0  0  0  0  0  0  0  0  0
    2.9633    0.3469    3.3727 C   0  0  1  0  0  0  0  0  0  0  0  0
    2.8795    1.8017    3.8417 C   0  0  1  0  0  0  0  0  0  0  0  0
    1.5634    2.2722    3.9061 O   0  0  0  0  0  0  0  0  0  0  0  0
    1.4427    3.6745    3.8456 C   0  0  2  0  0  0  0  0  0  0  0  0
    2.6754    4.3405    3.9017 O   0  0  0  0  0  0  0  0  0  0  0  0
    2.6074    5.7034    4.1114 C   0  0  2  0  0  0  0  0  0  0  0  0
    3.8630    6.2015    3.7760 O   0  0  0  0  0  0  0  0  0  0  0  0
    4.2682    7.3338    4.4813 C   0  0  1  0  0  0  0  0  0  0  0  0
    5.6677    7.6696    3.9275 C   0  0  0  0  0  0  0  0  0  0  0  0
    3.2532    8.4676    4.2283 C   0  0  0  0  0  0  0  0  0  0  0  0
    2.2364    8.5577    5.3793 C   0  0  0  0  0  0  0  0  0  0  0  0
    1.4275    7.2888    5.7200 C   0  0  2  0  0  0  0  0  0  0  0  0
    0.7235    7.4501    7.1053 C   0  0  1  0  0  0  0  0  0  0  0  0
   -0.1415    8.7137    7.2140 C   0  0  0  0  0  0  0  0  0  0  0  0
   -0.1194    6.2202    7.4781 C   0  0  0  0  0  0  0  0  0  0  0  0
    0.7350    4.9564    7.4672 C   0  0  0  0  0  0  0  0  0  0  0  0
    1.4503    4.7284    6.1252 C   0  0  1  0  0  0  0  0  0  0  0  0
    0.5288    4.1596    5.0064 C   0  0  1  0  0  0  0  0  0  0  0  0
   -0.4680    5.0461    4.5324 O   0  0  0  0  0  0  0  0  0  0  0  0
    2.2648    5.9741    5.6151 C   0  0  1  0  0  0  0  0  0  0  0  0
    3.6293    6.1068    6.3867 C   0  0  1  0  0  0  0  0  0  0  0  0
    4.3719    4.9123    6.3780 O   0  0  0  0  0  0  0  0  0  0  0  0
    4.4110    7.1382    5.8559 O   0  0  0  0  0  0  0  0  0  0  0  0
    3.6421    2.0361    5.0047 O   0  0  0  0  0  0  0  0  0  0  0  0
    3.8045    1.0486    6.0270 C   0  0  1  0  0  0  0  0  0  0  0  0
    4.9610    1.6407    6.8518 C   0  0  0  0  0  0  0  0  0  0  0  0
    2.6178    0.9339    6.9939 C   0  0  0  0  0  0  0  0  0  0  0  0
    1.2633    0.6209    6.3742 C   0  0  0  0  0  0  0  0  0  0  0  0
    1.1653   -0.5258    5.3608 C   0  0  1  0  0  0  0  0  0  0  0  0
    2.3389   -0.7804    4.3244 C   0  0  1  0  0  0  0  0  0  0  0  0
    3.3639   -1.2511    5.1959 O   0  0  0  0  0  0  0  0  0  0  0  0
    4.3879   -0.1754    5.5621 O   0  0  0  0  0  0  0  0  0  0  0  0
    2.6090   -2.6271    6.9340 H   0  0  0  0  0  0  0  0  0  0  0  0
    1.1840   -3.1702    7.7762 H   0  0  0  0  0  0  0  0  0  0  0  0
    1.7616   -1.5552    8.0459 H   0  0  0  0  0  0  0  0  0  0  0  0
   -0.2232   -1.5596    6.6319 H   0  0  0  0  0  0  0  0  0  0  0  0
    0.1484   -3.8825    5.7730 H   0  0  0  0  0  0  0  0  0  0  0  0
   -0.5954   -2.7325    4.6858 H   0  0  0  0  0  0  0  0  0  0  0  0
    2.3181   -3.6563    4.6325 H   0  0  0  0  0  0  0  0  0  0  0  0
    1.0639   -4.0044    3.4495 H   0  0  0  0  0  0  0  0  0  0  0  0
    0.7872   -1.5618    3.1467 H   0  0  0  0  0  0  0  0  0  0  0  0
    1.4278   -2.1167    1.3010 H   0  0  0  0  0  0  0  0  0  0  0  0
    5.5515   -3.2513    1.3109 H   0  0  0  0  0  0  0  0  0  0  0  0
    5.5371   -3.3990   -0.4604 H   0  0  0  0  0  0  0  0  0  0  0  0
    4.9540   -4.7368    0.5500 H   0  0  0  0  0  0  0  0  0  0  0  0
    1.7828   -3.1881   -0.8043 H   0  0  0  0  0  0  0  0  0  0  0  0
    2.6728   -4.7194   -0.6620 H   0  0  0  0  0  0  0  0  0  0  0  0
    3.2840   -3.4223   -1.7011 H   0  0  0  0  0  0  0  0  0  0  0  0
    4.2381   -1.4156    2.1372 H   0  0  0  0  0  0  0  0  0  0  0  0
    3.5613    0.8937    1.3218 H   0  0  0  0  0  0  0  0  0  0  0  0
    1.4013   -0.0014    0.5401 H   0  0  0  0  0  0  0  0  0  0  0  0
    4.0356    0.1905    3.4190 H   0  0  0  0  0  0  0  0  0  0  0  0
    3.3956    2.3576    3.0540 H   0  0  0  0  0  0  0  0  0  0  0  0
    0.9925    3.8882    2.8801 H   0  0  0  0  0  0  0  0  0  0  0  0
    1.8729    6.1383    3.4309 H   0  0  0  0  0  0  0  0  0  0  0  0
    6.3418    6.8317    4.1005 H   0  0  0  0  0  0  0  0  0  0  0  0
    6.0692    8.5489    4.4300 H   0  0  0  0  0  0  0  0  0  0  0  0
    5.6197    7.8557    2.8545 H   0  0  0  0  0  0  0  0  0  0  0  0
    3.8036    9.4082    4.1711 H   0  0  0  0  0  0  0  0  0  0  0  0
    2.7675    8.3308    3.2672 H   0  0  0  0  0  0  0  0  0  0  0  0
    2.7457    8.9114    6.2732 H   0  0  0  0  0  0  0  0  0  0  0  0
    1.5302    9.3402    5.1074 H   0  0  0  0  0  0  0  0  0  0  0  0
    0.6330    7.2362    4.9775 H   0  0  0  0  0  0  0  0  0  0  0  0
    1.4983    7.5392    7.8671 H   0  0  0  0  0  0  0  0  0  0  0  0
   -0.8966    8.7551    6.4296 H   0  0  0  0  0  0  0  0  0  0  0  0
    0.4655    9.6169    7.1528 H   0  0  0  0  0  0  0  0  0  0  0  0
   -0.6529    8.7514    8.1756 H   0  0  0  0  0  0  0  0  0  0  0  0
   -0.5461    6.3496    8.4747 H   0  0  0  0  0  0  0  0  0  0  0  0
   -0.9637    6.1135    6.7998 H   0  0  0  0  0  0  0  0  0  0  0  0
    1.4785    5.0360    8.2655 H   0  0  0  0  0  0  0  0  0  0  0  0
    0.1186    4.0904    7.7227 H   0  0  0  0  0  0  0  0  0  0  0  0
    2.1436    3.9200    6.3303 H   0  0  0  0  0  0  0  0  0  0  0  0
   -0.0429    3.3147    5.3879 H   0  0  0  0  0  0  0  0  0  0  0  0
   -0.6090    4.8316    3.6179 H   0  0  0  0  0  0  0  0  0  0  0  0
    3.4568    6.3293    7.4387 H   0  0  0  0  0  0  0  0  0  0  0  0
    4.3550    4.5681    5.4959 H   0  0  0  0  0  0  0  0  0  0  0  0
    5.8593    1.7625    6.2437 H   0  0  0  0  0  0  0  0  0  0  0  0
    5.2058    1.0142    7.7096 H   0  0  0  0  0  0  0  0  0  0  0  0
    4.6977    2.6148    7.2593 H   0  0  0  0  0  0  0  0  0  0  0  0
    2.8591    0.2647    7.8175 H   0  0  0  0  0  0  0  0  0  0  0  0
    2.4882    1.9012    7.4821 H   0  0  0  0  0  0  0  0  0  0  0  0
    0.5455    0.4776    7.1814 H   0  0  0  0  0  0  0  0  0  0  0  0
    0.8971    1.5156    5.9175 H   0  0  0  0  0  0  0  0  0  0  0  0
    0.3024   -0.2357    4.7607 H   0  0  0  0  0  0  0  0  0  0  0  0
  1  2  1  0
  1 47  1  0
  1 48  1  0
  1 49  1  0
  2 43  1  0
  2  3  1  0
  2 50  1  1
  3  4  1  0
  3 51  1  0
  3 52  1  0
  4  5  1  0
  4 53  1  0
  4 54  1  0
  5 44  1  0
  5  6  1  0
  5 55  1  6
  6 12  1  0
  6  7  1  0
  6 56  1  6
  7  8  1  0
  8  9  1  0
  8 10  1  0
  8 11  1  0
  9 57  1  0
  9 58  1  0
  9 59  1  0
 10 60  1  0
 10 61  1  0
 10 62  1  0
 11 12  1  0
 12 13  1  0
 12 63  1  1
 13 14  1  0
 13 15  1  0
 13 64  1  6
 14 65  1  0
 15 44  1  0
 15 16  1  0
 15 66  1  6
 16 17  1  0
 16 38  1  0
 16 67  1  6
 17 18  1  0
 18 32  1  0
 18 19  1  0
 18 68  1  6
 19 20  1  0
 20 34  1  0
 20 21  1  0
 20 69  1  6
 21 22  1  0
 22 37  1  0
 22 23  1  6
 22 24  1  0
 23 70  1  0
 23 71  1  0
 23 72  1  0
 24 25  1  0
 24 73  1  0
 24 74  1  0
 25 26  1  0
 25 75  1  0
 25 76  1  0
 26 34  1  0
 26 27  1  0
 26 77  1  6
 27 28  1  0
 27 29  1  0
 27 78  1  1
 28 79  1  0
 28 80  1  0
 28 81  1  0
 29 30  1  0
 29 82  1  0
 29 83  1  0
 30 31  1  0
 30 84  1  0
 30 85  1  0
 31 32  1  0
 31 34  1  0
 31 86  1  1
 32 33  1  0
 32 87  1  1
 33 88  1  0
 34 35  1  1
 35 36  1  0
 35 37  1  0
 35 89  1  1
 36 90  1  0
 38 39  1  0
 39 46  1  0
 39 40  1  1
 39 41  1  0
 40 91  1  0
 40 92  1  0
 40 93  1  0
 41 42  1  0
 41 94  1  0
 41 95  1  0
 42 43  1  0
 42 96  1  0
 42 97  1  0
 43 44  1  0
 43 98  1  6
 44 45  1  1
 45 46  1  0
M  END
>  <i_m_ct_stereo_status>  (5) 
1

>  <s_m_source_file>  (5) 
/var/tmp/pbs.5076255.sched01/tmpvsf1hu0j/0g1dnczxv.sdf

>  <i_m_source_file_index>  (5) 
2

>  <i_lp_mmshare_version>  (5) 
48012

>  <i_f3d_flags>  (5) 
0

>  <s_epik_input>  (5) 
W0NIMl0xW0NIMl1bQ0BASF0oW0NIM10pW0NASF0yW0NIMl1bQ0gyXVtDQEBdKFtDSDNdKShPTzMpT1tDQEBIXShbQ0BASF00W0NASF0oW09IXSlbQ0BASF0oW0NAQEhdNVtDQEBIXTFbQ0BAXTIzNClPQyhPNSkoW0NIM10pW0NIM10pT1tDQEhdKE9bQ0BIXTZbQ0BAXTc4OSlbQ0BIXShbT0hdKVtDQEBIXThbQ0gyXVtDSDJdW0NASF0oW0NIM10pW0NASF03W0NIMl1bQ0gyXVtDQEBdKE82KShbQ0gzXSlPW0NAQEhdOVtPSF0=

>  <s_epik_cmdline>  (5) 
J2VwaWtfcHl0aG9uJywgJy1waHQnLCAnMi4wJywgJy1waCcsICc3LjAnLCAnLXRuJywgJzgnLCAnLW1hJywgJzIwMCcsICctaW1hZScsICc8aW5maWxlLm1hZT4nLCAnLW9tYWUnLCAnPG91dGZpbGUubWFlPic=

>  <r_lp_tautomer_probability>  (5) 
1

>  <r_epik_Ionization_Penalty>  (5) 
1.5488e-06

>  <r_epik_Ionization_Penalty_Charging>  (5) 
0

>  <r_epik_Ionization_Penalty_Neutral>  (5) 
1.5488e-06

>  <r_epik_State_Penalty>  (5) 
-0

>  <r_epik_Charging_Adjusted_Penalty>  (5) 
0

>  <i_epik_Tot_Q>  (5) 
0

>  <i_epik_Tot_abs_Q>  (5) 
0

>  <s_epik_Chemistry_Notes>  (5) 
This compound contains an acetal/aminal-like group ( X-CH(R)-Y where X, Y are N, S, or O) that may be acid/base labile, releasing an aldehyde.

>  <s_lp_Force_Field>  (5) 
OPLS3e

>  <r_lp_Energy>  (5) 
99.4099

>  <b_lp_Chiralities_Consistent>  (5) 
1

>  <s_lp_Variant>  (5) 
1:0-1

>  <s_i_glide_gridfile>  (5) 
pfpi4k_grid

>  <i_i_glide_lignum>  (5) 
2

>  <i_i_glide_rotatable_bonds>  (5) 
5

>  <r_i_docking_score>  (5) 
-2.81123

>  <r_i_glide_ligand_efficiency>  (5) 
-0.0611136

>  <r_i_glide_ligand_efficiency_sa>  (5) 
-0.218973

>  <r_i_glide_ligand_efficiency_ln>  (5) 
-0.582198

>  <r_i_glide_gscore>  (5) 
-2.81123

>  <r_i_glide_lipo>  (5) 
-0.103943

>  <r_i_glide_hbond>  (5) 
0

>  <r_i_glide_metal>  (5) 
-0

>  <r_i_glide_rewards>  (5) 
-0.0413016

>  <r_i_glide_evdw>  (5) 
-35.1137

>  <r_i_glide_ecoul>  (5) 
-6.21484

>  <r_i_glide_erotb>  (5) 
0.0997182

>  <r_i_glide_esite>  (5) 
-0.0777917

>  <r_i_glide_emodel>  (5) 
-43.515

>  <r_i_glide_energy>  (5) 
-41.3285

>  <r_i_glide_einternal>  (5) 
8.92973

>  <r_i_glide_intrahb_reward>  (5) 
-0

>  <i_i_glide_confnum>  (5) 
1

>  <i_i_glide_posenum>  (5) 
37

>  <r_i_glide_eff_state_penalty>  (5) 
0

>  <ligand_id>  (5) 
1

>  <original_smiles>  (5) 
CC1CCC2C3OC(C)(C)OC3C(O)C3C(OC4OC5OC6(C)CCC7C(C)CCC(C4O)C57C(O)O6)OC4(C)CCC1C23OO4

>  <smiles>  (5) 
[H]OC1([H])OC2(C([H])([H])[H])OC3([H])OC([H])(OC4([H])OC5(C([H])([H])[H])OOC67C4([H])C([H])(O[H])C4([H])OC(C([H])([H])[H])(C([H])([H])[H])OC4([H])C6([H])C([H])([H])C([H])([H])C([H])(C([H])([H])[H])C7([H])C([H])([H])C5([H])[H])C([H])(O[H])C4([H])C([H])([H])C([H])([H])C([H])(C([H])([H])[H])C([H])(C([H])([H])C2([H])[H])C134

$$$$
1:0:2
     RDKit          3D

 98106  0  0  1  0  0  0  0  0999 V2000
    3.1084   -1.4849    9.2934 C   0  0  0  0  0  0  0  0  0  0  0  0
    3.3110   -0.3100    8.3141 C   0  0  2  0  0  0  0  0  0  0  0  0
    3.2340    1.0342    9.0473 C   0  0  0  0  0  0  0  0  0  0  0  0
    1.7924    1.5038    9.2297 C   0  0  0  0  0  0  0  0  0  0  0  0
    1.0667    1.4955    7.8823 C   0  0  2  0  0  0  0  0  0  0  0  0
   -0.0656    2.5468    7.8033 C   0  0  2  0  0  0  0  0  0  0  0  0
   -0.7667    2.9454    8.9590 O   0  0  0  0  0  0  0  0  0  0  0  0
   -1.9268    3.5571    8.4483 C   0  0  0  0  0  0  0  0  0  0  0  0
   -3.1132    3.1032    9.3059 C   0  0  0  0  0  0  0  0  0  0  0  0
   -1.7666    5.0855    8.4785 C   0  0  0  0  0  0  0  0  0  0  0  0
   -2.1358    3.1595    7.1082 O   0  0  0  0  0  0  0  0  0  0  0  0
   -1.2263    2.0923    6.9803 C   0  0  1  0  0  0  0  0  0  0  0  0
   -0.7782    1.5457    5.6173 C   0  0  1  0  0  0  0  0  0  0  0  0
    0.1426    2.4165    4.9824 O   0  0  0  0  0  0  0  0  0  0  0  0
   -0.1148    0.1762    5.9519 C   0  0  1  0  0  0  0  0  0  0  0  0
    0.1292   -0.6910    4.7002 C   0  0  1  0  0  0  0  0  0  0  0  0
    1.3072   -0.3050    4.0481 O   0  0  0  0  0  0  0  0  0  0  0  0
    1.5827   -1.0281    2.8807 C   0  0  2  0  0  0  0  0  0  0  0  0
    1.8029   -2.3727    3.1824 O   0  0  0  0  0  0  0  0  0  0  0  0
    2.3617   -3.1240    2.1543 C   0  0  2  0  0  0  0  0  0  0  0  0
    2.1151   -4.4567    2.4639 O   0  0  0  0  0  0  0  0  0  0  0  0
    3.0764   -5.3644    2.0153 C   0  0  1  0  0  0  0  0  0  0  0  0
    2.5981   -6.7463    2.4951 C   0  0  0  0  0  0  0  0  0  0  0  0
    3.1378   -5.2961    0.4741 C   0  0  0  0  0  0  0  0  0  0  0  0
    4.2952   -4.4040    0.0043 C   0  0  0  0  0  0  0  0  0  0  0  0
    4.3229   -2.9517    0.5253 C   0  0  2  0  0  0  0  0  0  0  0  0
    5.7153   -2.2986    0.2555 C   0  0  1  0  0  0  0  0  0  0  0  0
    6.1523   -2.3751   -1.2123 C   0  0  0  0  0  0  0  0  0  0  0  0
    5.7809   -0.8400    0.7207 C   0  0  0  0  0  0  0  0  0  0  0  0
    5.4414   -0.7439    2.1980 C   0  0  0  0  0  0  0  0  0  0  0  0
    4.0893   -1.3626    2.5461 C   0  0  1  0  0  0  0  0  0  0  0  0
    2.8699   -0.4363    2.2470 C   0  0  1  0  0  0  0  0  0  0  0  0
    2.7053   -0.1461    0.8792 O   0  0  0  0  0  0  0  0  0  0  0  0
    3.8845   -2.8198    2.0258 C   0  0  1  0  0  0  0  0  0  0  0  0
    4.6654   -3.8549    2.9284 C   0  0  1  0  0  0  0  0  0  0  0  0
    4.4450   -3.6665    4.3000 O   0  0  0  0  0  0  0  0  0  0  0  0
    4.3587   -5.1693    2.5581 O   0  0  0  0  0  0  0  0  0  0  0  0
   -0.0244   -2.0468    5.0288 O   0  0  0  0  0  0  0  0  0  0  0  0
    0.4302   -2.6103    6.2709 C   0  0  1  0  0  0  0  0  0  0  0  0
   -0.1697   -4.0194    6.1562 C   0  0  0  0  0  0  0  0  0  0  0  0
    1.9430   -2.8387    6.4093 C   0  0  0  0  0  0  0  0  0  0  0  0
    2.8273   -1.6233    6.2538 C   0  0  0  0  0  0  0  0  0  0  0  0
    2.4765   -0.3383    6.9878 C   0  0  1  0  0  0  0  0  0  0  0  0
    0.9542    0.0828    7.1590 C   0  0  1  0  0  0  0  0  0  0  0  0
    0.5128   -0.9153    8.0861 O   0  0  0  0  0  0  0  0  0  0  0  0
   -0.2390   -2.0679    7.4162 O   0  0  0  0  0  0  0  0  0  0  0  0
    2.0993   -1.5284    9.6953 H   0  0  0  0  0  0  0  0  0  0  0  0
    3.7817   -1.3947   10.1458 H   0  0  0  0  0  0  0  0  0  0  0  0
    3.3382   -2.4464    8.8379 H   0  0  0  0  0  0  0  0  0  0  0  0
    4.3544   -0.3989    8.0232 H   0  0  0  0  0  0  0  0  0  0  0  0
    3.7247    0.9592   10.0196 H   0  0  0  0  0  0  0  0  0  0  0  0
    3.7922    1.7799    8.4791 H   0  0  0  0  0  0  0  0  0  0  0  0
    1.2753    0.8541    9.9331 H   0  0  0  0  0  0  0  0  0  0  0  0
    1.7937    2.5111    9.6592 H   0  0  0  0  0  0  0  0  0  0  0  0
    1.7724    2.0121    7.2340 H   0  0  0  0  0  0  0  0  0  0  0  0
    0.3447    3.4575    7.3575 H   0  0  0  0  0  0  0  0  0  0  0  0
   -3.1734    2.0199    9.3047 H   0  0  0  0  0  0  0  0  0  0  0  0
   -4.0451    3.5204    8.9225 H   0  0  0  0  0  0  0  0  0  0  0  0
   -2.9767    3.4294   10.3397 H   0  0  0  0  0  0  0  0  0  0  0  0
   -0.9435    5.4089    7.8464 H   0  0  0  0  0  0  0  0  0  0  0  0
   -1.5855    5.4268    9.5047 H   0  0  0  0  0  0  0  0  0  0  0  0
   -2.6879    5.5476    8.1314 H   0  0  0  0  0  0  0  0  0  0  0  0
   -1.7060    1.2791    7.5240 H   0  0  0  0  0  0  0  0  0  0  0  0
   -1.6536    1.4009    4.9785 H   0  0  0  0  0  0  0  0  0  0  0  0
    0.2757    2.1489    4.0843 H   0  0  0  0  0  0  0  0  0  0  0  0
   -1.0070   -0.2964    6.3608 H   0  0  0  0  0  0  0  0  0  0  0  0
   -0.6590   -0.5262    3.9659 H   0  0  0  0  0  0  0  0  0  0  0  0
    0.7377   -0.9124    2.2030 H   0  0  0  0  0  0  0  0  0  0  0  0
    1.8621   -2.8879    1.2165 H   0  0  0  0  0  0  0  0  0  0  0  0
    2.5423   -6.7590    3.5826 H   0  0  0  0  0  0  0  0  0  0  0  0
    3.3017   -7.5207    2.1841 H   0  0  0  0  0  0  0  0  0  0  0  0
    1.6090   -6.9827    2.0972 H   0  0  0  0  0  0  0  0  0  0  0  0
    3.3235   -6.3017    0.0907 H   0  0  0  0  0  0  0  0  0  0  0  0
    2.1714   -4.9883    0.0655 H   0  0  0  0  0  0  0  0  0  0  0  0
    5.2420   -4.8907    0.2365 H   0  0  0  0  0  0  0  0  0  0  0  0
    4.2439   -4.3610   -1.0778 H   0  0  0  0  0  0  0  0  0  0  0  0
    3.6068   -2.3895   -0.0732 H   0  0  0  0  0  0  0  0  0  0  0  0
    6.4653   -2.8457    0.8278 H   0  0  0  0  0  0  0  0  0  0  0  0
    5.4207   -1.9053   -1.8706 H   0  0  0  0  0  0  0  0  0  0  0  0
    6.3021   -3.4042   -1.5363 H   0  0  0  0  0  0  0  0  0  0  0  0
    7.1066   -1.8711   -1.3494 H   0  0  0  0  0  0  0  0  0  0  0  0
    6.7851   -0.4428    0.5682 H   0  0  0  0  0  0  0  0  0  0  0  0
    5.1082   -0.2129    0.1390 H   0  0  0  0  0  0  0  0  0  0  0  0
    6.2096   -1.2673    2.7664 H   0  0  0  0  0  0  0  0  0  0  0  0
    5.4816    0.2858    2.5471 H   0  0  0  0  0  0  0  0  0  0  0  0
    4.1868   -1.3782    3.6207 H   0  0  0  0  0  0  0  0  0  0  0  0
    3.0412    0.5293    2.7228 H   0  0  0  0  0  0  0  0  0  0  0  0
    1.9826   -0.6284    0.4704 H   0  0  0  0  0  0  0  0  0  0  0  0
    5.7347   -3.7084    2.8167 H   0  0  0  0  0  0  0  0  0  0  0  0
    4.9407   -4.3342    4.7838 H   0  0  0  0  0  0  0  0  0  0  0  0
   -1.2542   -3.9674    6.0983 H   0  0  0  0  0  0  0  0  0  0  0  0
    0.0879   -4.6429    7.0124 H   0  0  0  0  0  0  0  0  0  0  0  0
    0.1792   -4.5443    5.2615 H   0  0  0  0  0  0  0  0  0  0  0  0
    2.1784   -3.4003    7.3101 H   0  0  0  0  0  0  0  0  0  0  0  0
    2.2059   -3.5238    5.6057 H   0  0  0  0  0  0  0  0  0  0  0  0
    3.8661   -1.8988    6.4178 H   0  0  0  0  0  0  0  0  0  0  0  0
    2.8129   -1.3830    5.2241 H   0  0  0  0  0  0  0  0  0  0  0  0
    2.9317    0.4281    6.3621 H   0  0  0  0  0  0  0  0  0  0  0  0
  1  2  1  0
  1 47  1  0
  1 48  1  0
  1 49  1  0
  2 43  1  0
  2  3  1  0
  2 50  1  6
  3  4  1  0
  3 51  1  0
  3 52  1  0
  4  5  1  0
  4 53  1  0
  4 54  1  0
  5 44  1  0
  5  6  1  0
  5 55  1  6
  6 12  1  0
  6  7  1  0
  6 56  1  6
  7  8  1  0
  8  9  1  0
  8 10  1  0
  8 11  1  0
  9 57  1  0
  9 58  1  0
  9 59  1  0
 10 60  1  0
 10 61  1  0
 10 62  1  0
 11 12  1  0
 12 13  1  0
 12 63  1  1
 13 14  1  0
 13 15  1  0
 13 64  1  6
 14 65  1  0
 15 44  1  0
 15 16  1  0
 15 66  1  1
 16 17  1  0
 16 38  1  0
 16 67  1  6
 17 18  1  0
 18 32  1  0
 18 19  1  0
 18 68  1  6
 19 20  1  0
 20 34  1  0
 20 21  1  0
 20 69  1  6
 21 22  1  0
 22 37  1  0
 22 23  1  6
 22 24  1  0
 23 70  1  0
 23 71  1  0
 23 72  1  0
 24 25  1  0
 24 73  1  0
 24 74  1  0
 25 26  1  0
 25 75  1  0
 25 76  1  0
 26 34  1  0
 26 27  1  0
 26 77  1  6
 27 28  1  0
 27 29  1  0
 27 78  1  1
 28 79  1  0
 28 80  1  0
 28 81  1  0
 29 30  1  0
 29 82  1  0
 29 83  1  0
 30 31  1  0
 30 84  1  0
 30 85  1  0
 31 32  1  0
 31 34  1  0
 31 86  1  1
 32 33  1  0
 32 87  1  1
 33 88  1  0
 34 35  1  1
 35 36  1  0
 35 37  1  0
 35 89  1  1
 36 90  1  0
 38 39  1  0
 39 46  1  0
 39 40  1  6
 39 41  1  0
 40 91  1  0
 40 92  1  0
 40 93  1  0
 41 42  1  0
 41 94  1  0
 41 95  1  0
 42 43  1  0
 42 96  1  0
 42 97  1  0
 43 44  1  0
 43 98  1  6
 44 45  1  1
 45 46  1  0
M  END
>  <i_m_ct_stereo_status>  (6) 
1

>  <s_m_source_file>  (6) 
/var/tmp/pbs.5076255.sched01/tmpvsf1hu0j/0g1dnczxv.sdf

>  <i_m_source_file_index>  (6) 
2

>  <i_lp_mmshare_version>  (6) 
48012

>  <i_f3d_flags>  (6) 
0

>  <s_epik_input>  (6) 
W0NIMl0xW0NIMl1bQ0BASF0oW0NIM10pW0NASF0yW0NIMl1bQ0gyXVtDQEBdKFtDSDNdKShPTzMpT1tDQEBIXShbQ0BASF00W0NASF0oW09IXSlbQ0BASF0oW0NAQEhdNVtDQEBIXTFbQ0BAXTIzNClPQyhPNSkoW0NIM10pW0NIM10pT1tDQEhdKE9bQ0BIXTZbQ0BAXTc4OSlbQ0BIXShbT0hdKVtDQEBIXThbQ0gyXVtDSDJdW0NASF0oW0NIM10pW0NASF03W0NIMl1bQ0gyXVtDQEBdKE82KShbQ0gzXSlPW0NAQEhdOVtPSF0=

>  <s_epik_cmdline>  (6) 
J2VwaWtfcHl0aG9uJywgJy1waHQnLCAnMi4wJywgJy1waCcsICc3LjAnLCAnLXRuJywgJzgnLCAnLW1hJywgJzIwMCcsICctaW1hZScsICc8aW5maWxlLm1hZT4nLCAnLW9tYWUnLCAnPG91dGZpbGUubWFlPic=

>  <r_lp_tautomer_probability>  (6) 
1

>  <r_epik_Ionization_Penalty>  (6) 
1.5488e-06

>  <r_epik_Ionization_Penalty_Charging>  (6) 
0

>  <r_epik_Ionization_Penalty_Neutral>  (6) 
1.5488e-06

>  <r_epik_State_Penalty>  (6) 
-0

>  <r_epik_Charging_Adjusted_Penalty>  (6) 
0

>  <i_epik_Tot_Q>  (6) 
0

>  <i_epik_Tot_abs_Q>  (6) 
0

>  <s_epik_Chemistry_Notes>  (6) 
This compound contains an acetal/aminal-like group ( X-CH(R)-Y where X, Y are N, S, or O) that may be acid/base labile, releasing an aldehyde.

>  <s_lp_Force_Field>  (6) 
OPLS3e

>  <r_lp_Energy>  (6) 
99.4099

>  <b_lp_Chiralities_Consistent>  (6) 
1

>  <s_lp_Variant>  (6) 
1:0-1

>  <s_i_glide_gridfile>  (6) 
pfpi4k_grid

>  <i_i_glide_lignum>  (6) 
2

>  <i_i_glide_rotatable_bonds>  (6) 
5

>  <r_i_docking_score>  (6) 
-2.76307

>  <r_i_glide_ligand_efficiency>  (6) 
-0.0600668

>  <r_i_glide_ligand_efficiency_sa>  (6) 
-0.215222

>  <r_i_glide_ligand_efficiency_ln>  (6) 
-0.572225

>  <r_i_glide_gscore>  (6) 
-2.76307

>  <r_i_glide_lipo>  (6) 
-0.262588

>  <r_i_glide_hbond>  (6) 
-0.0391905

>  <r_i_glide_metal>  (6) 
-0

>  <r_i_glide_rewards>  (6) 
-0.0258669

>  <r_i_glide_evdw>  (6) 
-34.2254

>  <r_i_glide_ecoul>  (6) 
-5.10692

>  <r_i_glide_erotb>  (6) 
0.0997182

>  <r_i_glide_esite>  (6) 
-0.0578373

>  <r_i_glide_emodel>  (6) 
-44.3909

>  <r_i_glide_energy>  (6) 
-39.3323

>  <r_i_glide_einternal>  (6) 
2.41065

>  <r_i_glide_intrahb_reward>  (6) 
-0

>  <i_i_glide_confnum>  (6) 
1

>  <i_i_glide_posenum>  (6) 
8

>  <r_i_glide_eff_state_penalty>  (6) 
0

>  <ligand_id>  (6) 
1

>  <original_smiles>  (6) 
CC1CCC2C3OC(C)(C)OC3C(O)C3C(OC4OC5OC6(C)CCC7C(C)CCC(C4O)C57C(O)O6)OC4(C)CCC1C23OO4

>  <smiles>  (6) 
[H]OC1([H])OC2(C([H])([H])[H])OC3([H])OC([H])(OC4([H])OC5(C([H])([H])[H])OOC67C4([H])C([H])(O[H])C4([H])OC(C([H])([H])[H])(C([H])([H])[H])OC4([H])C6([H])C([H])([H])C([H])([H])C([H])(C([H])([H])[H])C7([H])C([H])([H])C5([H])[H])C([H])(O[H])C4([H])C([H])([H])C([H])([H])C([H])(C([H])([H])[H])C([H])(C([H])([H])C2([H])[H])C134

$$$$
2:0:0
     RDKit          3D

 32 33  0  0  1  0  0  0  0  0999 V2000
    3.1300   -1.2523    1.4296 C   0  0  0  0  0  0  0  0  0  0  0  0
    4.2082   -2.0558    0.7664 C   0  0  0  0  0  0  0  0  0  0  0  0
    5.5412   -1.6052    0.8792 N   0  0  0  0  0  0  0  0  0  0  0  0
    6.3776   -2.2485    0.1486 N   0  0  0  0  0  0  0  0  0  0  0  0
    5.6576   -3.5356   -0.6312 S   0  0  0  0  0  0  0  0  0  0  0  0
    4.0651   -3.0946   -0.1338 C   0  0  0  0  0  0  0  0  0  0  0  0
    2.8287   -3.7701   -0.6774 C   0  0  0  0  0  0  0  0  0  0  0  0
    2.3665   -3.3149   -2.0848 C   0  0  0  0  0  0  0  0  0  0  0  0
    3.2963   -2.3508   -2.8618 C   0  0  0  0  0  0  0  0  0  0  0  0
    3.3114   -0.9452   -2.1970 C   0  0  0  0  0  0  0  0  0  0  0  0
    4.2516    0.0001   -2.9064 C   0  0  0  0  0  0  0  0  0  0  0  0
    3.8017    0.2218   -4.3307 C   0  0  0  0  0  0  0  0  0  0  0  0
    3.7368   -1.1232   -5.0487 C   0  0  0  0  0  0  0  0  0  0  0  0
    2.8539   -2.1766   -4.3097 C   0  0  0  0  0  0  0  0  0  0  0  0
    2.1305   -1.5542    1.1049 H   0  0  0  0  0  0  0  0  0  0  0  0
    3.2363   -0.2036    1.1496 H   0  0  0  0  0  0  0  0  0  0  0  0
    3.1633   -1.3089    2.5251 H   0  0  0  0  0  0  0  0  0  0  0  0
    2.9924   -4.8520   -0.6964 H   0  0  0  0  0  0  0  0  0  0  0  0
    1.9966   -3.6316    0.0196 H   0  0  0  0  0  0  0  0  0  0  0  0
    2.1579   -4.1836   -2.6957 H   0  0  0  0  0  0  0  0  0  0  0  0
    1.3905   -2.8569   -2.0097 H   0  0  0  0  0  0  0  0  0  0  0  0
    4.2976   -2.7746   -2.9172 H   0  0  0  0  0  0  0  0  0  0  0  0
    2.2946   -0.5350   -2.2547 H   0  0  0  0  0  0  0  0  0  0  0  0
    3.6624   -0.9326   -1.2025 H   0  0  0  0  0  0  0  0  0  0  0  0
    4.2626    0.9371   -2.4178 H   0  0  0  0  0  0  0  0  0  0  0  0
    5.2581   -0.3969   -2.7913 H   0  0  0  0  0  0  0  0  0  0  0  0
    2.8047    0.6743   -4.3483 H   0  0  0  0  0  0  0  0  0  0  0  0
    4.4780    0.8914   -4.8635 H   0  0  0  0  0  0  0  0  0  0  0  0
    3.4084   -0.9582   -6.0767 H   0  0  0  0  0  0  0  0  0  0  0  0
    4.7651   -1.4667   -5.0506 H   0  0  0  0  0  0  0  0  0  0  0  0
    2.9066   -3.1420   -4.8130 H   0  0  0  0  0  0  0  0  0  0  0  0
    1.8020   -1.8645   -4.3254 H   0  0  0  0  0  0  0  0  0  0  0  0
  1  2  1  0
  1 15  1  0
  1 16  1  0
  1 17  1  0
  2  6  2  0
  2  3  1  0
  3  4  2  0
  4  5  1  0
  5  6  1  0
  6  7  1  0
  7  8  1  0
  7 18  1  0
  7 19  1  0
  8  9  1  0
  8 20  1  0
  8 21  1  0
  9 14  1  0
  9 10  1  0
  9 22  1  0
 10 11  1  0
 10 23  1  0
 10 24  1  0
 11 12  1  0
 11 25  1  0
 11 26  1  0
 12 13  1  0
 12 27  1  0
 12 28  1  0
 13 14  1  0
 13 29  1  0
 13 30  1  0
 14 31  1  0
 14 32  1  0
M  END
>  <i_m_ct_stereo_status>  (7) 
1

>  <s_m_source_file>  (7) 
/var/tmp/pbs.5076255.sched01/tmpvsf1hu0j/0g1dnczxv.sdf

>  <i_m_source_file_index>  (7) 
3

>  <i_lp_mmshare_version>  (7) 
48012

>  <i_f3d_flags>  (7) 
0

>  <s_epik_input>  (7) 
W0NIM11jMW5uc2MxW0NIMl1bQ0gyXVtDSF0yW0NIMl1bQ0gyXVtDSDJdW0NIMl1bQ0gyXTI=

>  <s_epik_cmdline>  (7) 
J2VwaWtfcHl0aG9uJywgJy1waHQnLCAnMi4wJywgJy1waCcsICc3LjAnLCAnLXRuJywgJzgnLCAnLW1hJywgJzIwMCcsICctaW1hZScsICc8aW5maWxlLm1hZT4nLCAnLW9tYWUnLCAnPG91dGZpbGUubWFlPic=

>  <r_lp_tautomer_probability>  (7) 
1

>  <r_epik_Ionization_Penalty>  (7) 
6.66318e-08

>  <r_epik_Ionization_Penalty_Charging>  (7) 
0

>  <r_epik_Ionization_Penalty_Neutral>  (7) 
6.66318e-08

>  <r_epik_State_Penalty>  (7) 
-0

>  <r_epik_Charging_Adjusted_Penalty>  (7) 
0

>  <i_epik_Tot_Q>  (7) 
0

>  <i_epik_Tot_abs_Q>  (7) 
0

>  <s_lp_Force_Field>  (7) 
OPLS3e

>  <r_lp_Energy>  (7) 
9.71271

>  <b_lp_Chiralities_Consistent>  (7) 
1

>  <s_lp_Variant>  (7) 
2:0-1

>  <s_i_glide_gridfile>  (7) 
pfpi4k_grid

>  <i_i_glide_lignum>  (7) 
3

>  <i_i_glide_rotatable_bonds>  (7) 
3

>  <r_i_docking_score>  (7) 
-2.21839

>  <r_i_glide_ligand_efficiency>  (7) 
-0.158456

>  <r_i_glide_ligand_efficiency_sa>  (7) 
-0.381902

>  <r_i_glide_ligand_efficiency_ln>  (7) 
-0.609605

>  <r_i_glide_gscore>  (7) 
-2.21839

>  <r_i_glide_lipo>  (7) 
-0.479069

>  <r_i_glide_hbond>  (7) 
0

>  <r_i_glide_metal>  (7) 
-0

>  <r_i_glide_rewards>  (7) 
-2.02482

>  <r_i_glide_evdw>  (7) 
-11.8129

>  <r_i_glide_ecoul>  (7) 
-1.6655

>  <r_i_glide_erotb>  (7) 
1.12597

>  <r_i_glide_esite>  (7) 
0

>  <r_i_glide_emodel>  (7) 
-10.9477

>  <r_i_glide_energy>  (7) 
-13.4784

>  <r_i_glide_einternal>  (7) 
4.45606

>  <r_i_glide_intrahb_reward>  (7) 
-0

>  <i_i_glide_confnum>  (7) 
4

>  <i_i_glide_posenum>  (7) 
34

>  <r_i_glide_eff_state_penalty>  (7) 
0

>  <ligand_id>  (7) 
2

>  <original_smiles>  (7) 
Cc1nnsc1CCC1CCCCC1

>  <smiles>  (7) 
[H]C([H])([H])c1nnsc1C([H])([H])C([H])([H])C1([H])C([H])([H])C([H])([H])C([H])([H])C([H])([H])C1([H])[H]

$$$$
3:0:0
     RDKit          3D

 38 41  0  0  1  0  0  0  0  0999 V2000
    1.7421   -5.5066    0.4106 O   0  0  0  0  0  0  0  0  0  0  0  0
    2.9604   -5.4927    0.6144 C   0  0  0  0  0  0  0  0  0  0  0  0
    3.6047   -6.6426    1.3014 C   0  0  0  0  0  0  0  0  0  0  0  0
    3.0102   -7.7396    1.7721 N   0  0  0  0  0  0  0  0  0  0  0  0
    4.0839   -8.4186    2.2779 C   0  0  0  0  0  0  0  0  0  0  0  0
    5.2679   -7.8105    2.1576 N   0  0  0  0  0  0  0  0  0  0  0  0
    4.9217   -6.6632    1.5218 N   0  0  0  0  0  0  0  0  0  0  0  0
    5.7694   -5.5965    1.1012 C   0  0  0  0  0  0  0  0  0  0  0  0
    7.1594   -5.6258    1.3219 C   0  0  0  0  0  0  0  0  0  0  0  0
    7.9362   -4.5364    0.8810 C   0  0  0  0  0  0  0  0  0  0  0  0
    7.2930   -3.4697    0.2374 C   0  0  0  0  0  0  0  0  0  0  0  0
    5.9649   -3.4473    0.0113 N   0  0  0  0  0  0  0  0  0  0  0  0
    5.1934   -4.4839    0.4436 C   0  0  0  0  0  0  0  0  0  0  0  0
    3.7653   -4.4675    0.2512 N   0  0  0  0  0  0  0  0  0  0  0  0
    3.1560   -3.2909   -0.3839 C   0  0  0  0  0  0  0  0  0  0  0  0
    3.0263   -3.5246   -1.8948 C   0  0  0  0  0  0  0  0  0  0  0  0
    2.8112   -2.2553   -2.6148 N   0  0  0  0  0  0  0  0  0  0  0  0
    3.9313   -1.2991   -2.4837 C   0  0  0  0  0  0  0  0  0  0  0  0
    3.6851   -0.2758   -3.5749 C   0  0  0  0  0  0  0  0  0  0  0  0
    2.8618   -0.9963   -4.6305 C   0  0  0  0  0  0  0  0  0  0  0  0
    2.6224   -2.4078   -4.0663 C   0  0  0  0  0  0  0  0  0  0  0  0
    3.9862   -9.3853    2.7575 H   0  0  0  0  0  0  0  0  0  0  0  0
    7.6082   -6.4681    1.8213 H   0  0  0  0  0  0  0  0  0  0  0  0
    8.9998   -4.5259    1.0504 H   0  0  0  0  0  0  0  0  0  0  0  0
    7.8546   -2.6066   -0.0975 H   0  0  0  0  0  0  0  0  0  0  0  0
    2.1756   -3.0451    0.0340 H   0  0  0  0  0  0  0  0  0  0  0  0
    3.7433   -2.4160   -0.1385 H   0  0  0  0  0  0  0  0  0  0  0  0
    3.9030   -4.0470   -2.2938 H   0  0  0  0  0  0  0  0  0  0  0  0
    2.1757   -4.1861   -2.0826 H   0  0  0  0  0  0  0  0  0  0  0  0
    3.9899   -0.7959   -1.5117 H   0  0  0  0  0  0  0  0  0  0  0  0
    4.8650   -1.8222   -2.6614 H   0  0  0  0  0  0  0  0  0  0  0  0
    3.1066    0.5330   -3.1415 H   0  0  0  0  0  0  0  0  0  0  0  0
    4.6022    0.1251   -3.9793 H   0  0  0  0  0  0  0  0  0  0  0  0
    1.9060   -0.4829   -4.7699 H   0  0  0  0  0  0  0  0  0  0  0  0
    3.4144   -1.0021   -5.5660 H   0  0  0  0  0  0  0  0  0  0  0  0
    3.3991   -3.0651   -4.4588 H   0  0  0  0  0  0  0  0  0  0  0  0
    1.6536   -2.8522   -4.3109 H   0  0  0  0  0  0  0  0  0  0  0  0
    1.9845   -1.8011   -2.2367 H   0  0  0  0  0  0  0  0  0  0  0  0
  1  2  2  0
  2 14  1  0
  2  3  1  0
  3  7  1  0
  3  4  2  0
  4  5  1  0
  5  6  2  0
  5 22  1  0
  6  7  1  0
  7  8  1  0
  8 13  2  0
  8  9  1  0
  9 10  2  0
  9 23  1  0
 10 11  1  0
 10 24  1  0
 11 12  2  0
 11 25  1  0
 12 13  1  0
 13 14  1  0
 14 15  1  0
 15 16  1  0
 15 26  1  0
 15 27  1  0
 16 17  1  0
 16 28  1  0
 16 29  1  0
 17 21  1  0
 17 18  1  0
 17 38  1  0
 18 19  1  0
 18 30  1  0
 18 31  1  0
 19 20  1  0
 19 32  1  0
 19 33  1  0
 20 21  1  0
 20 34  1  0
 20 35  1  0
 21 36  1  0
 21 37  1  0
M  CHG  1  17   1
M  END
>  <i_m_ct_stereo_status>  (8) 
1

>  <s_m_source_file>  (8) 
/var/tmp/pbs.5076255.sched01/tmpvsf1hu0j/0g1dnczxv.sdf

>  <i_m_source_file_index>  (8) 
4

>  <i_lp_mmshare_version>  (8) 
48012

>  <i_f3d_flags>  (8) 
0

>  <s_epik_input>  (8) 
bjFbY0hdbm4oYzEyKWMzYyhuW2NIXVtjSF1bY0hdMyluKGMyPU8pW0NIMl1bQ0gyXU40W0NIMl1bQ0gyXVtDSDJdW0NIMl00

>  <s_epik_cmdline>  (8) 
J2VwaWtfcHl0aG9uJywgJy1waHQnLCAnMi4wJywgJy1waCcsICc3LjAnLCAnLXRuJywgJzgnLCAnLW1hJywgJzIwMCcsICctaW1hZScsICc8aW5maWxlLm1hZT4nLCAnLW9tYWUnLCAnPG91dGZpbGUubWFlPic=

>  <r_epik_Ionization_Penalty>  (8) 
0.0455976

>  <r_epik_Ionization_Penalty_Charging>  (8) 
0.0455973

>  <r_epik_Ionization_Penalty_Neutral>  (8) 
2.55136e-07

>  <r_epik_State_Penalty>  (8) 
0.0387176

>  <r_epik_Charging_Adjusted_Penalty>  (8) 
0.0843149

>  <i_epik_Tot_Q>  (8) 
1

>  <i_epik_Tot_abs_Q>  (8) 
1

>  <s_lp_Force_Field>  (8) 
OPLS3e

>  <r_lp_Energy>  (8) 
46.6995

>  <b_lp_Chiralities_Consistent>  (8) 
1

>  <s_lp_Variant>  (8) 
3:0-1

>  <s_i_glide_gridfile>  (8) 
pfpi4k_grid

>  <i_i_glide_lignum>  (8) 
4

>  <i_i_glide_rotatable_bonds>  (8) 
3

>  <r_i_docking_score>  (8) 
-4.5788

>  <r_i_glide_ligand_efficiency>  (8) 
-0.218038

>  <r_i_glide_ligand_efficiency_sa>  (8) 
-0.60155

>  <r_i_glide_ligand_efficiency_ln>  (8) 
-1.1321

>  <r_i_glide_gscore>  (8) 
-4.5788

>  <r_i_glide_lipo>  (8) 
-0.881203

>  <r_i_glide_hbond>  (8) 
-0.311926

>  <r_i_glide_metal>  (8) 
-0

>  <r_i_glide_rewards>  (8) 
-1.73133

>  <r_i_glide_evdw>  (8) 
-22.8874

>  <r_i_glide_ecoul>  (8) 
-7.41542

>  <r_i_glide_erotb>  (8) 
0.668532

>  <r_i_glide_esite>  (8) 
-0.0661865

>  <r_i_glide_emodel>  (8) 
-41.1702

>  <r_i_glide_energy>  (8) 
-30.3028

>  <r_i_glide_einternal>  (8) 
1.88231

>  <r_i_glide_intrahb_reward>  (8) 
-0

>  <i_i_glide_confnum>  (8) 
3

>  <i_i_glide_posenum>  (8) 
26

>  <r_i_glide_eff_state_penalty>  (8) 
0

>  <ligand_id>  (8) 
3

>  <original_smiles>  (8) 
O=c1c2ncnn2c2cccnc2n1CCN1CCCC1

>  <smiles>  (8) 
[H]c1nc2c(=O)n(C([H])([H])C([H])([H])[N+]3([H])C([H])([H])C([H])([H])C([H])([H])C3([H])[H])c3nc([H])c([H])c([H])c3n2n1

$$$$
3:0:1
     RDKit          3D

 38 41  0  0  1  0  0  0  0  0999 V2000
    1.5429   -6.0670    0.8829 O   0  0  0  0  0  0  0  0  0  0  0  0
    2.7769   -5.9203    0.8904 C   0  0  0  0  0  0  0  0  0  0  0  0
    3.3112   -4.5474    0.6240 C   0  0  0  0  0  0  0  0  0  0  0  0
    2.6185   -3.4492    0.3461 N   0  0  0  0  0  0  0  0  0  0  0  0
    3.6265   -2.5285    0.2162 C   0  0  0  0  0  0  0  0  0  0  0  0
    4.8666   -2.9915    0.3986 N   0  0  0  0  0  0  0  0  0  0  0  0
    4.6241   -4.3078    0.6541 N   0  0  0  0  0  0  0  0  0  0  0  0
    5.5454   -5.3399    0.9386 C   0  0  0  0  0  0  0  0  0  0  0  0
    6.9313   -5.0773    0.9935 C   0  0  0  0  0  0  0  0  0  0  0  0
    7.8100   -6.1389    1.2848 C   0  0  0  0  0  0  0  0  0  0  0  0
    7.2707   -7.4116    1.5132 C   0  0  0  0  0  0  0  0  0  0  0  0
    5.9467   -7.6614    1.4535 N   0  0  0  0  0  0  0  0  0  0  0  0
    5.0785   -6.6629    1.1758 C   0  0  0  0  0  0  0  0  0  0  0  0
    3.6616   -6.9079    1.1277 N   0  0  0  0  0  0  0  0  0  0  0  0
    3.1954   -8.2768    1.3665 C   0  0  0  0  0  0  0  0  0  0  0  0
    3.2585   -8.5896    2.8585 C   0  0  0  0  0  0  0  0  0  0  0  0
    2.8136   -9.9809    3.0885 N   0  0  0  0  0  0  0  0  0  0  0  0
    3.2442  -10.5627    4.3702 C   0  0  0  0  0  0  0  0  0  0  0  0
    2.3657  -11.8015    4.5319 C   0  0  0  0  0  0  0  0  0  0  0  0
    1.1212  -11.5421    3.6711 C   0  0  0  0  0  0  0  0  0  0  0  0
    1.3501  -10.1696    3.0469 C   0  0  0  0  0  0  0  0  0  0  0  0
    3.4182   -1.4847   -0.0098 H   0  0  0  0  0  0  0  0  0  0  0  0
    7.3154   -4.0769    0.8185 H   0  0  0  0  0  0  0  0  0  0  0  0
    8.8795   -5.9942    1.3369 H   0  0  0  0  0  0  0  0  0  0  0  0
    7.9081   -8.2547    1.7341 H   0  0  0  0  0  0  0  0  0  0  0  0
    2.1845   -8.4382    0.9957 H   0  0  0  0  0  0  0  0  0  0  0  0
    3.8075   -8.9711    0.7989 H   0  0  0  0  0  0  0  0  0  0  0  0
    4.2755   -8.4782    3.2327 H   0  0  0  0  0  0  0  0  0  0  0  0
    2.6715   -7.8812    3.4501 H   0  0  0  0  0  0  0  0  0  0  0  0
    4.3178  -10.7783    4.4036 H   0  0  0  0  0  0  0  0  0  0  0  0
    3.0160   -9.8500    5.1613 H   0  0  0  0  0  0  0  0  0  0  0  0
    2.9076  -12.6660    4.1622 H   0  0  0  0  0  0  0  0  0  0  0  0
    2.1330  -11.9620    5.5819 H   0  0  0  0  0  0  0  0  0  0  0  0
    1.0465  -12.2859    2.8827 H   0  0  0  0  0  0  0  0  0  0  0  0
    0.2003  -11.5599    4.2492 H   0  0  0  0  0  0  0  0  0  0  0  0
    0.8865   -9.4152    3.6809 H   0  0  0  0  0  0  0  0  0  0  0  0
    0.9242  -10.0650    2.0447 H   0  0  0  0  0  0  0  0  0  0  0  0
    3.2094  -10.5851    2.3753 H   0  0  0  0  0  0  0  0  0  0  0  0
  1  2  2  0
  2 14  1  0
  2  3  1  0
  3  7  1  0
  3  4  2  0
  4  5  1  0
  5  6  2  0
  5 22  1  0
  6  7  1  0
  7  8  1  0
  8 13  2  0
  8  9  1  0
  9 10  2  0
  9 23  1  0
 10 11  1  0
 10 24  1  0
 11 12  2  0
 11 25  1  0
 12 13  1  0
 13 14  1  0
 14 15  1  0
 15 16  1  0
 15 26  1  0
 15 27  1  0
 16 17  1  0
 16 28  1  0
 16 29  1  0
 17 21  1  0
 17 18  1  0
 17 38  1  0
 18 19  1  0
 18 30  1  0
 18 31  1  0
 19 20  1  0
 19 32  1  0
 19 33  1  0
 20 21  1  0
 20 34  1  0
 20 35  1  0
 21 36  1  0
 21 37  1  0
M  CHG  1  17   1
M  END
>  <i_m_ct_stereo_status>  (9) 
1

>  <s_m_source_file>  (9) 
/var/tmp/pbs.5076255.sched01/tmpvsf1hu0j/0g1dnczxv.sdf

>  <i_m_source_file_index>  (9) 
4

>  <i_lp_mmshare_version>  (9) 
48012

>  <i_f3d_flags>  (9) 
0

>  <s_epik_input>  (9) 
bjFbY0hdbm4oYzEyKWMzYyhuW2NIXVtjSF1bY0hdMyluKGMyPU8pW0NIMl1bQ0gyXU40W0NIMl1bQ0gyXVtDSDJdW0NIMl00

>  <s_epik_cmdline>  (9) 
J2VwaWtfcHl0aG9uJywgJy1waHQnLCAnMi4wJywgJy1waCcsICc3LjAnLCAnLXRuJywgJzgnLCAnLW1hJywgJzIwMCcsICctaW1hZScsICc8aW5maWxlLm1hZT4nLCAnLW9tYWUnLCAnPG91dGZpbGUubWFlPic=

>  <r_epik_Ionization_Penalty>  (9) 
0.0455976

>  <r_epik_Ionization_Penalty_Charging>  (9) 
0.0455973

>  <r_epik_Ionization_Penalty_Neutral>  (9) 
2.55136e-07

>  <r_epik_State_Penalty>  (9) 
0.0387176

>  <r_epik_Charging_Adjusted_Penalty>  (9) 
0.0843149

>  <i_epik_Tot_Q>  (9) 
1

>  <i_epik_Tot_abs_Q>  (9) 
1

>  <s_lp_Force_Field>  (9) 
OPLS3e

>  <r_lp_Energy>  (9) 
46.6995

>  <b_lp_Chiralities_Consistent>  (9) 
1

>  <s_lp_Variant>  (9) 
3:0-1

>  <s_i_glide_gridfile>  (9) 
pfpi4k_grid

>  <i_i_glide_lignum>  (9) 
4

>  <i_i_glide_rotatable_bonds>  (9) 
3

>  <r_i_docking_score>  (9) 
-3.66999

>  <r_i_glide_ligand_efficiency>  (9) 
-0.174761

>  <r_i_glide_ligand_efficiency_sa>  (9) 
-0.482153

>  <r_i_glide_ligand_efficiency_ln>  (9) 
-0.907397

>  <r_i_glide_gscore>  (9) 
-3.66999

>  <r_i_glide_lipo>  (9) 
-0.501442

>  <r_i_glide_hbond>  (9) 
-0.110843

>  <r_i_glide_metal>  (9) 
-0

>  <r_i_glide_rewards>  (9) 
-1.74033

>  <r_i_glide_evdw>  (9) 
-22.3785

>  <r_i_glide_ecoul>  (9) 
-5.4568

>  <r_i_glide_erotb>  (9) 
0.668532

>  <r_i_glide_esite>  (9) 
-0.0484597

>  <r_i_glide_emodel>  (9) 
-37.0898

>  <r_i_glide_energy>  (9) 
-27.8353

>  <r_i_glide_einternal>  (9) 
0.828498

>  <r_i_glide_intrahb_reward>  (9) 
-0

>  <i_i_glide_confnum>  (9) 
5

>  <i_i_glide_posenum>  (9) 
1

>  <r_i_glide_eff_state_penalty>  (9) 
0

>  <ligand_id>  (9) 
3

>  <original_smiles>  (9) 
O=c1c2ncnn2c2cccnc2n1CCN1CCCC1

>  <smiles>  (9) 
[H]c1nc2c(=O)n(C([H])([H])C([H])([H])[N+]3([H])C([H])([H])C([H])([H])C([H])([H])C3([H])[H])c3nc([H])c([H])c([H])c3n2n1

$$$$
3:0:2
     RDKit          3D

 38 41  0  0  1  0  0  0  0  0999 V2000
    1.4752   -5.8670    1.6233 O   0  0  0  0  0  0  0  0  0  0  0  0
    2.6921   -5.7896    1.4176 C   0  0  0  0  0  0  0  0  0  0  0  0
    3.2029   -4.8189    0.4165 C   0  0  0  0  0  0  0  0  0  0  0  0
    2.4860   -3.9775   -0.3266 N   0  0  0  0  0  0  0  0  0  0  0  0
    3.4746   -3.3647   -1.0462 C   0  0  0  0  0  0  0  0  0  0  0  0
    4.7245   -3.7539   -0.7774 N   0  0  0  0  0  0  0  0  0  0  0  0
    4.5154   -4.6978    0.1690 N   0  0  0  0  0  0  0  0  0  0  0  0
    5.4746   -5.4841    0.8605 C   0  0  0  0  0  0  0  0  0  0  0  0
    6.8588   -5.3436    0.6296 C   0  0  0  0  0  0  0  0  0  0  0  0
    7.7523   -6.1627    1.3467 C   0  0  0  0  0  0  0  0  0  0  0  0
    7.2286   -7.0794    2.2671 C   0  0  0  0  0  0  0  0  0  0  0  0
    5.9075   -7.2165    2.4850 N   0  0  0  0  0  0  0  0  0  0  0  0
    5.0277   -6.4338    1.8109 C   0  0  0  0  0  0  0  0  0  0  0  0
    3.6217   -6.5473    2.0640 N   0  0  0  0  0  0  0  0  0  0  0  0
    3.1601   -7.4965    3.0788 C   0  0  0  0  0  0  0  0  0  0  0  0
    2.6034   -8.7754    2.4333 C   0  0  0  0  0  0  0  0  0  0  0  0
    2.2740   -9.7589    3.4861 N   0  0  0  0  0  0  0  0  0  0  0  0
    1.2723   -9.3007    4.4636 C   0  0  0  0  0  0  0  0  0  0  0  0
    0.8633  -10.5644    5.1999 C   0  0  0  0  0  0  0  0  0  0  0  0
    1.1739  -11.7150    4.2339 C   0  0  0  0  0  0  0  0  0  0  0  0
    1.7694  -11.0471    2.9916 C   0  0  0  0  0  0  0  0  0  0  0  0
    3.2643   -2.5967   -1.7833 H   0  0  0  0  0  0  0  0  0  0  0  0
    7.2227   -4.6311   -0.0935 H   0  0  0  0  0  0  0  0  0  0  0  0
    8.8194   -6.1018    1.1941 H   0  0  0  0  0  0  0  0  0  0  0  0
    7.8762   -7.7193    2.8489 H   0  0  0  0  0  0  0  0  0  0  0  0
    3.9380   -7.7711    3.7902 H   0  0  0  0  0  0  0  0  0  0  0  0
    2.4112   -7.0036    3.6979 H   0  0  0  0  0  0  0  0  0  0  0  0
    1.7141   -8.5633    1.8332 H   0  0  0  0  0  0  0  0  0  0  0  0
    3.3345   -9.2166    1.7485 H   0  0  0  0  0  0  0  0  0  0  0  0
    1.6410   -8.5316    5.1468 H   0  0  0  0  0  0  0  0  0  0  0  0
    0.4213   -8.8895    3.9199 H   0  0  0  0  0  0  0  0  0  0  0  0
    1.4648  -10.6546    6.1009 H   0  0  0  0  0  0  0  0  0  0  0  0
   -0.1808  -10.5155    5.4969 H   0  0  0  0  0  0  0  0  0  0  0  0
    1.9086  -12.3800    4.6813 H   0  0  0  0  0  0  0  0  0  0  0  0
    0.2906  -12.3010    3.9803 H   0  0  0  0  0  0  0  0  0  0  0  0
    0.9724  -10.8322    2.2771 H   0  0  0  0  0  0  0  0  0  0  0  0
    2.5469  -11.6380    2.4946 H   0  0  0  0  0  0  0  0  0  0  0  0
    3.1181   -9.9655    4.0044 H   0  0  0  0  0  0  0  0  0  0  0  0
  1  2  2  0
  2 14  1  0
  2  3  1  0
  3  7  1  0
  3  4  2  0
  4  5  1  0
  5  6  2  0
  5 22  1  0
  6  7  1  0
  7  8  1  0
  8 13  2  0
  8  9  1  0
  9 10  2  0
  9 23  1  0
 10 11  1  0
 10 24  1  0
 11 12  2  0
 11 25  1  0
 12 13  1  0
 13 14  1  0
 14 15  1  0
 15 16  1  0
 15 26  1  0
 15 27  1  0
 16 17  1  0
 16 28  1  0
 16 29  1  0
 17 21  1  0
 17 18  1  0
 17 38  1  0
 18 19  1  0
 18 30  1  0
 18 31  1  0
 19 20  1  0
 19 32  1  0
 19 33  1  0
 20 21  1  0
 20 34  1  0
 20 35  1  0
 21 36  1  0
 21 37  1  0
M  CHG  1  17   1
M  END
>  <i_m_ct_stereo_status>  (10) 
1

>  <s_m_source_file>  (10) 
/var/tmp/pbs.5076255.sched01/tmpvsf1hu0j/0g1dnczxv.sdf

>  <i_m_source_file_index>  (10) 
4

>  <i_lp_mmshare_version>  (10) 
48012

>  <i_f3d_flags>  (10) 
0

>  <s_epik_input>  (10) 
bjFbY0hdbm4oYzEyKWMzYyhuW2NIXVtjSF1bY0hdMyluKGMyPU8pW0NIMl1bQ0gyXU40W0NIMl1bQ0gyXVtDSDJdW0NIMl00

>  <s_epik_cmdline>  (10) 
J2VwaWtfcHl0aG9uJywgJy1waHQnLCAnMi4wJywgJy1waCcsICc3LjAnLCAnLXRuJywgJzgnLCAnLW1hJywgJzIwMCcsICctaW1hZScsICc8aW5maWxlLm1hZT4nLCAnLW9tYWUnLCAnPG91dGZpbGUubWFlPic=

>  <r_epik_Ionization_Penalty>  (10) 
0.0455976

>  <r_epik_Ionization_Penalty_Charging>  (10) 
0.0455973

>  <r_epik_Ionization_Penalty_Neutral>  (10) 
2.55136e-07

>  <r_epik_State_Penalty>  (10) 
0.0387176

>  <r_epik_Charging_Adjusted_Penalty>  (10) 
0.0843149

>  <i_epik_Tot_Q>  (10) 
1

>  <i_epik_Tot_abs_Q>  (10) 
1

>  <s_lp_Force_Field>  (10) 
OPLS3e

>  <r_lp_Energy>  (10) 
46.6995

>  <b_lp_Chiralities_Consistent>  (10) 
1

>  <s_lp_Variant>  (10) 
3:0-1

>  <s_i_glide_gridfile>  (10) 
pfpi4k_grid

>  <i_i_glide_lignum>  (10) 
4

>  <i_i_glide_rotatable_bonds>  (10) 
3

>  <r_i_docking_score>  (10) 
-3.17403

>  <r_i_glide_ligand_efficiency>  (10) 
-0.151144

>  <r_i_glide_ligand_efficiency_sa>  (10) 
-0.416995

>  <r_i_glide_ligand_efficiency_ln>  (10) 
-0.784772

>  <r_i_glide_gscore>  (10) 
-3.17403

>  <r_i_glide_lipo>  (10) 
-0.363979

>  <r_i_glide_hbond>  (10) 
-0.0856889

>  <r_i_glide_metal>  (10) 
-0

>  <r_i_glide_rewards>  (10) 
-1.66975

>  <r_i_glide_evdw>  (10) 
-21.3281

>  <r_i_glide_ecoul>  (10) 
-4.24609

>  <r_i_glide_erotb>  (10) 
0.668532

>  <r_i_glide_esite>  (10) 
-0.0198274

>  <r_i_glide_emodel>  (10) 
-33.4047

>  <r_i_glide_energy>  (10) 
-25.5742

>  <r_i_glide_einternal>  (10) 
0.981989

>  <r_i_glide_intrahb_reward>  (10) 
-0

>  <i_i_glide_confnum>  (10) 
4

>  <i_i_glide_posenum>  (10) 
21

>  <r_i_glide_eff_state_penalty>  (10) 
0

>  <ligand_id>  (10) 
3

>  <original_smiles>  (10) 
O=c1c2ncnn2c2cccnc2n1CCN1CCCC1

>  <smiles>  (10) 
[H]c1nc2c(=O)n(C([H])([H])C([H])([H])[N+]3([H])C([H])([H])C([H])([H])C([H])([H])C3([H])[H])c3nc([H])c([H])c([H])c3n2n1

$$$$
3:1:0
     RDKit          3D

 37 40  0  0  1  0  0  0  0  0999 V2000
   -0.5208    2.3256    3.8588 O   0  0  0  0  0  0  0  0  0  0  0  0
   -0.2113    1.1386    3.9821 C   0  0  0  0  0  0  0  0  0  0  0  0
    0.8190    0.5451    3.0805 C   0  0  0  0  0  0  0  0  0  0  0  0
    1.4936    1.1564    2.1087 N   0  0  0  0  0  0  0  0  0  0  0  0
    2.2707    0.1278    1.6497 C   0  0  0  0  0  0  0  0  0  0  0  0
    2.1325   -1.0407    2.2809 N   0  0  0  0  0  0  0  0  0  0  0  0
    1.1808   -0.7392    3.1943 N   0  0  0  0  0  0  0  0  0  0  0  0
    0.6107   -1.5896    4.1725 C   0  0  0  0  0  0  0  0  0  0  0  0
    0.9888   -2.9443    4.2854 C   0  0  0  0  0  0  0  0  0  0  0  0
    0.3758   -3.7330    5.2760 C   0  0  0  0  0  0  0  0  0  0  0  0
   -0.5774   -3.1351    6.1123 C   0  0  0  0  0  0  0  0  0  0  0  0
   -0.9402   -1.8437    6.0079 N   0  0  0  0  0  0  0  0  0  0  0  0
   -0.3678   -1.0639    5.0548 C   0  0  0  0  0  0  0  0  0  0  0  0
   -0.7555    0.3128    4.9157 N   0  0  0  0  0  0  0  0  0  0  0  0
   -1.7770    0.8536    5.8280 C   0  0  0  0  0  0  0  0  0  0  0  0
   -1.1393    1.4062    7.1173 C   0  0  0  0  0  0  0  0  0  0  0  0
   -2.1818    1.7728    8.0686 N   0  0  0  0  0  0  0  0  0  0  0  0
   -1.6339    2.1857    9.3561 C   0  0  0  0  0  0  0  0  0  0  0  0
   -2.8073    2.8946   10.0355 C   0  0  0  0  0  0  0  0  0  0  0  0
   -3.6755    3.3959    8.8866 C   0  0  0  0  0  0  0  0  0  0  0  0
   -2.9396    2.9392    7.6301 C   0  0  0  0  0  0  0  0  0  0  0  0
    2.9611    0.2507    0.8258 H   0  0  0  0  0  0  0  0  0  0  0  0
    1.7244   -3.3727    3.6221 H   0  0  0  0  0  0  0  0  0  0  0  0
    0.6303   -4.7745    5.3889 H   0  0  0  0  0  0  0  0  0  0  0  0
   -1.0759   -3.7085    6.8801 H   0  0  0  0  0  0  0  0  0  0  0  0
   -2.3527    1.6364    5.3338 H   0  0  0  0  0  0  0  0  0  0  0  0
   -2.5181    0.0928    6.0627 H   0  0  0  0  0  0  0  0  0  0  0  0
   -0.4982    0.6521    7.5752 H   0  0  0  0  0  0  0  0  0  0  0  0
   -0.4973    2.2666    6.9051 H   0  0  0  0  0  0  0  0  0  0  0  0
   -1.2585    1.3429    9.9377 H   0  0  0  0  0  0  0  0  0  0  0  0
   -0.8131    2.8879    9.2016 H   0  0  0  0  0  0  0  0  0  0  0  0
   -3.3671    2.1962   10.6565 H   0  0  0  0  0  0  0  0  0  0  0  0
   -2.4628    3.7029   10.6794 H   0  0  0  0  0  0  0  0  0  0  0  0
   -4.6658    2.9451    8.9350 H   0  0  0  0  0  0  0  0  0  0  0  0
   -3.7986    4.4782    8.9000 H   0  0  0  0  0  0  0  0  0  0  0  0
   -2.2534    3.7191    7.2931 H   0  0  0  0  0  0  0  0  0  0  0  0
   -3.6261    2.7109    6.8140 H   0  0  0  0  0  0  0  0  0  0  0  0
  1  2  2  0
  2 14  1  0
  2  3  1  0
  3  7  1  0
  3  4  2  0
  4  5  1  0
  5  6  2  0
  5 22  1  0
  6  7  1  0
  7  8  1  0
  8 13  2  0
  8  9  1  0
  9 10  2  0
  9 23  1  0
 10 11  1  0
 10 24  1  0
 11 12  2  0
 11 25  1  0
 12 13  1  0
 13 14  1  0
 14 15  1  0
 15 16  1  0
 15 26  1  0
 15 27  1  0
 16 17  1  0
 16 28  1  0
 16 29  1  0
 17 21  1  0
 17 18  1  0
 18 19  1  0
 18 30  1  0
 18 31  1  0
 19 20  1  0
 19 32  1  0
 19 33  1  0
 20 21  1  0
 20 34  1  0
 20 35  1  0
 21 36  1  0
 21 37  1  0
M  END
>  <i_m_ct_stereo_status>  (11) 
1

>  <s_m_source_file>  (11) 
/var/tmp/pbs.5076255.sched01/tmpvsf1hu0j/0g1dnczxv.sdf

>  <i_m_source_file_index>  (11) 
5

>  <i_lp_mmshare_version>  (11) 
48012

>  <i_f3d_flags>  (11) 
0

>  <s_epik_input>  (11) 
bjFbY0hdbm4oYzEyKWMzYyhuW2NIXVtjSF1bY0hdMyluKGMyPU8pW0NIMl1bQ0gyXU40W0NIMl1bQ0gyXVtDSDJdW0NIMl00

>  <s_epik_cmdline>  (11) 
J2VwaWtfcHl0aG9uJywgJy1waHQnLCAnMi4wJywgJy1waCcsICc3LjAnLCAnLXRuJywgJzgnLCAnLW1hJywgJzIwMCcsICctaW1hZScsICc8aW5maWxlLm1hZT4nLCAnLW9tYWUnLCAnPG91dGZpbGUubWFlPic=

>  <r_epik_Ionization_Penalty>  (11) 
1.54208

>  <r_epik_Ionization_Penalty_Charging>  (11) 
8.06742e-12

>  <r_epik_Ionization_Penalty_Neutral>  (11) 
1.54208

>  <r_epik_State_Penalty>  (11) 
1.63557

>  <r_epik_Charging_Adjusted_Penalty>  (11) 
1.63557

>  <i_epik_Tot_Q>  (11) 
0

>  <i_epik_Tot_abs_Q>  (11) 
0

>  <s_lp_Force_Field>  (11) 
OPLS3e

>  <r_lp_Energy>  (11) 
36.3739

>  <b_lp_Chiralities_Consistent>  (11) 
1

>  <s_lp_Variant>  (11) 
3:0-2

>  <s_i_glide_gridfile>  (11) 
pfpi4k_grid

>  <i_i_glide_lignum>  (11) 
5

>  <i_i_glide_rotatable_bonds>  (11) 
3

>  <r_i_docking_score>  (11) 
-2.74628

>  <r_i_glide_ligand_efficiency>  (11) 
-0.130775

>  <r_i_glide_ligand_efficiency_sa>  (11) 
-0.3608

>  <r_i_glide_ligand_efficiency_ln>  (11) 
-0.679013

>  <r_i_glide_gscore>  (11) 
-2.74628

>  <r_i_glide_lipo>  (11) 
-0.232957

>  <r_i_glide_hbond>  (11) 
-0.00561791

>  <r_i_glide_metal>  (11) 
-0

>  <r_i_glide_rewards>  (11) 
-1.47057

>  <r_i_glide_evdw>  (11) 
-24.3851

>  <r_i_glide_ecoul>  (11) 
-2.36782

>  <r_i_glide_erotb>  (11) 
0.672661

>  <r_i_glide_esite>  (11) 
-0.135373

>  <r_i_glide_emodel>  (11) 
-32.0266

>  <r_i_glide_energy>  (11) 
-26.7529

>  <r_i_glide_einternal>  (11) 
0.420307

>  <r_i_glide_intrahb_reward>  (11) 
-0

>  <i_i_glide_confnum>  (11) 
3

>  <i_i_glide_posenum>  (11) 
29

>  <r_i_glide_eff_state_penalty>  (11) 
0

>  <ligand_id>  (11) 
3

>  <original_smiles>  (11) 
O=c1c2ncnn2c2cccnc2n1CCN1CCCC1

>  <smiles>  (11) 
[H]c1nc2c(=O)n(C([H])([H])C([H])([H])N3C([H])([H])C([H])([H])C([H])([H])C3([H])[H])c3nc([H])c([H])c([H])c3n2n1

$$$$
3:1:1
     RDKit          3D

 37 40  0  0  1  0  0  0  0  0999 V2000
   -1.4043    0.5881    4.6021 O   0  0  0  0  0  0  0  0  0  0  0  0
   -0.5858    1.4188    4.1967 C   0  0  0  0  0  0  0  0  0  0  0  0
    0.5095    0.9777    3.2862 C   0  0  0  0  0  0  0  0  0  0  0  0
    0.7095   -0.2487    2.8047 N   0  0  0  0  0  0  0  0  0  0  0  0
    1.8349   -0.0442    2.0512 C   0  0  0  0  0  0  0  0  0  0  0  0
    2.3407    1.1898    2.0752 N   0  0  0  0  0  0  0  0  0  0  0  0
    1.4540    1.8298    2.8722 N   0  0  0  0  0  0  0  0  0  0  0  0
    1.4603    3.1873    3.2824 C   0  0  0  0  0  0  0  0  0  0  0  0
    2.4605    4.0867    2.8572 C   0  0  0  0  0  0  0  0  0  0  0  0
    2.3984    5.4229    3.2881 C   0  0  0  0  0  0  0  0  0  0  0  0
    1.3338    5.8084    4.1149 C   0  0  0  0  0  0  0  0  0  0  0  0
    0.3744    4.9552    4.5234 N   0  0  0  0  0  0  0  0  0  0  0  0
    0.4171    3.6585    4.1205 C   0  0  0  0  0  0  0  0  0  0  0  0
   -0.5973    2.7326    4.5485 N   0  0  0  0  0  0  0  0  0  0  0  0
   -1.6591    3.2212    5.4424 C   0  0  0  0  0  0  0  0  0  0  0  0
   -1.1539    3.3147    6.8945 C   0  0  0  0  0  0  0  0  0  0  0  0
   -2.2137    3.8045    7.7662 N   0  0  0  0  0  0  0  0  0  0  0  0
   -3.2305    2.7923    8.0194 C   0  0  0  0  0  0  0  0  0  0  0  0
   -3.9959    3.3450    9.2160 C   0  0  0  0  0  0  0  0  0  0  0  0
   -2.9870    4.2379    9.9322 C   0  0  0  0  0  0  0  0  0  0  0  0
   -1.7141    4.1345    9.0952 C   0  0  0  0  0  0  0  0  0  0  0  0
    2.3014   -0.8404    1.4844 H   0  0  0  0  0  0  0  0  0  0  0  0
    3.2520    3.7682    2.1980 H   0  0  0  0  0  0  0  0  0  0  0  0
    3.1399    6.1395    2.9725 H   0  0  0  0  0  0  0  0  0  0  0  0
    1.2510    6.8246    4.4724 H   0  0  0  0  0  0  0  0  0  0  0  0
   -2.0009    4.1951    5.0984 H   0  0  0  0  0  0  0  0  0  0  0  0
   -2.5495    2.5940    5.3823 H   0  0  0  0  0  0  0  0  0  0  0  0
   -0.7792    2.3516    7.2508 H   0  0  0  0  0  0  0  0  0  0  0  0
   -0.3111    4.0063    6.9488 H   0  0  0  0  0  0  0  0  0  0  0  0
   -3.8767    2.6239    7.1580 H   0  0  0  0  0  0  0  0  0  0  0  0
   -2.7549    1.8466    8.2850 H   0  0  0  0  0  0  0  0  0  0  0  0
   -4.8529    3.9290    8.8809 H   0  0  0  0  0  0  0  0  0  0  0  0
   -4.3601    2.5445    9.8557 H   0  0  0  0  0  0  0  0  0  0  0  0
   -3.3426    5.2674    9.9454 H   0  0  0  0  0  0  0  0  0  0  0  0
   -2.8163    3.9255   10.9628 H   0  0  0  0  0  0  0  0  0  0  0  0
   -1.0806    3.3297    9.4742 H   0  0  0  0  0  0  0  0  0  0  0  0
   -1.1358    5.0603    9.0943 H   0  0  0  0  0  0  0  0  0  0  0  0
  1  2  2  0
  2 14  1  0
  2  3  1  0
  3  7  1  0
  3  4  2  0
  4  5  1  0
  5  6  2  0
  5 22  1  0
  6  7  1  0
  7  8  1  0
  8 13  2  0
  8  9  1  0
  9 10  2  0
  9 23  1  0
 10 11  1  0
 10 24  1  0
 11 12  2  0
 11 25  1  0
 12 13  1  0
 13 14  1  0
 14 15  1  0
 15 16  1  0
 15 26  1  0
 15 27  1  0
 16 17  1  0
 16 28  1  0
 16 29  1  0
 17 21  1  0
 17 18  1  0
 18 19  1  0
 18 30  1  0
 18 31  1  0
 19 20  1  0
 19 32  1  0
 19 33  1  0
 20 21  1  0
 20 34  1  0
 20 35  1  0
 21 36  1  0
 21 37  1  0
M  END
>  <i_m_ct_stereo_status>  (12) 
1

>  <s_m_source_file>  (12) 
/var/tmp/pbs.5076255.sched01/tmpvsf1hu0j/0g1dnczxv.sdf

>  <i_m_source_file_index>  (12) 
5

>  <i_lp_mmshare_version>  (12) 
48012

>  <i_f3d_flags>  (12) 
0

>  <s_epik_input>  (12) 
bjFbY0hdbm4oYzEyKWMzYyhuW2NIXVtjSF1bY0hdMyluKGMyPU8pW0NIMl1bQ0gyXU40W0NIMl1bQ0gyXVtDSDJdW0NIMl00

>  <s_epik_cmdline>  (12) 
J2VwaWtfcHl0aG9uJywgJy1waHQnLCAnMi4wJywgJy1waCcsICc3LjAnLCAnLXRuJywgJzgnLCAnLW1hJywgJzIwMCcsICctaW1hZScsICc8aW5maWxlLm1hZT4nLCAnLW9tYWUnLCAnPG91dGZpbGUubWFlPic=

>  <r_epik_Ionization_Penalty>  (12) 
1.54208

>  <r_epik_Ionization_Penalty_Charging>  (12) 
8.06742e-12

>  <r_epik_Ionization_Penalty_Neutral>  (12) 
1.54208

>  <r_epik_State_Penalty>  (12) 
1.63557

>  <r_epik_Charging_Adjusted_Penalty>  (12) 
1.63557

>  <i_epik_Tot_Q>  (12) 
0

>  <i_epik_Tot_abs_Q>  (12) 
0

>  <s_lp_Force_Field>  (12) 
OPLS3e

>  <r_lp_Energy>  (12) 
36.3739

>  <b_lp_Chiralities_Consistent>  (12) 
1

>  <s_lp_Variant>  (12) 
3:0-2

>  <s_i_glide_gridfile>  (12) 
pfpi4k_grid

>  <i_i_glide_lignum>  (12) 
5

>  <i_i_glide_rotatable_bonds>  (12) 
3

>  <r_i_docking_score>  (12) 
-2.69102

>  <r_i_glide_ligand_efficiency>  (12) 
-0.128144

>  <r_i_glide_ligand_efficiency_sa>  (12) 
-0.353539

>  <r_i_glide_ligand_efficiency_ln>  (12) 
-0.665349

>  <r_i_glide_gscore>  (12) 
-2.69102

>  <r_i_glide_lipo>  (12) 
-0.202467

>  <r_i_glide_hbond>  (12) 
0

>  <r_i_glide_metal>  (12) 
-0

>  <r_i_glide_rewards>  (12) 
-1.47057

>  <r_i_glide_evdw>  (12) 
-26.085

>  <r_i_glide_ecoul>  (12) 
-1.36076

>  <r_i_glide_erotb>  (12) 
0.672661

>  <r_i_glide_esite>  (12) 
-0.18228

>  <r_i_glide_emodel>  (12) 
-32.7205

>  <r_i_glide_energy>  (12) 
-27.4458

>  <r_i_glide_einternal>  (12) 
0.207138

>  <r_i_glide_intrahb_reward>  (12) 
-0

>  <i_i_glide_confnum>  (12) 
1

>  <i_i_glide_posenum>  (12) 
2

>  <r_i_glide_eff_state_penalty>  (12) 
0

>  <ligand_id>  (12) 
3

>  <original_smiles>  (12) 
O=c1c2ncnn2c2cccnc2n1CCN1CCCC1

>  <smiles>  (12) 
[H]c1nc2c(=O)n(C([H])([H])C([H])([H])N3C([H])([H])C([H])([H])C([H])([H])C3([H])[H])c3nc([H])c([H])c([H])c3n2n1

$$$$
3:1:2
     RDKit          3D

 37 40  0  0  1  0  0  0  0  0999 V2000
   -1.0613   -0.3062    4.4696 O   0  0  0  0  0  0  0  0  0  0  0  0
   -0.3681    0.6518    4.1131 C   0  0  0  0  0  0  0  0  0  0  0  0
    0.7156    0.4446    3.1101 C   0  0  0  0  0  0  0  0  0  0  0  0
    1.0438   -0.6964    2.5040 N   0  0  0  0  0  0  0  0  0  0  0  0
    2.0844   -0.2780    1.7179 C   0  0  0  0  0  0  0  0  0  0  0  0
    2.4258    1.0070    1.8337 N   0  0  0  0  0  0  0  0  0  0  0  0
    1.5104    1.4511    2.7285 N   0  0  0  0  0  0  0  0  0  0  0  0
    1.3680    2.7574    3.2643 C   0  0  0  0  0  0  0  0  0  0  0  0
    2.2156    3.8163    2.8782 C   0  0  0  0  0  0  0  0  0  0  0  0
    2.0110    5.0897    3.4408 C   0  0  0  0  0  0  0  0  0  0  0  0
    0.9648    5.2504    4.3588 C   0  0  0  0  0  0  0  0  0  0  0  0
    0.1545    4.2429    4.7355 N   0  0  0  0  0  0  0  0  0  0  0  0
    0.3344    3.0058    4.2037 C   0  0  0  0  0  0  0  0  0  0  0  0
   -0.5173    1.9146    4.5943 N   0  0  0  0  0  0  0  0  0  0  0  0
   -1.5778    2.1707    5.5779 C   0  0  0  0  0  0  0  0  0  0  0  0
   -1.0253    2.1177    7.0160 C   0  0  0  0  0  0  0  0  0  0  0  0
   -2.0995    2.3002    7.9871 N   0  0  0  0  0  0  0  0  0  0  0  0
   -1.5934    2.3349    9.3549 C   0  0  0  0  0  0  0  0  0  0  0  0
   -2.7558    2.9348   10.1477 C   0  0  0  0  0  0  0  0  0  0  0  0
   -3.5269    3.7703    9.1331 C   0  0  0  0  0  0  0  0  0  0  0  0
   -2.7430    3.5987    7.8401 C   0  0  0  0  0  0  0  0  0  0  0  0
    2.6127   -0.9507    1.0530 H   0  0  0  0  0  0  0  0  0  0  0  0
    2.9962    3.6664    2.1484 H   0  0  0  0  0  0  0  0  0  0  0  0
    2.6276    5.9259    3.1549 H   0  0  0  0  0  0  0  0  0  0  0  0
    0.7715    6.2121    4.8127 H   0  0  0  0  0  0  0  0  0  0  0  0
   -2.0132    3.1420    5.3574 H   0  0  0  0  0  0  0  0  0  0  0  0
   -2.4136    1.4774    5.4758 H   0  0  0  0  0  0  0  0  0  0  0  0
   -0.5462    1.1533    7.2012 H   0  0  0  0  0  0  0  0  0  0  0  0
   -0.2496    2.8759    7.1584 H   0  0  0  0  0  0  0  0  0  0  0  0
   -1.3015    1.3468    9.7139 H   0  0  0  0  0  0  0  0  0  0  0  0
   -0.7231    2.9928    9.4180 H   0  0  0  0  0  0  0  0  0  0  0  0
   -3.3879    2.1434   10.5452 H   0  0  0  0  0  0  0  0  0  0  0  0
   -2.4003    3.5273   10.9896 H   0  0  0  0  0  0  0  0  0  0  0  0
   -4.5429    3.3912    9.0193 H   0  0  0  0  0  0  0  0  0  0  0  0
   -3.5850    4.8213    9.4115 H   0  0  0  0  0  0  0  0  0  0  0  0
   -1.9924    4.3831    7.7402 H   0  0  0  0  0  0  0  0  0  0  0  0
   -3.3838    3.6307    6.9617 H   0  0  0  0  0  0  0  0  0  0  0  0
  1  2  2  0
  2 14  1  0
  2  3  1  0
  3  7  1  0
  3  4  2  0
  4  5  1  0
  5  6  2  0
  5 22  1  0
  6  7  1  0
  7  8  1  0
  8 13  2  0
  8  9  1  0
  9 10  2  0
  9 23  1  0
 10 11  1  0
 10 24  1  0
 11 12  2  0
 11 25  1  0
 12 13  1  0
 13 14  1  0
 14 15  1  0
 15 16  1  0
 15 26  1  0
 15 27  1  0
 16 17  1  0
 16 28  1  0
 16 29  1  0
 17 21  1  0
 17 18  1  0
 18 19  1  0
 18 30  1  0
 18 31  1  0
 19 20  1  0
 19 32  1  0
 19 33  1  0
 20 21  1  0
 20 34  1  0
 20 35  1  0
 21 36  1  0
 21 37  1  0
M  END
>  <i_m_ct_stereo_status>  (13) 
1

>  <s_m_source_file>  (13) 
/var/tmp/pbs.5076255.sched01/tmpvsf1hu0j/0g1dnczxv.sdf

>  <i_m_source_file_index>  (13) 
5

>  <i_lp_mmshare_version>  (13) 
48012

>  <i_f3d_flags>  (13) 
0

>  <s_epik_input>  (13) 
bjFbY0hdbm4oYzEyKWMzYyhuW2NIXVtjSF1bY0hdMyluKGMyPU8pW0NIMl1bQ0gyXU40W0NIMl1bQ0gyXVtDSDJdW0NIMl00

>  <s_epik_cmdline>  (13) 
J2VwaWtfcHl0aG9uJywgJy1waHQnLCAnMi4wJywgJy1waCcsICc3LjAnLCAnLXRuJywgJzgnLCAnLW1hJywgJzIwMCcsICctaW1hZScsICc8aW5maWxlLm1hZT4nLCAnLW9tYWUnLCAnPG91dGZpbGUubWFlPic=

>  <r_epik_Ionization_Penalty>  (13) 
1.54208

>  <r_epik_Ionization_Penalty_Charging>  (13) 
8.06742e-12

>  <r_epik_Ionization_Penalty_Neutral>  (13) 
1.54208

>  <r_epik_State_Penalty>  (13) 
1.63557

>  <r_epik_Charging_Adjusted_Penalty>  (13) 
1.63557

>  <i_epik_Tot_Q>  (13) 
0

>  <i_epik_Tot_abs_Q>  (13) 
0

>  <s_lp_Force_Field>  (13) 
OPLS3e

>  <r_lp_Energy>  (13) 
36.3739

>  <b_lp_Chiralities_Consistent>  (13) 
1

>  <s_lp_Variant>  (13) 
3:0-2

>  <s_i_glide_gridfile>  (13) 
pfpi4k_grid

>  <i_i_glide_lignum>  (13) 
5

>  <i_i_glide_rotatable_bonds>  (13) 
3

>  <r_i_docking_score>  (13) 
-2.64388

>  <r_i_glide_ligand_efficiency>  (13) 
-0.125899

>  <r_i_glide_ligand_efficiency_sa>  (13) 
-0.347346

>  <r_i_glide_ligand_efficiency_ln>  (13) 
-0.653694

>  <r_i_glide_gscore>  (13) 
-2.64388

>  <r_i_glide_lipo>  (13) 
-0.220463

>  <r_i_glide_hbond>  (13) 
0

>  <r_i_glide_metal>  (13) 
-0

>  <r_i_glide_rewards>  (13) 
-1.47057

>  <r_i_glide_evdw>  (13) 
-24.8701

>  <r_i_glide_ecoul>  (13) 
-1.43123

>  <r_i_glide_erotb>  (13) 
0.672661

>  <r_i_glide_esite>  (13) 
-0.16732

>  <r_i_glide_emodel>  (13) 
-31.1883

>  <r_i_glide_energy>  (13) 
-26.3014

>  <r_i_glide_einternal>  (13) 
0.61279

>  <r_i_glide_intrahb_reward>  (13) 
-0

>  <i_i_glide_confnum>  (13) 
4

>  <i_i_glide_posenum>  (13) 
39

>  <r_i_glide_eff_state_penalty>  (13) 
0

>  <ligand_id>  (13) 
3

>  <original_smiles>  (13) 
O=c1c2ncnn2c2cccnc2n1CCN1CCCC1

>  <smiles>  (13) 
[H]c1nc2c(=O)n(C([H])([H])C([H])([H])N3C([H])([H])C([H])([H])C([H])([H])C3([H])[H])c3nc([H])c([H])c([H])c3n2n1

$$$$
4:0:0
     RDKit          3D

 41 43  0  0  1  0  0  0  0  0999 V2000
   -1.5913   -8.6563    4.0833 O   0  0  0  0  0  0  0  0  0  0  0  0
   -0.3247   -8.2831    4.5760 C   0  0  0  0  0  0  0  0  0  0  0  0
    0.7153   -9.3699    4.2510 C   0  0  0  0  0  0  0  0  0  0  0  0
    1.0617   -9.5135    2.7549 C   0  0  0  0  0  0  0  0  0  0  0  0
    1.4859   -8.2181    2.0923 C   0  0  0  0  0  0  0  0  0  0  0  0
    2.8035   -7.7307    2.1685 C   0  0  0  0  0  0  0  0  0  0  0  0
    3.1545   -6.5613    1.6038 N   0  0  0  0  0  0  0  0  0  0  0  0
    2.2099   -5.8927    0.9418 C   0  0  0  0  0  0  0  0  0  0  0  0
    2.5022   -4.7239    0.3228 O   0  0  0  0  0  0  0  0  0  0  0  0
    3.7531   -4.1549    0.4756 C   0  0  0  0  0  0  0  0  0  0  0  0
    4.9048   -4.7925   -0.0352 C   0  0  0  0  0  0  0  0  0  0  0  0
    6.1718   -4.2024    0.1105 C   0  0  0  0  0  0  0  0  0  0  0  0
    6.3012   -2.9490    0.7308 C   0  0  0  0  0  0  0  0  0  0  0  0
    5.1586   -2.2746    1.2073 C   0  0  0  0  0  0  0  0  0  0  0  0
    3.8756   -2.8752    1.0751 C   0  0  0  0  0  0  0  0  0  0  0  0
    2.6270   -2.1581    1.5797 C   0  0  0  0  0  0  0  0  0  0  0  0
    2.8310   -0.6649    1.8717 C   0  0  0  0  0  0  0  0  0  0  0  0
    4.1263   -0.4264    2.6499 C   0  0  0  0  0  0  0  0  0  0  0  0
    5.3439   -0.9012    1.8457 C   0  0  0  0  0  0  0  0  0  0  0  0
    0.9270   -6.2551    0.8087 N   0  0  0  0  0  0  0  0  0  0  0  0
    0.5688   -7.4278    1.3739 C   0  0  0  0  0  0  0  0  0  0  0  0
   -1.7887   -9.5307    4.4308 H   0  0  0  0  0  0  0  0  0  0  0  0
   -0.0422   -7.3159    4.1618 H   0  0  0  0  0  0  0  0  0  0  0  0
   -0.3921   -8.1409    5.6542 H   0  0  0  0  0  0  0  0  0  0  0  0
    1.6305   -9.1314    4.7883 H   0  0  0  0  0  0  0  0  0  0  0  0
    0.3848  -10.3334    4.6480 H   0  0  0  0  0  0  0  0  0  0  0  0
    1.8590  -10.2488    2.6337 H   0  0  0  0  0  0  0  0  0  0  0  0
    0.2010   -9.9207    2.2244 H   0  0  0  0  0  0  0  0  0  0  0  0
    3.5750   -8.2681    2.6988 H   0  0  0  0  0  0  0  0  0  0  0  0
    4.8171   -5.7541   -0.5234 H   0  0  0  0  0  0  0  0  0  0  0  0
    7.0538   -4.7153   -0.2421 H   0  0  0  0  0  0  0  0  0  0  0  0
    7.2806   -2.5076    0.8435 H   0  0  0  0  0  0  0  0  0  0  0  0
    1.8140   -2.2647    0.8627 H   0  0  0  0  0  0  0  0  0  0  0  0
    2.3116   -2.6677    2.4888 H   0  0  0  0  0  0  0  0  0  0  0  0
    2.8713   -0.1105    0.9325 H   0  0  0  0  0  0  0  0  0  0  0  0
    1.9740   -0.2714    2.4184 H   0  0  0  0  0  0  0  0  0  0  0  0
    4.2272    0.6277    2.9118 H   0  0  0  0  0  0  0  0  0  0  0  0
    4.0779   -0.9736    3.5925 H   0  0  0  0  0  0  0  0  0  0  0  0
    6.2246   -0.9106    2.4885 H   0  0  0  0  0  0  0  0  0  0  0  0
    5.5535   -0.1857    1.0498 H   0  0  0  0  0  0  0  0  0  0  0  0
   -0.4660   -7.7120    1.2785 H   0  0  0  0  0  0  0  0  0  0  0  0
  1  2  1  0
  1 22  1  0
  2  3  1  0
  2 23  1  0
  2 24  1  0
  3  4  1  0
  3 25  1  0
  3 26  1  0
  4  5  1  0
  4 27  1  0
  4 28  1  0
  5 21  2  0
  5  6  1  0
  6  7  2  0
  6 29  1  0
  7  8  1  0
  8  9  1  0
  8 20  2  0
  9 10  1  0
 10 15  1  0
 10 11  2  0
 11 12  1  0
 11 30  1  0
 12 13  2  0
 12 31  1  0
 13 14  1  0
 13 32  1  0
 14 19  1  0
 14 15  2  0
 15 16  1  0
 16 17  1  0
 16 33  1  0
 16 34  1  0
 17 18  1  0
 17 35  1  0
 17 36  1  0
 18 19  1  0
 18 37  1  0
 18 38  1  0
 19 39  1  0
 19 40  1  0
 20 21  1  0
 21 41  1  0
M  END
>  <i_m_ct_stereo_status>  (14) 
1

>  <s_m_source_file>  (14) 
/var/tmp/pbs.5076255.sched01/tmpvsf1hu0j/0g1dnczxv.sdf

>  <i_m_source_file_index>  (14) 
6

>  <i_lp_mmshare_version>  (14) 
48012

>  <i_f3d_flags>  (14) 
0

>  <s_epik_input>  (14) 
W09IXVtDSDJdW0NIMl1bQ0gyXWMxW2NIXW5jKG5bY0hdMSlPYyhbY0hdW2NIXVtjSF0yKWMoYzIzKVtDSDJdW0NIMl1bQ0gyXVtDSDJdMw==

>  <s_epik_cmdline>  (14) 
J2VwaWtfcHl0aG9uJywgJy1waHQnLCAnMi4wJywgJy1waCcsICc3LjAnLCAnLXRuJywgJzgnLCAnLW1hJywgJzIwMCcsICctaW1hZScsICc8aW5maWxlLm1hZT4nLCAnLW9tYWUnLCAnPG91dGZpbGUubWFlPic=

>  <r_lp_tautomer_probability>  (14) 
1

>  <r_epik_Ionization_Penalty>  (14) 
4.88609e-07

>  <r_epik_Ionization_Penalty_Charging>  (14) 
0

>  <r_epik_Ionization_Penalty_Neutral>  (14) 
4.88609e-07

>  <r_epik_State_Penalty>  (14) 
-0

>  <r_epik_Charging_Adjusted_Penalty>  (14) 
0

>  <i_epik_Tot_Q>  (14) 
0

>  <i_epik_Tot_abs_Q>  (14) 
0

>  <s_lp_Force_Field>  (14) 
OPLS3e

>  <r_lp_Energy>  (14) 
36.2297

>  <b_lp_Chiralities_Consistent>  (14) 
1

>  <s_lp_Variant>  (14) 
4:0-1

>  <s_i_glide_gridfile>  (14) 
pfpi4k_grid

>  <i_i_glide_lignum>  (14) 
6

>  <i_i_glide_rotatable_bonds>  (14) 
6

>  <r_i_docking_score>  (14) 
-3.68291

>  <r_i_glide_ligand_efficiency>  (14) 
-0.175376

>  <r_i_glide_ligand_efficiency_sa>  (14) 
-0.48385

>  <r_i_glide_ligand_efficiency_ln>  (14) 
-0.910591

>  <r_i_glide_gscore>  (14) 
-3.68291

>  <r_i_glide_lipo>  (14) 
-0.452802

>  <r_i_glide_hbond>  (14) 
-0.32

>  <r_i_glide_metal>  (14) 
-0

>  <r_i_glide_rewards>  (14) 
-1.47032

>  <r_i_glide_evdw>  (14) 
-22.7279

>  <r_i_glide_ecoul>  (14) 
-9.25511

>  <r_i_glide_erotb>  (14) 
1.12085

>  <r_i_glide_esite>  (14) 
-0.0359716

>  <r_i_glide_emodel>  (14) 
-39.2021

>  <r_i_glide_energy>  (14) 
-31.983

>  <r_i_glide_einternal>  (14) 
2.3856

>  <r_i_glide_intrahb_reward>  (14) 
-0

>  <i_i_glide_confnum>  (14) 
5

>  <i_i_glide_posenum>  (14) 
14

>  <r_i_glide_eff_state_penalty>  (14) 
0

>  <ligand_id>  (14) 
4

>  <original_smiles>  (14) 
OCCCc1cnc(Oc2cccc3c2CCCC3)nc1

>  <smiles>  (14) 
[H]OC([H])([H])C([H])([H])C([H])([H])c1c([H])nc(Oc2c([H])c([H])c([H])c3c2C([H])([H])C([H])([H])C([H])([H])C3([H])[H])nc1[H]

$$$$
4:0:1
     RDKit          3D

 41 43  0  0  1  0  0  0  0  0999 V2000
    1.0059  -11.8379    3.2853 O   0  0  0  0  0  0  0  0  0  0  0  0
    1.1668  -10.4606    3.5466 C   0  0  0  0  0  0  0  0  0  0  0  0
   -0.1220   -9.7317    3.1458 C   0  0  0  0  0  0  0  0  0  0  0  0
   -0.1423   -8.2511    3.5437 C   0  0  0  0  0  0  0  0  0  0  0  0
    0.7049   -7.3948    2.6198 C   0  0  0  0  0  0  0  0  0  0  0  0
    1.9695   -6.9092    3.0040 C   0  0  0  0  0  0  0  0  0  0  0  0
    2.7086   -6.1477    2.1756 N   0  0  0  0  0  0  0  0  0  0  0  0
    2.2015   -5.8730    0.9679 C   0  0  0  0  0  0  0  0  0  0  0  0
    2.8932   -5.0977    0.0980 O   0  0  0  0  0  0  0  0  0  0  0  0
    4.1701   -4.6835    0.4154 C   0  0  0  0  0  0  0  0  0  0  0  0
    5.2293   -5.6149    0.4885 C   0  0  0  0  0  0  0  0  0  0  0  0
    6.5345   -5.1827    0.7858 C   0  0  0  0  0  0  0  0  0  0  0  0
    6.7948   -3.8146    0.9809 C   0  0  0  0  0  0  0  0  0  0  0  0
    5.7533   -2.8692    0.8907 C   0  0  0  0  0  0  0  0  0  0  0  0
    4.4349   -3.3031    0.5961 C   0  0  0  0  0  0  0  0  0  0  0  0
    3.2857   -2.3065    0.4781 C   0  0  0  0  0  0  0  0  0  0  0  0
    3.7392   -0.8480    0.3413 C   0  0  0  0  0  0  0  0  0  0  0  0
    4.8516   -0.5153    1.3330 C   0  0  0  0  0  0  0  0  0  0  0  0
    6.0835   -1.3948    1.0929 C   0  0  0  0  0  0  0  0  0  0  0  0
    1.0002   -6.2561    0.5193 N   0  0  0  0  0  0  0  0  0  0  0  0
    0.2722   -7.0545    1.3250 C   0  0  0  0  0  0  0  0  0  0  0  0
    1.7708  -12.3126    3.5692 H   0  0  0  0  0  0  0  0  0  0  0  0
    1.3653  -10.3284    4.6111 H   0  0  0  0  0  0  0  0  0  0  0  0
    2.0240  -10.0616    3.0004 H   0  0  0  0  0  0  0  0  0  0  0  0
   -0.3151   -9.8489    2.0795 H   0  0  0  0  0  0  0  0  0  0  0  0
   -0.9559  -10.2180    3.6424 H   0  0  0  0  0  0  0  0  0  0  0  0
   -1.1677   -7.8818    3.5062 H   0  0  0  0  0  0  0  0  0  0  0  0
    0.1787   -8.1334    4.5799 H   0  0  0  0  0  0  0  0  0  0  0  0
    2.3973   -7.1282    3.9724 H   0  0  0  0  0  0  0  0  0  0  0  0
    5.0431   -6.6655    0.3189 H   0  0  0  0  0  0  0  0  0  0  0  0
    7.3396   -5.8976    0.8558 H   0  0  0  0  0  0  0  0  0  0  0  0
    7.7985   -3.4909    1.2113 H   0  0  0  0  0  0  0  0  0  0  0  0
    2.6489   -2.5610   -0.3710 H   0  0  0  0  0  0  0  0  0  0  0  0
    2.6741   -2.4118    1.3746 H   0  0  0  0  0  0  0  0  0  0  0  0
    4.1040   -0.6666   -0.6702 H   0  0  0  0  0  0  0  0  0  0  0  0
    2.8853   -0.1866    0.4827 H   0  0  0  0  0  0  0  0  0  0  0  0
    5.1183    0.5375    1.2582 H   0  0  0  0  0  0  0  0  0  0  0  0
    4.4833   -0.6751    2.3473 H   0  0  0  0  0  0  0  0  0  0  0  0
    6.7735   -1.2823    1.9276 H   0  0  0  0  0  0  0  0  0  0  0  0
    6.6133   -1.0397    0.2094 H   0  0  0  0  0  0  0  0  0  0  0  0
   -0.6968   -7.3657    0.9577 H   0  0  0  0  0  0  0  0  0  0  0  0
  1  2  1  0
  1 22  1  0
  2  3  1  0
  2 23  1  0
  2 24  1  0
  3  4  1  0
  3 25  1  0
  3 26  1  0
  4  5  1  0
  4 27  1  0
  4 28  1  0
  5 21  2  0
  5  6  1  0
  6  7  2  0
  6 29  1  0
  7  8  1  0
  8  9  1  0
  8 20  2  0
  9 10  1  0
 10 15  1  0
 10 11  2  0
 11 12  1  0
 11 30  1  0
 12 13  2  0
 12 31  1  0
 13 14  1  0
 13 32  1  0
 14 19  1  0
 14 15  2  0
 15 16  1  0
 16 17  1  0
 16 33  1  0
 16 34  1  0
 17 18  1  0
 17 35  1  0
 17 36  1  0
 18 19  1  0
 18 37  1  0
 18 38  1  0
 19 39  1  0
 19 40  1  0
 20 21  1  0
 21 41  1  0
M  END
>  <i_m_ct_stereo_status>  (15) 
1

>  <s_m_source_file>  (15) 
/var/tmp/pbs.5076255.sched01/tmpvsf1hu0j/0g1dnczxv.sdf

>  <i_m_source_file_index>  (15) 
6

>  <i_lp_mmshare_version>  (15) 
48012

>  <i_f3d_flags>  (15) 
0

>  <s_epik_input>  (15) 
W09IXVtDSDJdW0NIMl1bQ0gyXWMxW2NIXW5jKG5bY0hdMSlPYyhbY0hdW2NIXVtjSF0yKWMoYzIzKVtDSDJdW0NIMl1bQ0gyXVtDSDJdMw==

>  <s_epik_cmdline>  (15) 
J2VwaWtfcHl0aG9uJywgJy1waHQnLCAnMi4wJywgJy1waCcsICc3LjAnLCAnLXRuJywgJzgnLCAnLW1hJywgJzIwMCcsICctaW1hZScsICc8aW5maWxlLm1hZT4nLCAnLW9tYWUnLCAnPG91dGZpbGUubWFlPic=

>  <r_lp_tautomer_probability>  (15) 
1

>  <r_epik_Ionization_Penalty>  (15) 
4.88609e-07

>  <r_epik_Ionization_Penalty_Charging>  (15) 
0

>  <r_epik_Ionization_Penalty_Neutral>  (15) 
4.88609e-07

>  <r_epik_State_Penalty>  (15) 
-0

>  <r_epik_Charging_Adjusted_Penalty>  (15) 
0

>  <i_epik_Tot_Q>  (15) 
0

>  <i_epik_Tot_abs_Q>  (15) 
0

>  <s_lp_Force_Field>  (15) 
OPLS3e

>  <r_lp_Energy>  (15) 
36.2297

>  <b_lp_Chiralities_Consistent>  (15) 
1

>  <s_lp_Variant>  (15) 
4:0-1

>  <s_i_glide_gridfile>  (15) 
pfpi4k_grid

>  <i_i_glide_lignum>  (15) 
6

>  <i_i_glide_rotatable_bonds>  (15) 
6

>  <r_i_docking_score>  (15) 
-3.41721

>  <r_i_glide_ligand_efficiency>  (15) 
-0.162724

>  <r_i_glide_ligand_efficiency_sa>  (15) 
-0.448943

>  <r_i_glide_ligand_efficiency_ln>  (15) 
-0.844897

>  <r_i_glide_gscore>  (15) 
-3.41721

>  <r_i_glide_lipo>  (15) 
-0.880236

>  <r_i_glide_hbond>  (15) 
-0.223965

>  <r_i_glide_metal>  (15) 
-0

>  <r_i_glide_rewards>  (15) 
-1.47032

>  <r_i_glide_evdw>  (15) 
-24.1438

>  <r_i_glide_ecoul>  (15) 
-4.80027

>  <r_i_glide_erotb>  (15) 
1.12085

>  <r_i_glide_esite>  (15) 
-0.0363066

>  <r_i_glide_emodel>  (15) 
-35.868

>  <r_i_glide_energy>  (15) 
-28.944

>  <r_i_glide_einternal>  (15) 
1.8702

>  <r_i_glide_intrahb_reward>  (15) 
-0

>  <i_i_glide_confnum>  (15) 
5

>  <i_i_glide_posenum>  (15) 
11

>  <r_i_glide_eff_state_penalty>  (15) 
0

>  <ligand_id>  (15) 
4

>  <original_smiles>  (15) 
OCCCc1cnc(Oc2cccc3c2CCCC3)nc1

>  <smiles>  (15) 
[H]OC([H])([H])C([H])([H])C([H])([H])c1c([H])nc(Oc2c([H])c([H])c([H])c3c2C([H])([H])C([H])([H])C([H])([H])C3([H])[H])nc1[H]

$$$$
4:0:2
     RDKit          3D

 41 43  0  0  1  0  0  0  0  0999 V2000
    3.7264   -1.6575   -4.3184 O   0  0  0  0  0  0  0  0  0  0  0  0
    3.9377   -1.1581   -3.0171 C   0  0  0  0  0  0  0  0  0  0  0  0
    3.4921   -2.2109   -1.9934 C   0  0  0  0  0  0  0  0  0  0  0  0
    3.8531   -1.8496   -0.5400 C   0  0  0  0  0  0  0  0  0  0  0  0
    3.4110   -2.9045    0.4630 C   0  0  0  0  0  0  0  0  0  0  0  0
    3.6397   -4.2804    0.2577 C   0  0  0  0  0  0  0  0  0  0  0  0
    3.2190   -5.2071    1.1379 N   0  0  0  0  0  0  0  0  0  0  0  0
    2.6102   -4.7708    2.2464 C   0  0  0  0  0  0  0  0  0  0  0  0
    2.1901   -5.6574    3.1858 O   0  0  0  0  0  0  0  0  0  0  0  0
    2.2488   -7.0137    2.9313 C   0  0  0  0  0  0  0  0  0  0  0  0
    3.4905   -7.6706    2.7764 C   0  0  0  0  0  0  0  0  0  0  0  0
    3.5408   -9.0541    2.5317 C   0  0  0  0  0  0  0  0  0  0  0  0
    2.3526   -9.8013    2.4801 C   0  0  0  0  0  0  0  0  0  0  0  0
    1.1057   -9.1719    2.6697 C   0  0  0  0  0  0  0  0  0  0  0  0
    1.0522   -7.7723    2.9064 C   0  0  0  0  0  0  0  0  0  0  0  0
   -0.2836   -7.0667    3.1204 C   0  0  0  0  0  0  0  0  0  0  0  0
   -1.4569   -8.0133    3.4218 C   0  0  0  0  0  0  0  0  0  0  0  0
   -1.4480   -9.2163    2.4797 C   0  0  0  0  0  0  0  0  0  0  0  0
   -0.1562  -10.0286    2.6367 C   0  0  0  0  0  0  0  0  0  0  0  0
    2.3476   -3.4978    2.5436 N   0  0  0  0  0  0  0  0  0  0  0  0
    2.7391   -2.5608    1.6545 C   0  0  0  0  0  0  0  0  0  0  0  0
    2.7917   -1.7474   -4.4552 H   0  0  0  0  0  0  0  0  0  0  0  0
    4.9987   -0.9391   -2.9034 H   0  0  0  0  0  0  0  0  0  0  0  0
    3.3897   -0.2230   -2.8817 H   0  0  0  0  0  0  0  0  0  0  0  0
    2.4136   -2.3556   -2.0700 H   0  0  0  0  0  0  0  0  0  0  0  0
    3.9556   -3.1593   -2.2634 H   0  0  0  0  0  0  0  0  0  0  0  0
    4.9308   -1.7147   -0.4411 H   0  0  0  0  0  0  0  0  0  0  0  0
    3.3971   -0.8923   -0.2815 H   0  0  0  0  0  0  0  0  0  0  0  0
    4.1595   -4.6559   -0.6107 H   0  0  0  0  0  0  0  0  0  0  0  0
    4.4116   -7.1073    2.8226 H   0  0  0  0  0  0  0  0  0  0  0  0
    4.4909   -9.5473    2.3825 H   0  0  0  0  0  0  0  0  0  0  0  0
    2.4074  -10.8633    2.2988 H   0  0  0  0  0  0  0  0  0  0  0  0
   -0.1933   -6.3365    3.9267 H   0  0  0  0  0  0  0  0  0  0  0  0
   -0.4921   -6.5176    2.2029 H   0  0  0  0  0  0  0  0  0  0  0  0
   -1.3830   -8.3759    4.4479 H   0  0  0  0  0  0  0  0  0  0  0  0
   -2.4028   -7.4766    3.3524 H   0  0  0  0  0  0  0  0  0  0  0  0
   -2.3126   -9.8513    2.6609 H   0  0  0  0  0  0  0  0  0  0  0  0
   -1.5298   -8.8642    1.4510 H   0  0  0  0  0  0  0  0  0  0  0  0
   -0.0831  -10.7575    1.8302 H   0  0  0  0  0  0  0  0  0  0  0  0
   -0.1914  -10.6043    3.5621 H   0  0  0  0  0  0  0  0  0  0  0  0
    2.5127   -1.5348    1.9038 H   0  0  0  0  0  0  0  0  0  0  0  0
  1  2  1  0
  1 22  1  0
  2  3  1  0
  2 23  1  0
  2 24  1  0
  3  4  1  0
  3 25  1  0
  3 26  1  0
  4  5  1  0
  4 27  1  0
  4 28  1  0
  5 21  2  0
  5  6  1  0
  6  7  2  0
  6 29  1  0
  7  8  1  0
  8  9  1  0
  8 20  2  0
  9 10  1  0
 10 15  1  0
 10 11  2  0
 11 12  1  0
 11 30  1  0
 12 13  2  0
 12 31  1  0
 13 14  1  0
 13 32  1  0
 14 19  1  0
 14 15  2  0
 15 16  1  0
 16 17  1  0
 16 33  1  0
 16 34  1  0
 17 18  1  0
 17 35  1  0
 17 36  1  0
 18 19  1  0
 18 37  1  0
 18 38  1  0
 19 39  1  0
 19 40  1  0
 20 21  1  0
 21 41  1  0
M  END
>  <i_m_ct_stereo_status>  (16) 
1

>  <s_m_source_file>  (16) 
/var/tmp/pbs.5076255.sched01/tmpvsf1hu0j/0g1dnczxv.sdf

>  <i_m_source_file_index>  (16) 
6

>  <i_lp_mmshare_version>  (16) 
48012

>  <i_f3d_flags>  (16) 
0

>  <s_epik_input>  (16) 
W09IXVtDSDJdW0NIMl1bQ0gyXWMxW2NIXW5jKG5bY0hdMSlPYyhbY0hdW2NIXVtjSF0yKWMoYzIzKVtDSDJdW0NIMl1bQ0gyXVtDSDJdMw==

>  <s_epik_cmdline>  (16) 
J2VwaWtfcHl0aG9uJywgJy1waHQnLCAnMi4wJywgJy1waCcsICc3LjAnLCAnLXRuJywgJzgnLCAnLW1hJywgJzIwMCcsICctaW1hZScsICc8aW5maWxlLm1hZT4nLCAnLW9tYWUnLCAnPG91dGZpbGUubWFlPic=

>  <r_lp_tautomer_probability>  (16) 
1

>  <r_epik_Ionization_Penalty>  (16) 
4.88609e-07

>  <r_epik_Ionization_Penalty_Charging>  (16) 
0

>  <r_epik_Ionization_Penalty_Neutral>  (16) 
4.88609e-07

>  <r_epik_State_Penalty>  (16) 
-0

>  <r_epik_Charging_Adjusted_Penalty>  (16) 
0

>  <i_epik_Tot_Q>  (16) 
0

>  <i_epik_Tot_abs_Q>  (16) 
0

>  <s_lp_Force_Field>  (16) 
OPLS3e

>  <r_lp_Energy>  (16) 
36.2297

>  <b_lp_Chiralities_Consistent>  (16) 
1

>  <s_lp_Variant>  (16) 
4:0-1

>  <s_i_glide_gridfile>  (16) 
pfpi4k_grid

>  <i_i_glide_lignum>  (16) 
6

>  <i_i_glide_rotatable_bonds>  (16) 
6

>  <r_i_docking_score>  (16) 
-2.89445

>  <r_i_glide_ligand_efficiency>  (16) 
-0.137831

>  <r_i_glide_ligand_efficiency_sa>  (16) 
-0.380265

>  <r_i_glide_ligand_efficiency_ln>  (16) 
-0.715647

>  <r_i_glide_gscore>  (16) 
-2.89445

>  <r_i_glide_lipo>  (16) 
-0.355884

>  <r_i_glide_hbond>  (16) 
-0.322624

>  <r_i_glide_metal>  (16) 
-0

>  <r_i_glide_rewards>  (16) 
-1.47032

>  <r_i_glide_evdw>  (16) 
-26.1967

>  <r_i_glide_ecoul>  (16) 
-3.65512

>  <r_i_glide_erotb>  (16) 
1.12085

>  <r_i_glide_esite>  (16) 
-0.008367

>  <r_i_glide_emodel>  (16) 
-35.8675

>  <r_i_glide_energy>  (16) 
-29.8519

>  <r_i_glide_einternal>  (16) 
1.14697

>  <r_i_glide_intrahb_reward>  (16) 
-0

>  <i_i_glide_confnum>  (16) 
6

>  <i_i_glide_posenum>  (16) 
2

>  <r_i_glide_eff_state_penalty>  (16) 
0

>  <ligand_id>  (16) 
4

>  <original_smiles>  (16) 
OCCCc1cnc(Oc2cccc3c2CCCC3)nc1

>  <smiles>  (16) 
[H]OC([H])([H])C([H])([H])C([H])([H])c1c([H])nc(Oc2c([H])c([H])c([H])c3c2C([H])([H])C([H])([H])C([H])([H])C3([H])[H])nc1[H]

$$$$
5:0:0
     RDKit          3D

 45 49  0  0  1  0  0  0  0  0999 V2000
   -1.0482    1.6941    8.9238 C   0  0  0  0  0  0  0  0  0  0  0  0
    0.2566    1.4636    8.1399 C   0  0  0  0  0  0  0  0  0  0  0  0
    1.3828    2.2588    8.8068 C   0  0  0  0  0  0  0  0  0  0  0  0
    0.6348   -0.0342    8.0057 C   0  0  0  0  0  0  0  0  0  0  0  0
    0.7162   -0.9668    8.8048 O   0  0  0  0  0  0  0  0  0  0  0  0
    0.7802    0.0632    6.4535 C   0  0  1  0  0  0  0  0  0  0  0  0
    2.3144   -0.0045    6.0601 C   0  0  0  0  0  0  0  0  0  0  0  0
    2.7000   -0.3534    4.6634 N   0  0  0  0  0  0  0  0  0  0  0  0
    1.8893    0.2729    3.5905 C   0  0  0  0  0  0  0  0  0  0  0  0
    0.4391   -0.1921    3.6687 C   0  0  0  0  0  0  0  0  0  0  0  0
    0.2056   -1.3166    4.3631 C   0  0  0  0  0  0  0  0  0  0  0  0
    1.2594   -2.4084    4.2840 C   0  0  0  0  0  0  0  0  0  0  0  0
    2.6899   -1.8176    4.4476 C   0  0  0  0  0  0  0  0  0  0  0  0
   -0.1055   -1.0440    5.7809 C   0  0  0  0  0  0  0  0  0  0  0  0
   -0.9708   -1.7334    6.3278 O   0  0  0  0  0  0  0  0  0  0  0  0
    0.1472    1.4899    6.5859 C   0  0  0  0  0  0  0  0  0  0  0  0
   -1.2804    1.6236    6.0503 C   0  0  0  0  0  0  0  0  0  0  0  0
   -2.2287    0.9319    6.3975 O   0  0  0  0  0  0  0  0  0  0  0  0
   -1.3296    2.6987    5.0695 C   0  0  0  0  0  0  0  0  0  0  0  0
   -2.4144    3.1012    4.3084 C   0  0  0  0  0  0  0  0  0  0  0  0
   -2.1957    4.1532    3.4001 C   0  0  0  0  0  0  0  0  0  0  0  0
   -0.9466    4.7877    3.2805 C   0  0  0  0  0  0  0  0  0  0  0  0
    0.1436    4.3671    4.0605 C   0  0  0  0  0  0  0  0  0  0  0  0
   -0.0660    3.2956    4.9660 C   0  0  0  0  0  0  0  0  0  0  0  0
    0.9067    2.6254    5.8901 C   0  0  0  0  0  0  0  0  0  0  0  0
    2.0961    2.9228    6.1219 O   0  0  0  0  0  0  0  0  0  0  0  0
   -1.4908    2.6512    8.6329 H   0  0  0  0  0  0  0  0  0  0  0  0
   -0.9178    1.7342    9.9999 H   0  0  0  0  0  0  0  0  0  0  0  0
   -1.7914    0.9440    8.6987 H   0  0  0  0  0  0  0  0  0  0  0  0
    1.2208    3.3315    8.6740 H   0  0  0  0  0  0  0  0  0  0  0  0
    2.3644    2.0494    8.3642 H   0  0  0  0  0  0  0  0  0  0  0  0
    1.4350    2.1008    9.8745 H   0  0  0  0  0  0  0  0  0  0  0  0
    2.7511    0.9517    6.2413 H   0  0  0  0  0  0  0  0  0  0  0  0
    2.8193   -0.7222    6.7121 H   0  0  0  0  0  0  0  0  0  0  0  0
    1.9234    1.3602    3.6797 H   0  0  0  0  0  0  0  0  0  0  0  0
    2.2773    0.0476    2.5953 H   0  0  0  0  0  0  0  0  0  0  0  0
   -0.2414    0.6413    3.7698 H   0  0  0  0  0  0  0  0  0  0  0  0
    1.0730   -3.2038    5.0159 H   0  0  0  0  0  0  0  0  0  0  0  0
    1.1797   -2.8765    3.2948 H   0  0  0  0  0  0  0  0  0  0  0  0
    3.2807   -2.0481    3.5525 H   0  0  0  0  0  0  0  0  0  0  0  0
    3.1940   -2.2996    5.2871 H   0  0  0  0  0  0  0  0  0  0  0  0
   -3.3391    2.6006    4.4240 H   0  0  0  0  0  0  0  0  0  0  0  0
   -3.0178    4.4590    2.8063 H   0  0  0  0  0  0  0  0  0  0  0  0
   -0.8043    5.5703    2.5747 H   0  0  0  0  0  0  0  0  0  0  0  0
    1.1283    4.8126    3.9620 H   0  0  0  0  0  0  0  0  0  0  0  0
  1  2  1  0
  1 27  1  0
  1 28  1  0
  1 29  1  0
  2 16  1  0
  2  3  1  0
  2  4  1  0
  3 30  1  0
  3 31  1  0
  3 32  1  0
  4  5  2  0
  4  6  1  0
  6 14  1  0
  6  7  1  0
  6 16  1  6
  7  8  1  0
  7 33  1  0
  7 34  1  0
  8 13  1  0
  8  9  1  0
  9 10  1  0
  9 35  1  0
  9 36  1  0
 10 11  2  0
 10 37  1  0
 11 12  1  0
 11 14  1  0
 12 13  1  0
 12 38  1  0
 12 39  1  0
 13 40  1  0
 13 41  1  0
 14 15  2  0
 16 25  1  0
 16 17  1  0
 17 18  2  0
 17 19  1  0
 19 24  2  0
 19 20  1  0
 20 21  2  0
 20 42  1  0
 21 22  1  0
 21 43  1  0
 22 23  2  0
 22 44  1  0
 23 24  1  0
 23 45  1  0
 24 25  1  0
 25 26  2  0
M  END
>  <i_m_ct_stereo_status>  (17) 
1

>  <s_m_source_file>  (17) 
/var/tmp/pbs.5076255.sched01/tmpvsf1hu0j/0g1dnczxv.sdf

>  <i_m_source_file_index>  (17) 
7

>  <i_lp_mmshare_version>  (17) 
48012

>  <i_f3d_flags>  (17) 
0

>  <s_epik_input>  (17) 
W2NIXTFbY0hdW2NIXVtjSF1jKEMyPU8pYzFDKD1PKUMyKEMoW0NIM10pKFtDSDNdKUMzPU8pW0NAQF0zNFtDSDJdTjVbQ0gyXVtDSF09QyhDND1PKVtDSDJdW0NIMl01

>  <s_epik_cmdline>  (17) 
J2VwaWtfcHl0aG9uJywgJy1waHQnLCAnMi4wJywgJy1waCcsICc3LjAnLCAnLXRuJywgJzgnLCAnLW1hJywgJzIwMCcsICctaW1hZScsICc8aW5maWxlLm1hZT4nLCAnLW9tYWUnLCAnPG91dGZpbGUubWFlPic=

>  <r_lp_tautomer_probability>  (17) 
1

>  <r_epik_Ionization_Penalty>  (17) 
5.00667e-05

>  <r_epik_Ionization_Penalty_Charging>  (17) 
0

>  <r_epik_Ionization_Penalty_Neutral>  (17) 
5.00667e-05

>  <r_epik_State_Penalty>  (17) 
-0

>  <r_epik_Charging_Adjusted_Penalty>  (17) 
0

>  <i_epik_Tot_Q>  (17) 
0

>  <i_epik_Tot_abs_Q>  (17) 
0

>  <s_lp_Force_Field>  (17) 
OPLS3e

>  <r_lp_Energy>  (17) 
75.3395

>  <b_lp_Chiralities_Consistent>  (17) 
1

>  <s_lp_Variant>  (17) 
5:0-1

>  <s_i_glide_gridfile>  (17) 
pfpi4k_grid

>  <i_i_glide_lignum>  (17) 
7

>  <i_i_glide_rotatable_bonds>  (17) 
0

>  <r_i_docking_score>  (17) 
-2.77955

>  <r_i_glide_ligand_efficiency>  (17) 
-0.106906

>  <r_i_glide_ligand_efficiency_sa>  (17) 
-0.316708

>  <r_i_glide_ligand_efficiency_ln>  (17) 
-0.652767

>  <r_i_glide_gscore>  (17) 
-2.77955

>  <r_i_glide_lipo>  (17) 
-0.00705633

>  <r_i_glide_hbond>  (17) 
-0.120884

>  <r_i_glide_metal>  (17) 
-0

>  <r_i_glide_rewards>  (17) 
-1.02696

>  <r_i_glide_evdw>  (17) 
-16.4575

>  <r_i_glide_ecoul>  (17) 
-4.9125

>  <r_i_glide_erotb>  (17) 
0

>  <r_i_glide_esite>  (17) 
-0.0649022

>  <r_i_glide_emodel>  (17) 
-24.5897

>  <r_i_glide_energy>  (17) 
-21.37

>  <r_i_glide_einternal>  (17) 
0

>  <r_i_glide_intrahb_reward>  (17) 
-0

>  <i_i_glide_confnum>  (17) 
1

>  <i_i_glide_posenum>  (17) 
10

>  <r_i_glide_eff_state_penalty>  (17) 
0

>  <ligand_id>  (17) 
5

>  <original_smiles>  (17) 
CC1(C)C(=O)C2(CN3CC=C(CC3)C2=O)C12C(=O)c1ccccc1C2=O

>  <smiles>  (17) 
[H]C1=C2C(=O)C3(C(=O)C(C([H])([H])[H])(C([H])([H])[H])C34C(=O)c3c([H])c([H])c([H])c([H])c3C4=O)C([H])([H])N(C1([H])[H])C([H])([H])C2([H])[H]

$$$$
5:0:1
     RDKit          3D

 45 49  0  0  1  0  0  0  0  0999 V2000
    3.5938    4.0589    6.1700 C   0  0  0  0  0  0  0  0  0  0  0  0
    2.5732    3.1122    6.8156 C   0  0  0  0  0  0  0  0  0  0  0  0
    3.2468    2.3311    7.9496 C   0  0  0  0  0  0  0  0  0  0  0  0
    1.2912    3.8361    7.3239 C   0  0  0  0  0  0  0  0  0  0  0  0
    1.0969    4.8169    8.0436 O   0  0  0  0  0  0  0  0  0  0  0  0
    0.3433    2.8797    6.5238 C   0  0  1  0  0  0  0  0  0  0  0  0
   -0.4094    1.9294    7.5282 C   0  0  0  0  0  0  0  0  0  0  0  0
   -1.6330    1.1963    7.1251 N   0  0  0  0  0  0  0  0  0  0  0  0
   -1.6243    0.6444    5.7507 C   0  0  0  0  0  0  0  0  0  0  0  0
   -1.4987    1.7583    4.7230 C   0  0  0  0  0  0  0  0  0  0  0  0
   -1.8030    2.9956    5.1385 C   0  0  0  0  0  0  0  0  0  0  0  0
   -2.9373    3.1306    6.1432 C   0  0  0  0  0  0  0  0  0  0  0  0
   -2.8092    2.0703    7.2731 C   0  0  0  0  0  0  0  0  0  0  0  0
   -0.6361    3.7300    5.6499 C   0  0  0  0  0  0  0  0  0  0  0  0
   -0.5584    4.9357    5.4125 O   0  0  0  0  0  0  0  0  0  0  0  0
    1.6410    2.3255    5.8364 C   0  0  0  0  0  0  0  0  0  0  0  0
    1.8036    2.7240    4.3598 C   0  0  0  0  0  0  0  0  0  0  0  0
    1.7866    3.8602    3.8955 O   0  0  0  0  0  0  0  0  0  0  0  0
    1.9634    1.4994    3.5856 C   0  0  0  0  0  0  0  0  0  0  0  0
    2.0863    1.4122    2.2045 C   0  0  0  0  0  0  0  0  0  0  0  0
    2.2194    0.1214    1.6515 C   0  0  0  0  0  0  0  0  0  0  0  0
    2.2255   -1.0282    2.4753 C   0  0  0  0  0  0  0  0  0  0  0  0
    2.1043   -0.9073    3.8643 C   0  0  0  0  0  0  0  0  0  0  0  0
    1.9634    0.3814    4.4357 C   0  0  0  0  0  0  0  0  0  0  0  0
    1.8151    0.8018    5.8482 C   0  0  0  0  0  0  0  0  0  0  0  0
    1.8616    0.0657    6.8687 O   0  0  0  0  0  0  0  0  0  0  0  0
    4.2228    3.5006    5.4758 H   0  0  0  0  0  0  0  0  0  0  0  0
    4.2608    4.5240    6.8826 H   0  0  0  0  0  0  0  0  0  0  0  0
    3.1180    4.8539    5.5917 H   0  0  0  0  0  0  0  0  0  0  0  0
    3.9779    1.6333    7.5459 H   0  0  0  0  0  0  0  0  0  0  0  0
    2.5440    1.7389    8.5389 H   0  0  0  0  0  0  0  0  0  0  0  0
    3.7864    2.9710    8.6322 H   0  0  0  0  0  0  0  0  0  0  0  0
    0.2557    1.1436    7.8580 H   0  0  0  0  0  0  0  0  0  0  0  0
   -0.6354    2.4527    8.4481 H   0  0  0  0  0  0  0  0  0  0  0  0
   -0.7945   -0.0470    5.6286 H   0  0  0  0  0  0  0  0  0  0  0  0
   -2.5237    0.0672    5.5339 H   0  0  0  0  0  0  0  0  0  0  0  0
   -0.6427    1.6250    4.0772 H   0  0  0  0  0  0  0  0  0  0  0  0
   -2.9846    4.1420    6.5645 H   0  0  0  0  0  0  0  0  0  0  0  0
   -3.8807    2.9728    5.6067 H   0  0  0  0  0  0  0  0  0  0  0  0
   -3.7106    1.4540    7.2795 H   0  0  0  0  0  0  0  0  0  0  0  0
   -2.7778    2.5670    8.2459 H   0  0  0  0  0  0  0  0  0  0  0  0
    2.0628    2.3096    1.6086 H   0  0  0  0  0  0  0  0  0  0  0  0
    2.3067    0.0368    0.5962 H   0  0  0  0  0  0  0  0  0  0  0  0
    2.3266   -2.0061    2.0174 H   0  0  0  0  0  0  0  0  0  0  0  0
    2.1018   -1.7781    4.5106 H   0  0  0  0  0  0  0  0  0  0  0  0
  1  2  1  0
  1 27  1  0
  1 28  1  0
  1 29  1  0
  2 16  1  0
  2  3  1  0
  2  4  1  0
  3 30  1  0
  3 31  1  0
  3 32  1  0
  4  5  2  0
  4  6  1  0
  6 14  1  0
  6  7  1  0
  6 16  1  6
  7  8  1  0
  7 33  1  0
  7 34  1  0
  8 13  1  0
  8  9  1  0
  9 10  1  0
  9 35  1  0
  9 36  1  0
 10 11  2  0
 10 37  1  0
 11 12  1  0
 11 14  1  0
 12 13  1  0
 12 38  1  0
 12 39  1  0
 13 40  1  0
 13 41  1  0
 14 15  2  0
 16 25  1  0
 16 17  1  0
 17 18  2  0
 17 19  1  0
 19 24  2  0
 19 20  1  0
 20 21  2  0
 20 42  1  0
 21 22  1  0
 21 43  1  0
 22 23  2  0
 22 44  1  0
 23 24  1  0
 23 45  1  0
 24 25  1  0
 25 26  2  0
M  END
>  <i_m_ct_stereo_status>  (18) 
1

>  <s_m_source_file>  (18) 
/var/tmp/pbs.5076255.sched01/tmpvsf1hu0j/0g1dnczxv.sdf

>  <i_m_source_file_index>  (18) 
7

>  <i_lp_mmshare_version>  (18) 
48012

>  <i_f3d_flags>  (18) 
0

>  <s_epik_input>  (18) 
W2NIXTFbY0hdW2NIXVtjSF1jKEMyPU8pYzFDKD1PKUMyKEMoW0NIM10pKFtDSDNdKUMzPU8pW0NAQF0zNFtDSDJdTjVbQ0gyXVtDSF09QyhDND1PKVtDSDJdW0NIMl01

>  <s_epik_cmdline>  (18) 
J2VwaWtfcHl0aG9uJywgJy1waHQnLCAnMi4wJywgJy1waCcsICc3LjAnLCAnLXRuJywgJzgnLCAnLW1hJywgJzIwMCcsICctaW1hZScsICc8aW5maWxlLm1hZT4nLCAnLW9tYWUnLCAnPG91dGZpbGUubWFlPic=

>  <r_lp_tautomer_probability>  (18) 
1

>  <r_epik_Ionization_Penalty>  (18) 
5.00667e-05

>  <r_epik_Ionization_Penalty_Charging>  (18) 
0

>  <r_epik_Ionization_Penalty_Neutral>  (18) 
5.00667e-05

>  <r_epik_State_Penalty>  (18) 
-0

>  <r_epik_Charging_Adjusted_Penalty>  (18) 
0

>  <i_epik_Tot_Q>  (18) 
0

>  <i_epik_Tot_abs_Q>  (18) 
0

>  <s_lp_Force_Field>  (18) 
OPLS3e

>  <r_lp_Energy>  (18) 
75.3395

>  <b_lp_Chiralities_Consistent>  (18) 
1

>  <s_lp_Variant>  (18) 
5:0-1

>  <s_i_glide_gridfile>  (18) 
pfpi4k_grid

>  <i_i_glide_lignum>  (18) 
7

>  <i_i_glide_rotatable_bonds>  (18) 
0

>  <r_i_docking_score>  (18) 
-2.63706

>  <r_i_glide_ligand_efficiency>  (18) 
-0.101426

>  <r_i_glide_ligand_efficiency_sa>  (18) 
-0.300473

>  <r_i_glide_ligand_efficiency_ln>  (18) 
-0.619306

>  <r_i_glide_gscore>  (18) 
-2.63706

>  <r_i_glide_lipo>  (18) 
-0.143117

>  <r_i_glide_hbond>  (18) 
-0.10928

>  <r_i_glide_metal>  (18) 
-0

>  <r_i_glide_rewards>  (18) 
-1.02696

>  <r_i_glide_evdw>  (18) 
-18.2304

>  <r_i_glide_ecoul>  (18) 
-2.83949

>  <r_i_glide_erotb>  (18) 
0

>  <r_i_glide_esite>  (18) 
-0.020268

>  <r_i_glide_emodel>  (18) 
-23.776

>  <r_i_glide_energy>  (18) 
-21.0699

>  <r_i_glide_einternal>  (18) 
0

>  <r_i_glide_intrahb_reward>  (18) 
-0

>  <i_i_glide_confnum>  (18) 
1

>  <i_i_glide_posenum>  (18) 
2

>  <r_i_glide_eff_state_penalty>  (18) 
0

>  <ligand_id>  (18) 
5

>  <original_smiles>  (18) 
CC1(C)C(=O)C2(CN3CC=C(CC3)C2=O)C12C(=O)c1ccccc1C2=O

>  <smiles>  (18) 
[H]C1=C2C(=O)C3(C(=O)C(C([H])([H])[H])(C([H])([H])[H])C34C(=O)c3c([H])c([H])c([H])c([H])c3C4=O)C([H])([H])N(C1([H])[H])C([H])([H])C2([H])[H]

$$$$
5:0:2
     RDKit          3D

 45 49  0  0  1  0  0  0  0  0999 V2000
    1.9277   -1.1910    7.6295 C   0  0  0  0  0  0  0  0  0  0  0  0
    0.9346   -1.1225    6.4563 C   0  0  0  0  0  0  0  0  0  0  0  0
    0.1686   -2.4473    6.3631 C   0  0  0  0  0  0  0  0  0  0  0  0
   -0.0479    0.0816    6.5455 C   0  0  0  0  0  0  0  0  0  0  0  0
   -0.8120    0.5012    7.4206 O   0  0  0  0  0  0  0  0  0  0  0  0
    0.3163    0.5790    5.1065 C   0  0  1  0  0  0  0  0  0  0  0  0
   -0.9009    0.3051    4.1440 C   0  0  0  0  0  0  0  0  0  0  0  0
   -1.0031    1.0086    2.8486 N   0  0  0  0  0  0  0  0  0  0  0  0
    0.2536    1.1820    2.0908 C   0  0  0  0  0  0  0  0  0  0  0  0
    1.2370    2.0286    2.8832 C   0  0  0  0  0  0  0  0  0  0  0  0
    0.7241    2.7828    3.8689 C   0  0  0  0  0  0  0  0  0  0  0  0
   -0.6483    3.3896    3.6350 C   0  0  0  0  0  0  0  0  0  0  0  0
   -1.6193    2.3343    3.0416 C   0  0  0  0  0  0  0  0  0  0  0  0
    0.7182    2.0843    5.1688 C   0  0  0  0  0  0  0  0  0  0  0  0
    0.9685    2.7376    6.1821 O   0  0  0  0  0  0  0  0  0  0  0  0
    1.4682   -0.4834    5.1381 C   0  0  0  0  0  0  0  0  0  0  0  0
    2.8877    0.1075    5.2444 C   0  0  0  0  0  0  0  0  0  0  0  0
    3.3022    0.8793    6.1036 O   0  0  0  0  0  0  0  0  0  0  0  0
    3.6691   -0.4024    4.1248 C   0  0  0  0  0  0  0  0  0  0  0  0
    4.9941   -0.0744    3.8263 C   0  0  0  0  0  0  0  0  0  0  0  0
    5.5534   -0.6752    2.6821 C   0  0  0  0  0  0  0  0  0  0  0  0
    4.8143   -1.5726    1.8754 C   0  0  0  0  0  0  0  0  0  0  0  0
    3.4774   -1.8869    2.2145 C   0  0  0  0  0  0  0  0  0  0  0  0
    2.9013   -1.2842    3.3546 C   0  0  0  0  0  0  0  0  0  0  0  0
    1.5321   -1.4442    3.9227 C   0  0  0  0  0  0  0  0  0  0  0  0
    0.6364   -2.2109    3.5511 O   0  0  0  0  0  0  0  0  0  0  0  0
    2.8183   -1.7404    7.3185 H   0  0  0  0  0  0  0  0  0  0  0  0
    1.5386   -1.7066    8.4945 H   0  0  0  0  0  0  0  0  0  0  0  0
    2.2656   -0.2009    7.9434 H   0  0  0  0  0  0  0  0  0  0  0  0
    0.8369   -3.2479    6.0456 H   0  0  0  0  0  0  0  0  0  0  0  0
   -0.6430   -2.4206    5.6289 H   0  0  0  0  0  0  0  0  0  0  0  0
   -0.2408   -2.7632    7.3079 H   0  0  0  0  0  0  0  0  0  0  0  0
   -0.9091   -0.7432    3.8722 H   0  0  0  0  0  0  0  0  0  0  0  0
   -1.8374    0.4536    4.6668 H   0  0  0  0  0  0  0  0  0  0  0  0
    0.6982    0.2121    1.8816 H   0  0  0  0  0  0  0  0  0  0  0  0
    0.0873    1.6460    1.1199 H   0  0  0  0  0  0  0  0  0  0  0  0
    2.1690    1.5134    3.0536 H   0  0  0  0  0  0  0  0  0  0  0  0
   -1.0626    3.8363    4.5477 H   0  0  0  0  0  0  0  0  0  0  0  0
   -0.5325    4.2171    2.9203 H   0  0  0  0  0  0  0  0  0  0  0  0
   -1.9883    2.7064    2.0854 H   0  0  0  0  0  0  0  0  0  0  0  0
   -2.5086    2.2436    3.6634 H   0  0  0  0  0  0  0  0  0  0  0  0
    5.5209    0.6142    4.4530 H   0  0  0  0  0  0  0  0  0  0  0  0
    6.5629   -0.4354    2.4422 H   0  0  0  0  0  0  0  0  0  0  0  0
    5.2674   -2.0159    1.0133 H   0  0  0  0  0  0  0  0  0  0  0  0
    2.8957   -2.5667    1.6079 H   0  0  0  0  0  0  0  0  0  0  0  0
  1  2  1  0
  1 27  1  0
  1 28  1  0
  1 29  1  0
  2 16  1  0
  2  3  1  0
  2  4  1  0
  3 30  1  0
  3 31  1  0
  3 32  1  0
  4  5  2  0
  4  6  1  0
  6 14  1  0
  6  7  1  0
  6 16  1  6
  7  8  1  0
  7 33  1  0
  7 34  1  0
  8 13  1  0
  8  9  1  0
  9 10  1  0
  9 35  1  0
  9 36  1  0
 10 11  2  0
 10 37  1  0
 11 12  1  0
 11 14  1  0
 12 13  1  0
 12 38  1  0
 12 39  1  0
 13 40  1  0
 13 41  1  0
 14 15  2  0
 16 25  1  0
 16 17  1  0
 17 18  2  0
 17 19  1  0
 19 24  2  0
 19 20  1  0
 20 21  2  0
 20 42  1  0
 21 22  1  0
 21 43  1  0
 22 23  2  0
 22 44  1  0
 23 24  1  0
 23 45  1  0
 24 25  1  0
 25 26  2  0
M  END
>  <i_m_ct_stereo_status>  (19) 
1

>  <s_m_source_file>  (19) 
/var/tmp/pbs.5076255.sched01/tmpvsf1hu0j/0g1dnczxv.sdf

>  <i_m_source_file_index>  (19) 
7

>  <i_lp_mmshare_version>  (19) 
48012

>  <i_f3d_flags>  (19) 
0

>  <s_epik_input>  (19) 
W2NIXTFbY0hdW2NIXVtjSF1jKEMyPU8pYzFDKD1PKUMyKEMoW0NIM10pKFtDSDNdKUMzPU8pW0NAQF0zNFtDSDJdTjVbQ0gyXVtDSF09QyhDND1PKVtDSDJdW0NIMl01

>  <s_epik_cmdline>  (19) 
J2VwaWtfcHl0aG9uJywgJy1waHQnLCAnMi4wJywgJy1waCcsICc3LjAnLCAnLXRuJywgJzgnLCAnLW1hJywgJzIwMCcsICctaW1hZScsICc8aW5maWxlLm1hZT4nLCAnLW9tYWUnLCAnPG91dGZpbGUubWFlPic=

>  <r_lp_tautomer_probability>  (19) 
1

>  <r_epik_Ionization_Penalty>  (19) 
5.00667e-05

>  <r_epik_Ionization_Penalty_Charging>  (19) 
0

>  <r_epik_Ionization_Penalty_Neutral>  (19) 
5.00667e-05

>  <r_epik_State_Penalty>  (19) 
-0

>  <r_epik_Charging_Adjusted_Penalty>  (19) 
0

>  <i_epik_Tot_Q>  (19) 
0

>  <i_epik_Tot_abs_Q>  (19) 
0

>  <s_lp_Force_Field>  (19) 
OPLS3e

>  <r_lp_Energy>  (19) 
75.3395

>  <b_lp_Chiralities_Consistent>  (19) 
1

>  <s_lp_Variant>  (19) 
5:0-1

>  <s_i_glide_gridfile>  (19) 
pfpi4k_grid

>  <i_i_glide_lignum>  (19) 
7

>  <i_i_glide_rotatable_bonds>  (19) 
0

>  <r_i_docking_score>  (19) 
-2.46874

>  <r_i_glide_ligand_efficiency>  (19) 
-0.0949517

>  <r_i_glide_ligand_efficiency_sa>  (19) 
-0.281294

>  <r_i_glide_ligand_efficiency_ln>  (19) 
-0.579776

>  <r_i_glide_gscore>  (19) 
-2.46874

>  <r_i_glide_lipo>  (19) 
-0.247342

>  <r_i_glide_hbond>  (19) 
-0.080866

>  <r_i_glide_metal>  (19) 
-0

>  <r_i_glide_rewards>  (19) 
-1.02696

>  <r_i_glide_evdw>  (19) 
-20.1167

>  <r_i_glide_ecoul>  (19) 
-0.497357

>  <r_i_glide_erotb>  (19) 
0

>  <r_i_glide_esite>  (19) 
-0.0331408

>  <r_i_glide_emodel>  (19) 
-23.2419

>  <r_i_glide_energy>  (19) 
-20.6141

>  <r_i_glide_einternal>  (19) 
0

>  <r_i_glide_intrahb_reward>  (19) 
-0

>  <i_i_glide_confnum>  (19) 
1

>  <i_i_glide_posenum>  (19) 
5

>  <r_i_glide_eff_state_penalty>  (19) 
0

>  <ligand_id>  (19) 
5

>  <original_smiles>  (19) 
CC1(C)C(=O)C2(CN3CC=C(CC3)C2=O)C12C(=O)c1ccccc1C2=O

>  <smiles>  (19) 
[H]C1=C2C(=O)C3(C(=O)C(C([H])([H])[H])(C([H])([H])[H])C34C(=O)c3c([H])c([H])c([H])c([H])c3C4=O)C([H])([H])N(C1([H])[H])C([H])([H])C2([H])[H]

$$$$
6:0:0
     RDKit          3D

 45 48  0  0  1  0  0  0  0  0999 V2000
    7.9146   -3.9903    0.6221 C   0  0  0  0  0  0  0  0  0  0  0  0
    6.8346   -2.9649    0.2418 C   0  0  2  0  0  0  0  0  0  0  0  0
    7.2615   -1.5342    0.5885 C   0  0  0  0  0  0  0  0  0  0  0  0
    6.2289   -0.5413    0.0626 C   0  0  0  0  0  0  0  0  0  0  0  0
    4.8604   -0.7625    0.6967 C   0  0  2  0  0  0  0  0  0  0  0  0
    5.0910   -0.5707    2.0762 O   0  0  0  0  0  0  0  0  0  0  0  0
    3.7919   -0.7069    2.7890 O   0  0  0  0  0  0  0  0  0  0  0  0
    3.6389   -2.0769    3.1460 C   0  0  2  0  0  0  0  0  0  0  0  0
    2.8244   -2.1214    4.4475 C   0  0  0  0  0  0  0  0  0  0  0  0
    4.9641   -2.8755    3.3143 C   0  0  0  0  0  0  0  0  0  0  0  0
    5.2764   -3.8499    2.1680 C   0  0  0  0  0  0  0  0  0  0  0  0
    5.3883   -3.2967    0.7233 C   0  0  1  0  0  0  0  0  0  0  0  0
    4.3394   -2.1902    0.3196 C   0  0  1  0  0  0  0  0  0  0  0  0
    2.9220   -2.4820    0.8859 C   0  0  1  0  0  0  0  0  0  0  0  0
    2.4868   -3.5584    0.1494 O   0  0  0  0  0  0  0  0  0  0  0  0
    2.8576   -3.3832   -1.1699 C   0  0  1  0  0  0  0  0  0  0  0  0
    1.7548   -3.0606   -1.9509 O   0  0  0  0  0  0  0  0  0  0  0  0
    4.0014   -2.3392   -1.2025 C   0  0  1  0  0  0  0  0  0  0  0  0
    3.6124   -1.0669   -2.0336 C   0  0  0  0  0  0  0  0  0  0  0  0
    3.6338   -1.3924   -3.8268 S   0  0  0  0  0  0  0  0  0  0  0  0
    2.8251   -2.7850    2.2434 O   0  0  0  0  0  0  0  0  0  0  0  0
    8.1865   -3.9282    1.6749 H   0  0  0  0  0  0  0  0  0  0  0  0
    8.8253   -3.8174    0.0461 H   0  0  0  0  0  0  0  0  0  0  0  0
    7.5839   -5.0079    0.4151 H   0  0  0  0  0  0  0  0  0  0  0  0
    6.8120   -3.0031   -0.8462 H   0  0  0  0  0  0  0  0  0  0  0  0
    7.3559   -1.4007    1.6652 H   0  0  0  0  0  0  0  0  0  0  0  0
    8.2472   -1.3287    0.1677 H   0  0  0  0  0  0  0  0  0  0  0  0
    6.5910    0.4691    0.2206 H   0  0  0  0  0  0  0  0  0  0  0  0
    6.1393   -0.6732   -1.0074 H   0  0  0  0  0  0  0  0  0  0  0  0
    4.1661    0.0119    0.3507 H   0  0  0  0  0  0  0  0  0  0  0  0
    1.8833   -1.5854    4.3353 H   0  0  0  0  0  0  0  0  0  0  0  0
    3.3673   -1.6871    5.2853 H   0  0  0  0  0  0  0  0  0  0  0  0
    2.5720   -3.1496    4.7182 H   0  0  0  0  0  0  0  0  0  0  0  0
    5.8149   -2.2300    3.5458 H   0  0  0  0  0  0  0  0  0  0  0  0
    4.8699   -3.5051    4.1998 H   0  0  0  0  0  0  0  0  0  0  0  0
    6.1577   -4.4170    2.4383 H   0  0  0  0  0  0  0  0  0  0  0  0
    4.4955   -4.6122    2.1672 H   0  0  0  0  0  0  0  0  0  0  0  0
    5.1324   -4.1759    0.1375 H   0  0  0  0  0  0  0  0  0  0  0  0
    2.2535   -1.6486    0.6857 H   0  0  0  0  0  0  0  0  0  0  0  0
    3.2287   -4.3259   -1.5226 H   0  0  0  0  0  0  0  0  0  0  0  0
    1.4287   -2.2049   -1.6215 H   0  0  0  0  0  0  0  0  0  0  0  0
    4.8334   -2.8013   -1.7350 H   0  0  0  0  0  0  0  0  0  0  0  0
    2.6314   -0.6627   -1.7548 H   0  0  0  0  0  0  0  0  0  0  0  0
    4.3106   -0.2521   -1.9064 H   0  0  0  0  0  0  0  0  0  0  0  0
    2.5709   -2.2103   -3.8336 H   0  0  0  0  0  0  0  0  0  0  0  0
  1  2  1  0
  1 22  1  0
  1 23  1  0
  1 24  1  0
  2 12  1  0
  2  3  1  0
  2 25  1  6
  3  4  1  0
  3 26  1  0
  3 27  1  0
  4  5  1  0
  4 28  1  0
  4 29  1  0
 13  5  1  6
  5  6  1  0
  5 30  1  6
  6  7  1  0
  7  8  1  0
  8 21  1  0
  8  9  1  1
  8 10  1  0
  9 31  1  0
  9 32  1  0
  9 33  1  0
 10 11  1  0
 10 34  1  0
 10 35  1  0
 11 12  1  0
 11 36  1  0
 11 37  1  0
 12 13  1  0
 12 38  1  6
 13 18  1  0
 13 14  1  0
 14 15  1  0
 14 21  1  0
 14 39  1  1
 15 16  1  0
 16 17  1  0
 16 18  1  0
 16 40  1  6
 17 41  1  0
 18 19  1  0
 18 42  1  6
 19 20  1  0
 19 43  1  0
 19 44  1  0
 20 45  1  0
M  END
>  <i_m_ct_stereo_status>  (20) 
1

>  <s_m_source_file>  (20) 
/var/tmp/pbs.5076255.sched01/tmpvsf1hu0j/0g1dnczxv.sdf

>  <i_m_source_file_index>  (20) 
8

>  <i_lp_mmshare_version>  (20) 
48012

>  <i_f3d_flags>  (20) 
0

>  <s_epik_input>  (20) 
W0NAXTEyM1tDQEBIXTRbQ0gyXVtDSDJdW0NAQEhdKFtDSDNdKVtDQEhdMVtDSDJdW0NIMl1bQ0BdKE9PNCkoW0NIM10pT1tDQEBIXTJPW0NAQEhdKFtPSF0pW0NASF0zW0NIMl1bU0hd

>  <s_epik_cmdline>  (20) 
J2VwaWtfcHl0aG9uJywgJy1waHQnLCAnMi4wJywgJy1waCcsICc3LjAnLCAnLXRuJywgJzgnLCAnLW1hJywgJzIwMCcsICctaW1hZScsICc8aW5maWxlLm1hZT4nLCAnLW9tYWUnLCAnPG91dGZpbGUubWFlPic=

>  <r_epik_Ionization_Penalty>  (20) 
0.00511646

>  <r_epik_Ionization_Penalty_Charging>  (20) 
0

>  <r_epik_Ionization_Penalty_Neutral>  (20) 
0.00511646

>  <r_epik_State_Penalty>  (20) 
0.00372474

>  <r_epik_Charging_Adjusted_Penalty>  (20) 
0.00372474

>  <i_epik_Tot_Q>  (20) 
0

>  <i_epik_Tot_abs_Q>  (20) 
0

>  <s_epik_Chemistry_Notes>  (20) 
This compound contains an acetal/aminal-like group ( X-CH(R)-Y where X, Y are N, S, or O) that may be acid/base labile, releasing an aldehyde.

>  <s_lp_Force_Field>  (20) 
OPLS3e

>  <r_lp_Energy>  (20) 
42.4895

>  <b_lp_Chiralities_Consistent>  (20) 
1

>  <s_lp_Variant>  (20) 
6:0-1

>  <s_i_glide_gridfile>  (20) 
pfpi4k_grid

>  <i_i_glide_lignum>  (20) 
8

>  <i_i_glide_rotatable_bonds>  (20) 
3

>  <r_i_docking_score>  (20) 
-4.25375

>  <r_i_glide_ligand_efficiency>  (20) 
-0.202559

>  <r_i_glide_ligand_efficiency_sa>  (20) 
-0.558846

>  <r_i_glide_ligand_efficiency_ln>  (20) 
-1.05173

>  <r_i_glide_gscore>  (20) 
-4.25375

>  <r_i_glide_lipo>  (20) 
-0.521423

>  <r_i_glide_hbond>  (20) 
0

>  <r_i_glide_metal>  (20) 
-0

>  <r_i_glide_rewards>  (20) 
-2.04107

>  <r_i_glide_evdw>  (20) 
-17.9074

>  <r_i_glide_ecoul>  (20) 
-6.29099

>  <r_i_glide_erotb>  (20) 
0.185945

>  <r_i_glide_esite>  (20) 
-0.0381839

>  <r_i_glide_emodel>  (20) 
-36.6465

>  <r_i_glide_energy>  (20) 
-24.1984

>  <r_i_glide_einternal>  (20) 
0.0712947

>  <r_i_glide_intrahb_reward>  (20) 
-0.5

>  <i_i_glide_confnum>  (20) 
1

>  <i_i_glide_posenum>  (20) 
11

>  <r_i_glide_eff_state_penalty>  (20) 
0

>  <ligand_id>  (20) 
6

>  <original_smiles>  (20) 
CC1CCC2OOC3(C)CCC1C21C(OC(O)C1CS)O3

>  <smiles>  (20) 
[H]OC1([H])OC2([H])OC3(C([H])([H])[H])OOC4([H])C([H])([H])C([H])([H])C([H])(C([H])([H])[H])C([H])(C([H])([H])C3([H])[H])C24C1([H])C([H])([H])S[H]

$$$$
6:0:1
     RDKit          3D

 45 48  0  0  1  0  0  0  0  0999 V2000
    8.1044   -3.6877    0.3634 C   0  0  0  0  0  0  0  0  0  0  0  0
    6.9076   -2.7708    0.0578 C   0  0  2  0  0  0  0  0  0  0  0  0
    7.0199   -1.4314    0.7965 C   0  0  0  0  0  0  0  0  0  0  0  0
    5.8995   -0.4839    0.3562 C   0  0  0  0  0  0  0  0  0  0  0  0
    4.5244   -1.0860    0.6675 C   0  0  2  0  0  0  0  0  0  0  0  0
    4.5373   -1.2058    2.0794 O   0  0  0  0  0  0  0  0  0  0  0  0
    3.2232   -1.7276    2.5385 O   0  0  0  0  0  0  0  0  0  0  0  0
    3.2864   -3.1510    2.5385 C   0  0  2  0  0  0  0  0  0  0  0  0
    2.3353   -3.6343    3.6468 C   0  0  0  0  0  0  0  0  0  0  0  0
    4.7081   -3.7510    2.7347 C   0  0  0  0  0  0  0  0  0  0  0  0
    5.3244   -4.3419    1.4516 C   0  0  0  0  0  0  0  0  0  0  0  0
    5.5013   -3.4372    0.2028 C   0  0  1  0  0  0  0  0  0  0  0  0
    4.3255   -2.4344   -0.1028 C   0  0  1  0  0  0  0  0  0  0  0  0
    2.9313   -3.0491    0.1620 C   0  0  1  0  0  0  0  0  0  0  0  0
    2.7332   -3.9378   -0.8677 O   0  0  0  0  0  0  0  0  0  0  0  0
    3.2453   -3.4298   -2.0484 C   0  0  1  0  0  0  0  0  0  0  0  0
    2.1962   -3.0863   -2.9261 O   0  0  0  0  0  0  0  0  0  0  0  0
    4.1768   -2.2498   -1.6592 C   0  0  1  0  0  0  0  0  0  0  0  0
    3.6581   -0.8802   -2.2049 C   0  0  0  0  0  0  0  0  0  0  0  0
    3.8146   -0.7420   -4.0139 S   0  0  0  0  0  0  0  0  0  0  0  0
    2.7387   -3.7199    1.3689 O   0  0  0  0  0  0  0  0  0  0  0  0
    8.2292   -3.8566    1.4335 H   0  0  0  0  0  0  0  0  0  0  0  0
    9.0278   -3.2372   -0.0028 H   0  0  0  0  0  0  0  0  0  0  0  0
    7.9931   -4.6568   -0.1240 H   0  0  0  0  0  0  0  0  0  0  0  0
    7.0179   -2.5363   -0.9992 H   0  0  0  0  0  0  0  0  0  0  0  0
    6.9697   -1.5808    1.8741 H   0  0  0  0  0  0  0  0  0  0  0  0
    7.9942   -0.9798    0.5938 H   0  0  0  0  0  0  0  0  0  0  0  0
    6.0087    0.4780    0.8501 H   0  0  0  0  0  0  0  0  0  0  0  0
    6.0045   -0.2964   -0.7088 H   0  0  0  0  0  0  0  0  0  0  0  0
    3.7411   -0.3678    0.4207 H   0  0  0  0  0  0  0  0  0  0  0  0
    1.3276   -3.2352    3.5134 H   0  0  0  0  0  0  0  0  0  0  0  0
    2.6847   -3.3498    4.6419 H   0  0  0  0  0  0  0  0  0  0  0  0
    2.2507   -4.7231    3.6300 H   0  0  0  0  0  0  0  0  0  0  0  0
    5.3868   -3.0610    3.2441 H   0  0  0  0  0  0  0  0  0  0  0  0
    4.6144   -4.5918    3.4266 H   0  0  0  0  0  0  0  0  0  0  0  0
    6.2521   -4.8266    1.7306 H   0  0  0  0  0  0  0  0  0  0  0  0
    4.6899   -5.1796    1.1555 H   0  0  0  0  0  0  0  0  0  0  0  0
    5.4839   -4.1708   -0.6001 H   0  0  0  0  0  0  0  0  0  0  0  0
    2.1939   -2.2602    0.1050 H   0  0  0  0  0  0  0  0  0  0  0  0
    3.8294   -4.2094   -2.5383 H   0  0  0  0  0  0  0  0  0  0  0  0
    1.6918   -3.8727   -3.0937 H   0  0  0  0  0  0  0  0  0  0  0  0
    5.1398   -2.4148   -2.1373 H   0  0  0  0  0  0  0  0  0  0  0  0
    2.6176   -0.7020   -1.9267 H   0  0  0  0  0  0  0  0  0  0  0  0
    4.2299   -0.0440   -1.8239 H   0  0  0  0  0  0  0  0  0  0  0  0
    2.8518   -1.6278   -4.2815 H   0  0  0  0  0  0  0  0  0  0  0  0
  1  2  1  0
  1 22  1  0
  1 23  1  0
  1 24  1  0
  2 12  1  0
  2  3  1  0
  2 25  1  6
  3  4  1  0
  3 26  1  0
  3 27  1  0
  4  5  1  0
  4 28  1  0
  4 29  1  0
 13  5  1  1
  5  6  1  0
  5 30  1  1
  6  7  1  0
  7  8  1  0
  8 21  1  0
  8  9  1  1
  8 10  1  0
  9 31  1  0
  9 32  1  0
  9 33  1  0
 10 11  1  0
 10 34  1  0
 10 35  1  0
 11 12  1  0
 11 36  1  0
 11 37  1  0
 12 13  1  0
 12 38  1  6
 13 18  1  0
 13 14  1  0
 14 15  1  0
 14 21  1  0
 14 39  1  6
 15 16  1  0
 16 17  1  0
 16 18  1  0
 16 40  1  6
 17 41  1  0
 18 19  1  0
 18 42  1  6
 19 20  1  0
 19 43  1  0
 19 44  1  0
 20 45  1  0
M  END
>  <i_m_ct_stereo_status>  (21) 
1

>  <s_m_source_file>  (21) 
/var/tmp/pbs.5076255.sched01/tmpvsf1hu0j/0g1dnczxv.sdf

>  <i_m_source_file_index>  (21) 
8

>  <i_lp_mmshare_version>  (21) 
48012

>  <i_f3d_flags>  (21) 
0

>  <s_epik_input>  (21) 
W0NAXTEyM1tDQEBIXTRbQ0gyXVtDSDJdW0NAQEhdKFtDSDNdKVtDQEhdMVtDSDJdW0NIMl1bQ0BdKE9PNCkoW0NIM10pT1tDQEBIXTJPW0NAQEhdKFtPSF0pW0NASF0zW0NIMl1bU0hd

>  <s_epik_cmdline>  (21) 
J2VwaWtfcHl0aG9uJywgJy1waHQnLCAnMi4wJywgJy1waCcsICc3LjAnLCAnLXRuJywgJzgnLCAnLW1hJywgJzIwMCcsICctaW1hZScsICc8aW5maWxlLm1hZT4nLCAnLW9tYWUnLCAnPG91dGZpbGUubWFlPic=

>  <r_epik_Ionization_Penalty>  (21) 
0.00511646

>  <r_epik_Ionization_Penalty_Charging>  (21) 
0

>  <r_epik_Ionization_Penalty_Neutral>  (21) 
0.00511646

>  <r_epik_State_Penalty>  (21) 
0.00372474

>  <r_epik_Charging_Adjusted_Penalty>  (21) 
0.00372474

>  <i_epik_Tot_Q>  (21) 
0

>  <i_epik_Tot_abs_Q>  (21) 
0

>  <s_epik_Chemistry_Notes>  (21) 
This compound contains an acetal/aminal-like group ( X-CH(R)-Y where X, Y are N, S, or O) that may be acid/base labile, releasing an aldehyde.

>  <s_lp_Force_Field>  (21) 
OPLS3e

>  <r_lp_Energy>  (21) 
42.4895

>  <b_lp_Chiralities_Consistent>  (21) 
1

>  <s_lp_Variant>  (21) 
6:0-1

>  <s_i_glide_gridfile>  (21) 
pfpi4k_grid

>  <i_i_glide_lignum>  (21) 
8

>  <i_i_glide_rotatable_bonds>  (21) 
3

>  <r_i_docking_score>  (21) 
-4.25277

>  <r_i_glide_ligand_efficiency>  (21) 
-0.202513

>  <r_i_glide_ligand_efficiency_sa>  (21) 
-0.558717

>  <r_i_glide_ligand_efficiency_ln>  (21) 
-1.05149

>  <r_i_glide_gscore>  (21) 
-4.25277

>  <r_i_glide_lipo>  (21) 
-0.591882

>  <r_i_glide_hbond>  (21) 
0

>  <r_i_glide_metal>  (21) 
-0

>  <r_i_glide_rewards>  (21) 
-2.02193

>  <r_i_glide_evdw>  (21) 
-22.2754

>  <r_i_glide_ecoul>  (21) 
-4.53495

>  <r_i_glide_erotb>  (21) 
0.185945

>  <r_i_glide_esite>  (21) 
-0.0308843

>  <r_i_glide_emodel>  (21) 
-39.0648

>  <r_i_glide_energy>  (21) 
-26.8103

>  <r_i_glide_einternal>  (21) 
0.441475

>  <r_i_glide_intrahb_reward>  (21) 
-0.5

>  <i_i_glide_confnum>  (21) 
1

>  <i_i_glide_posenum>  (21) 
21

>  <r_i_glide_eff_state_penalty>  (21) 
0

>  <ligand_id>  (21) 
6

>  <original_smiles>  (21) 
CC1CCC2OOC3(C)CCC1C21C(OC(O)C1CS)O3

>  <smiles>  (21) 
[H]OC1([H])OC2([H])OC3(C([H])([H])[H])OOC4([H])C([H])([H])C([H])([H])C([H])(C([H])([H])[H])C([H])(C([H])([H])C3([H])[H])C24C1([H])C([H])([H])S[H]

$$$$
6:0:2
     RDKit          3D

 45 48  0  0  1  0  0  0  0  0999 V2000
    8.2229   -3.6676    0.1424 C   0  0  0  0  0  0  0  0  0  0  0  0
    7.0156   -2.7494   -0.1242 C   0  0  2  0  0  0  0  0  0  0  0  0
    7.1646   -1.4020    0.5896 C   0  0  0  0  0  0  0  0  0  0  0  0
    6.0315   -0.4582    0.1821 C   0  0  0  0  0  0  0  0  0  0  0  0
    4.6680   -1.0372    0.5743 C   0  0  2  0  0  0  0  0  0  0  0  0
    4.7477   -1.1387    1.9838 O   0  0  0  0  0  0  0  0  0  0  0  0
    3.4529   -1.6473    2.5048 O   0  0  0  0  0  0  0  0  0  0  0  0
    3.5085   -3.0715    2.5241 C   0  0  2  0  0  0  0  0  0  0  0  0
    2.6105   -3.5309    3.6824 C   0  0  0  0  0  0  0  0  0  0  0  0
    4.9350   -3.6754    2.6634 C   0  0  0  0  0  0  0  0  0  0  0  0
    5.4902   -4.2896    1.3644 C   0  0  0  0  0  0  0  0  0  0  0  0
    5.6104   -3.4037    0.0977 C   0  0  1  0  0  0  0  0  0  0  0  0
    4.4232   -2.3935   -0.1643 C   0  0  1  0  0  0  0  0  0  0  0  0
    3.0295   -3.0065    0.1654 C   0  0  1  0  0  0  0  0  0  0  0  0
    2.8154   -3.9151   -0.8433 O   0  0  0  0  0  0  0  0  0  0  0  0
    3.2641   -3.4011   -2.0462 C   0  0  1  0  0  0  0  0  0  0  0  0
    2.1631   -3.0346   -2.8476 O   0  0  0  0  0  0  0  0  0  0  0  0
    4.2191   -2.2277   -1.7153 C   0  0  1  0  0  0  0  0  0  0  0  0
    3.6888   -0.8620   -2.2635 C   0  0  0  0  0  0  0  0  0  0  0  0
    3.8171   -0.7441   -4.0785 S   0  0  0  0  0  0  0  0  0  0  0  0
    2.8948   -3.6549    1.3914 O   0  0  0  0  0  0  0  0  0  0  0  0
    8.3964   -3.8159    1.2086 H   0  0  0  0  0  0  0  0  0  0  0  0
    9.1310   -3.2287   -0.2745 H   0  0  0  0  0  0  0  0  0  0  0  0
    8.0887   -4.6455   -0.3188 H   0  0  0  0  0  0  0  0  0  0  0  0
    7.0829   -2.5355   -1.1893 H   0  0  0  0  0  0  0  0  0  0  0  0
    7.1456   -1.5317    1.6714 H   0  0  0  0  0  0  0  0  0  0  0  0
    8.1350   -0.9605    0.3515 H   0  0  0  0  0  0  0  0  0  0  0  0
    6.1770    0.5162    0.6367 H   0  0  0  0  0  0  0  0  0  0  0  0
    6.0764   -0.3052   -0.8892 H   0  0  0  0  0  0  0  0  0  0  0  0
    3.8796   -0.3182    0.3449 H   0  0  0  0  0  0  0  0  0  0  0  0
    1.6011   -3.1276    3.5894 H   0  0  0  0  0  0  0  0  0  0  0  0
    3.0075   -3.2325    4.6543 H   0  0  0  0  0  0  0  0  0  0  0  0
    2.5189   -4.6190    3.6873 H   0  0  0  0  0  0  0  0  0  0  0  0
    5.6409   -2.9817    3.1284 H   0  0  0  0  0  0  0  0  0  0  0  0
    4.8735   -4.5043    3.3721 H   0  0  0  0  0  0  0  0  0  0  0  0
    6.4291   -4.7729    1.6058 H   0  0  0  0  0  0  0  0  0  0  0  0
    4.8414   -5.1299    1.1100 H   0  0  0  0  0  0  0  0  0  0  0  0
    5.5540   -4.1490   -0.6940 H   0  0  0  0  0  0  0  0  0  0  0  0
    2.2451   -2.2495    0.1085 H   0  0  0  0  0  0  0  0  0  0  0  0
    3.8130   -4.1818   -2.5735 H   0  0  0  0  0  0  0  0  0  0  0  0
    1.6576   -2.3990   -2.3650 H   0  0  0  0  0  0  0  0  0  0  0  0
    5.1616   -2.4144   -2.2306 H   0  0  0  0  0  0  0  0  0  0  0  0
    2.6579   -0.6775   -1.9600 H   0  0  0  0  0  0  0  0  0  0  0  0
    4.2629   -0.0173   -1.9037 H   0  0  0  0  0  0  0  0  0  0  0  0
    2.8485   -1.6348   -4.3460 H   0  0  0  0  0  0  0  0  0  0  0  0
  1  2  1  0
  1 22  1  0
  1 23  1  0
  1 24  1  0
  2 12  1  0
  2  3  1  0
  2 25  1  6
  3  4  1  0
  3 26  1  0
  3 27  1  0
  4  5  1  0
  4 28  1  0
  4 29  1  0
 13  5  1  1
  5  6  1  0
  5 30  1  1
  6  7  1  0
  7  8  1  0
  8 21  1  0
  8  9  1  1
  8 10  1  0
  9 31  1  0
  9 32  1  0
  9 33  1  0
 10 11  1  0
 10 34  1  0
 10 35  1  0
 11 12  1  0
 11 36  1  0
 11 37  1  0
 12 13  1  0
 12 38  1  6
 13 18  1  0
 13 14  1  0
 14 15  1  0
 14 21  1  0
 14 39  1  1
 15 16  1  0
 16 17  1  0
 16 18  1  0
 16 40  1  6
 17 41  1  0
 18 19  1  0
 18 42  1  6
 19 20  1  0
 19 43  1  0
 19 44  1  0
 20 45  1  0
M  END
>  <i_m_ct_stereo_status>  (22) 
1

>  <s_m_source_file>  (22) 
/var/tmp/pbs.5076255.sched01/tmpvsf1hu0j/0g1dnczxv.sdf

>  <i_m_source_file_index>  (22) 
8

>  <i_lp_mmshare_version>  (22) 
48012

>  <i_f3d_flags>  (22) 
0

>  <s_epik_input>  (22) 
W0NAXTEyM1tDQEBIXTRbQ0gyXVtDSDJdW0NAQEhdKFtDSDNdKVtDQEhdMVtDSDJdW0NIMl1bQ0BdKE9PNCkoW0NIM10pT1tDQEBIXTJPW0NAQEhdKFtPSF0pW0NASF0zW0NIMl1bU0hd

>  <s_epik_cmdline>  (22) 
J2VwaWtfcHl0aG9uJywgJy1waHQnLCAnMi4wJywgJy1waCcsICc3LjAnLCAnLXRuJywgJzgnLCAnLW1hJywgJzIwMCcsICctaW1hZScsICc8aW5maWxlLm1hZT4nLCAnLW9tYWUnLCAnPG91dGZpbGUubWFlPic=

>  <r_epik_Ionization_Penalty>  (22) 
0.00511646

>  <r_epik_Ionization_Penalty_Charging>  (22) 
0

>  <r_epik_Ionization_Penalty_Neutral>  (22) 
0.00511646

>  <r_epik_State_Penalty>  (22) 
0.00372474

>  <r_epik_Charging_Adjusted_Penalty>  (22) 
0.00372474

>  <i_epik_Tot_Q>  (22) 
0

>  <i_epik_Tot_abs_Q>  (22) 
0

>  <s_epik_Chemistry_Notes>  (22) 
This compound contains an acetal/aminal-like group ( X-CH(R)-Y where X, Y are N, S, or O) that may be acid/base labile, releasing an aldehyde.

>  <s_lp_Force_Field>  (22) 
OPLS3e

>  <r_lp_Energy>  (22) 
42.4895

>  <b_lp_Chiralities_Consistent>  (22) 
1

>  <s_lp_Variant>  (22) 
6:0-1

>  <s_i_glide_gridfile>  (22) 
pfpi4k_grid

>  <i_i_glide_lignum>  (22) 
8

>  <i_i_glide_rotatable_bonds>  (22) 
3

>  <r_i_docking_score>  (22) 
-3.79502

>  <r_i_glide_ligand_efficiency>  (22) 
-0.180715

>  <r_i_glide_ligand_efficiency_sa>  (22) 
-0.49858

>  <r_i_glide_ligand_efficiency_ln>  (22) 
-0.938311

>  <r_i_glide_gscore>  (22) 
-3.79502

>  <r_i_glide_lipo>  (22) 
-0.497259

>  <r_i_glide_hbond>  (22) 
0

>  <r_i_glide_metal>  (22) 
-0

>  <r_i_glide_rewards>  (22) 
-2.00953

>  <r_i_glide_evdw>  (22) 
-22.3766

>  <r_i_glide_ecoul>  (22) 
-2.18194

>  <r_i_glide_erotb>  (22) 
0.185945

>  <r_i_glide_esite>  (22) 
-0.0280512

>  <r_i_glide_emodel>  (22) 
-36.2255

>  <r_i_glide_energy>  (22) 
-24.5586

>  <r_i_glide_einternal>  (22) 
0.104237

>  <r_i_glide_intrahb_reward>  (22) 
-0.5

>  <i_i_glide_confnum>  (22) 
1

>  <i_i_glide_posenum>  (22) 
23

>  <r_i_glide_eff_state_penalty>  (22) 
0

>  <ligand_id>  (22) 
6

>  <original_smiles>  (22) 
CC1CCC2OOC3(C)CCC1C21C(OC(O)C1CS)O3

>  <smiles>  (22) 
[H]OC1([H])OC2([H])OC3(C([H])([H])[H])OOC4([H])C([H])([H])C([H])([H])C([H])(C([H])([H])[H])C([H])(C([H])([H])C3([H])[H])C24C1([H])C([H])([H])S[H]

$$$$
7:0:0
     RDKit          3D

 44 48  0  0  1  0  0  0  0  0999 V2000
   -1.7725   -8.9146    2.8357 N   0  0  0  0  0  0  0  0  0  0  0  0
   -0.5777   -8.3127    2.8548 C   0  0  0  0  0  0  0  0  0  0  0  0
   -0.5536   -6.9549    2.8566 N   0  0  0  0  0  0  0  0  0  0  0  0
    0.6336   -6.3448    2.8954 C   0  0  0  0  0  0  0  0  0  0  0  0
    1.8542   -6.8893    2.9026 N   0  0  0  0  0  0  0  0  0  0  0  0
    1.8190   -8.2564    2.8766 C   0  0  0  0  0  0  0  0  0  0  0  0
    0.6430   -9.0293    2.8721 C   0  0  0  0  0  0  0  0  0  0  0  0
    0.9606  -10.3826    2.8799 N   0  0  0  0  0  0  0  0  0  0  0  0
    2.2649  -10.3976    2.8783 C   0  0  0  0  0  0  0  0  0  0  0  0
    2.8635   -9.1526    2.8527 N   0  0  0  0  0  0  0  0  0  0  0  0
    4.3293   -8.8592    2.8972 C   0  0  2  0  0  0  0  0  0  0  0  0
    4.5675   -7.5275    2.5234 O   0  0  0  0  0  0  0  0  0  0  0  0
    5.6656   -7.4286    1.6159 C   0  0  1  0  0  0  0  0  0  0  0  0
    6.6160   -6.2921    2.0551 C   0  0  0  0  0  0  0  0  0  0  0  0
    5.8007   -4.6643    2.1105 S   0  0  0  0  0  0  0  0  0  0  0  0
    6.3000   -3.7530    0.6874 C   0  0  0  0  0  0  0  0  0  0  0  0
    7.5873   -3.8618    0.2882 N   0  0  0  0  0  0  0  0  0  0  0  0
    7.9855   -3.1262   -0.7612 C   0  0  0  0  0  0  0  0  0  0  0  0
    7.2685   -2.2714   -1.5043 N   0  0  0  0  0  0  0  0  0  0  0  0
    5.9798   -2.2101   -1.0840 C   0  0  0  0  0  0  0  0  0  0  0  0
    4.9761   -1.4471   -1.6162 N   0  0  0  0  0  0  0  0  0  0  0  0
    3.8114   -1.6110   -0.8886 C   0  0  0  0  0  0  0  0  0  0  0  0
    4.0357   -2.4992    0.1352 C   0  0  0  0  0  0  0  0  0  0  0  0
    5.4086   -2.8998    0.0151 C   0  0  0  0  0  0  0  0  0  0  0  0
    6.2796   -8.8396    1.5617 C   0  0  1  0  0  0  0  0  0  0  0  0
    7.2852   -9.0039    2.5460 O   0  0  0  0  0  0  0  0  0  0  0  0
    5.0734   -9.7194    1.8727 C   0  0  1  0  0  0  0  0  0  0  0  0
    5.4507  -10.9937    2.3588 O   0  0  0  0  0  0  0  0  0  0  0  0
   -2.6227   -8.3770    2.8639 H   0  0  0  0  0  0  0  0  0  0  0  0
    5.0476   -0.8489   -2.4196 H   0  0  0  0  0  0  0  0  0  0  0  0
   -1.7686   -9.9240    2.9221 H   0  0  0  0  0  0  0  0  0  0  0  0
    0.6250   -5.2596    2.9057 H   0  0  0  0  0  0  0  0  0  0  0  0
    2.8176  -11.3289    2.8988 H   0  0  0  0  0  0  0  0  0  0  0  0
    4.6391   -9.0123    3.9362 H   0  0  0  0  0  0  0  0  0  0  0  0
    5.2230   -7.1939    0.6482 H   0  0  0  0  0  0  0  0  0  0  0  0
    6.9788   -6.4731    3.0681 H   0  0  0  0  0  0  0  0  0  0  0  0
    7.5006   -6.2655    1.4170 H   0  0  0  0  0  0  0  0  0  0  0  0
    9.0230   -3.2497   -1.0630 H   0  0  0  0  0  0  0  0  0  0  0  0
    2.9094   -1.0794   -1.1665 H   0  0  0  0  0  0  0  0  0  0  0  0
    3.3310   -2.8341    0.8820 H   0  0  0  0  0  0  0  0  0  0  0  0
    6.7006   -9.0798    0.5844 H   0  0  0  0  0  0  0  0  0  0  0  0
    7.9795   -8.3856    2.3881 H   0  0  0  0  0  0  0  0  0  0  0  0
    4.4431   -9.8141    0.9924 H   0  0  0  0  0  0  0  0  0  0  0  0
    5.0201  -11.6379    1.8011 H   0  0  0  0  0  0  0  0  0  0  0  0
  1  2  1  0
  1 31  1  0
  1 29  1  0
  2  3  2  0
  2  7  1  0
  3  4  1  0
  4 32  1  0
  4  5  2  0
  5  6  1  0
  6 10  1  0
  6  7  2  0
  7  8  1  0
  8  9  2  0
  9 33  1  0
  9 10  1  0
 10 11  1  0
 11 27  1  0
 11 12  1  0
 11 34  1  1
 12 13  1  0
 13 14  1  0
 13 25  1  0
 13 35  1  6
 14 15  1  0
 14 36  1  0
 14 37  1  0
 15 16  1  0
 16 24  1  0
 16 17  2  0
 17 18  1  0
 18 19  2  0
 18 38  1  0
 19 20  1  0
 20 24  2  0
 20 21  1  0
 21 30  1  0
 21 22  1  0
 22 23  2  0
 22 39  1  0
 23 24  1  0
 23 40  1  0
 25 26  1  0
 25 27  1  0
 25 41  1  6
 26 42  1  0
 27 28  1  0
 27 43  1  6
 28 44  1  0
M  END
>  <i_m_ct_stereo_status>  (23) 
1

>  <s_m_source_file>  (23) 
/var/tmp/pbs.5076255.sched01/tmpvsf1hu0j/0g1dnczxv.sdf

>  <i_m_source_file_index>  (23) 
9

>  <i_lp_mmshare_version>  (23) 
48012

>  <i_f3d_flags>  (23) 
0

>  <s_epik_input>  (23) 
bjFbY0hdW25IXVxjKD1OXFtIXSljKGMxMiluW2NIXW4yW0NAQEhdM09bQ0BIXShbQ0BASF0oW09IXSlbQ0BIXTNbT0hdKVtDSDJdU2MobltjSF1uNCljKGM0NSlbY0hdW2NIXVtuSF01

>  <s_epik_cmdline>  (23) 
J2VwaWtfcHl0aG9uJywgJy1waHQnLCAnMi4wJywgJy1waCcsICc3LjAnLCAnLXRuJywgJzgnLCAnLW1hJywgJzIwMCcsICctaW1hZScsICc8aW5maWxlLm1hZT4nLCAnLW9tYWUnLCAnPG91dGZpbGUubWFlPic=

>  <r_lp_tautomer_probability>  (23) 
1

>  <r_epik_Ionization_Penalty>  (23) 
0.00043413

>  <r_epik_Ionization_Penalty_Charging>  (23) 
0

>  <r_epik_Ionization_Penalty_Neutral>  (23) 
0.00043413

>  <r_epik_State_Penalty>  (23) 
-0

>  <r_epik_Charging_Adjusted_Penalty>  (23) 
0

>  <i_epik_Tot_Q>  (23) 
0

>  <i_epik_Tot_abs_Q>  (23) 
0

>  <s_epik_Chemistry_Notes>  (23) 
This compound contains an acetal/aminal-like group ( X-CH(R)-Y where X, Y are N, S, or O) that may be acid/base labile, releasing an aldehyde.

>  <s_lp_Force_Field>  (23) 
OPLS3e

>  <r_lp_Energy>  (23) 
33.7394

>  <b_lp_Chiralities_Consistent>  (23) 
1

>  <s_lp_Variant>  (23) 
7:0-1

>  <s_i_glide_gridfile>  (23) 
pfpi4k_grid

>  <i_i_glide_lignum>  (23) 
9

>  <i_i_glide_rotatable_bonds>  (23) 
6

>  <r_i_docking_score>  (23) 
-4.33579

>  <r_i_glide_ligand_efficiency>  (23) 
-0.15485

>  <r_i_glide_ligand_efficiency_sa>  (23) 
-0.470215

>  <r_i_glide_ligand_efficiency_ln>  (23) 
-1.00083

>  <r_i_glide_gscore>  (23) 
-4.33579

>  <r_i_glide_lipo>  (23) 
-0.382281

>  <r_i_glide_hbond>  (23) 
-0.316709

>  <r_i_glide_metal>  (23) 
-0

>  <r_i_glide_rewards>  (23) 
-0.822683

>  <r_i_glide_evdw>  (23) 
-32.1386

>  <r_i_glide_ecoul>  (23) 
-10.0848

>  <r_i_glide_erotb>  (23) 
0.489084

>  <r_i_glide_esite>  (23) 
-0.183555

>  <r_i_glide_emodel>  (23) 
-52.2655

>  <r_i_glide_energy>  (23) 
-42.2234

>  <r_i_glide_einternal>  (23) 
5.91426

>  <r_i_glide_intrahb_reward>  (23) 
-0

>  <i_i_glide_confnum>  (23) 
2

>  <i_i_glide_posenum>  (23) 
1

>  <r_i_glide_eff_state_penalty>  (23) 
0

>  <ligand_id>  (23) 
7

>  <original_smiles>  (23) 
N=c1[nH]cnc2c1ncn2C1OC(CSc2ncnc3[nH]ccc23)C(O)C1O

>  <smiles>  (23) 
[H]OC1([H])C([H])(n2c([H])nc3c(N([H])[H])nc([H])nc32)OC([H])(C([H])([H])Sc2nc([H])nc3c2c([H])c([H])n3[H])C1([H])O[H]

$$$$
7:0:1
     RDKit          3D

 44 48  0  0  1  0  0  0  0  0999 V2000
   -1.8455   -9.0175    3.2814 N   0  0  0  0  0  0  0  0  0  0  0  0
   -0.6651   -8.5753    2.8293 C   0  0  0  0  0  0  0  0  0  0  0  0
   -0.6520   -7.5993    1.8908 N   0  0  0  0  0  0  0  0  0  0  0  0
    0.5191   -7.1801    1.4073 C   0  0  0  0  0  0  0  0  0  0  0  0
    1.7521   -7.5680    1.7584 N   0  0  0  0  0  0  0  0  0  0  0  0
    1.7280   -8.5224    2.7405 C   0  0  0  0  0  0  0  0  0  0  0  0
    0.5647   -9.0796    3.3098 C   0  0  0  0  0  0  0  0  0  0  0  0
    0.8999  -10.0269    4.2643 N   0  0  0  0  0  0  0  0  0  0  0  0
    2.2055  -10.0198    4.2629 C   0  0  0  0  0  0  0  0  0  0  0  0
    2.7844   -9.1248    3.3880 N   0  0  0  0  0  0  0  0  0  0  0  0
    4.2336   -8.9116    3.1596 C   0  0  2  0  0  0  0  0  0  0  0  0
    4.4815   -7.5933    2.7640 O   0  0  0  0  0  0  0  0  0  0  0  0
    5.4147   -7.5602    1.6820 C   0  0  1  0  0  0  0  0  0  0  0  0
    6.5051   -6.4901    1.9329 C   0  0  0  0  0  0  0  0  0  0  0  0
    5.8119   -4.8194    2.1063 S   0  0  0  0  0  0  0  0  0  0  0  0
    6.2488   -3.9036    0.6655 C   0  0  0  0  0  0  0  0  0  0  0  0
    7.5599   -3.8237    0.3396 N   0  0  0  0  0  0  0  0  0  0  0  0
    7.9085   -3.0641   -0.7023 C   0  0  0  0  0  0  0  0  0  0  0  0
    7.1210   -2.3372   -1.5047 N   0  0  0  0  0  0  0  0  0  0  0  0
    5.8110   -2.4754   -1.1716 C   0  0  0  0  0  0  0  0  0  0  0  0
    4.7298   -1.8985   -1.7936 N   0  0  0  0  0  0  0  0  0  0  0  0
    3.5576   -2.2407   -1.1394 C   0  0  0  0  0  0  0  0  0  0  0  0
    3.8543   -3.0511   -0.0732 C   0  0  0  0  0  0  0  0  0  0  0  0
    5.2816   -3.2250   -0.0918 C   0  0  0  0  0  0  0  0  0  0  0  0
    5.9061   -9.0096    1.5304 C   0  0  1  0  0  0  0  0  0  0  0  0
    7.0194   -9.2447    2.3695 O   0  0  0  0  0  0  0  0  0  0  0  0
    4.7169   -9.8117    2.0313 C   0  0  1  0  0  0  0  0  0  0  0  0
    5.1030  -11.0955    2.4832 O   0  0  0  0  0  0  0  0  0  0  0  0
   -2.6934   -8.6816    2.8659 H   0  0  0  0  0  0  0  0  0  0  0  0
    4.7697   -1.3077   -2.6082 H   0  0  0  0  0  0  0  0  0  0  0  0
   -1.8475   -9.7641    3.9812 H   0  0  0  0  0  0  0  0  0  0  0  0
    0.4895   -6.4618    0.6015 H   0  0  0  0  0  0  0  0  0  0  0  0
    2.7826  -10.6801    4.9078 H   0  0  0  0  0  0  0  0  0  0  0  0
    4.7034   -9.0910    4.1206 H   0  0  0  0  0  0  0  0  0  0  0  0
    4.8414   -7.3064    0.7915 H   0  0  0  0  0  0  0  0  0  0  0  0
    7.0289   -6.6948    2.8646 H   0  0  0  0  0  0  0  0  0  0  0  0
    7.2665   -6.5194    1.1507 H   0  0  0  0  0  0  0  0  0  0  0  0
    8.9686   -3.0198   -0.9273 H   0  0  0  0  0  0  0  0  0  0  0  0
    2.6131   -1.8604   -1.4939 H   0  0  0  0  0  0  0  0  0  0  0  0
    3.1712   -3.4751    0.6483 H   0  0  0  0  0  0  0  0  0  0  0  0
    6.1834   -9.2652    0.5055 H   0  0  0  0  0  0  0  0  0  0  0  0
    6.7907   -9.0017    3.2518 H   0  0  0  0  0  0  0  0  0  0  0  0
    3.9426   -9.8633    1.2627 H   0  0  0  0  0  0  0  0  0  0  0  0
    4.8333  -11.7143    1.7903 H   0  0  0  0  0  0  0  0  0  0  0  0
  1  2  1  0
  1 31  1  0
  1 29  1  0
  2  3  2  0
  2  7  1  0
  3  4  1  0
  4 32  1  0
  4  5  2  0
  5  6  1  0
  6 10  1  0
  6  7  2  0
  7  8  1  0
  8  9  2  0
  9 33  1  0
  9 10  1  0
 10 11  1  0
 11 27  1  0
 11 12  1  0
 11 34  1  1
 12 13  1  0
 13 14  1  0
 13 25  1  0
 13 35  1  6
 14 15  1  0
 14 36  1  0
 14 37  1  0
 15 16  1  0
 16 24  1  0
 16 17  2  0
 17 18  1  0
 18 19  2  0
 18 38  1  0
 19 20  1  0
 20 24  2  0
 20 21  1  0
 21 30  1  0
 21 22  1  0
 22 23  2  0
 22 39  1  0
 23 24  1  0
 23 40  1  0
 25 26  1  0
 25 27  1  0
 25 41  1  6
 26 42  1  0
 27 28  1  0
 27 43  1  6
 28 44  1  0
M  END
>  <i_m_ct_stereo_status>  (24) 
1

>  <s_m_source_file>  (24) 
/var/tmp/pbs.5076255.sched01/tmpvsf1hu0j/0g1dnczxv.sdf

>  <i_m_source_file_index>  (24) 
9

>  <i_lp_mmshare_version>  (24) 
48012

>  <i_f3d_flags>  (24) 
0

>  <s_epik_input>  (24) 
bjFbY0hdW25IXVxjKD1OXFtIXSljKGMxMiluW2NIXW4yW0NAQEhdM09bQ0BIXShbQ0BASF0oW09IXSlbQ0BIXTNbT0hdKVtDSDJdU2MobltjSF1uNCljKGM0NSlbY0hdW2NIXVtuSF01

>  <s_epik_cmdline>  (24) 
J2VwaWtfcHl0aG9uJywgJy1waHQnLCAnMi4wJywgJy1waCcsICc3LjAnLCAnLXRuJywgJzgnLCAnLW1hJywgJzIwMCcsICctaW1hZScsICc8aW5maWxlLm1hZT4nLCAnLW9tYWUnLCAnPG91dGZpbGUubWFlPic=

>  <r_lp_tautomer_probability>  (24) 
1

>  <r_epik_Ionization_Penalty>  (24) 
0.00043413

>  <r_epik_Ionization_Penalty_Charging>  (24) 
0

>  <r_epik_Ionization_Penalty_Neutral>  (24) 
0.00043413

>  <r_epik_State_Penalty>  (24) 
-0

>  <r_epik_Charging_Adjusted_Penalty>  (24) 
0

>  <i_epik_Tot_Q>  (24) 
0

>  <i_epik_Tot_abs_Q>  (24) 
0

>  <s_epik_Chemistry_Notes>  (24) 
This compound contains an acetal/aminal-like group ( X-CH(R)-Y where X, Y are N, S, or O) that may be acid/base labile, releasing an aldehyde.

>  <s_lp_Force_Field>  (24) 
OPLS3e

>  <r_lp_Energy>  (24) 
33.7394

>  <b_lp_Chiralities_Consistent>  (24) 
1

>  <s_lp_Variant>  (24) 
7:0-1

>  <s_i_glide_gridfile>  (24) 
pfpi4k_grid

>  <i_i_glide_lignum>  (24) 
9

>  <i_i_glide_rotatable_bonds>  (24) 
6

>  <r_i_docking_score>  (24) 
-4.26735

>  <r_i_glide_ligand_efficiency>  (24) 
-0.152405

>  <r_i_glide_ligand_efficiency_sa>  (24) 
-0.462793

>  <r_i_glide_ligand_efficiency_ln>  (24) 
-0.98503

>  <r_i_glide_gscore>  (24) 
-4.26735

>  <r_i_glide_lipo>  (24) 
-0.354157

>  <r_i_glide_hbond>  (24) 
-0.304

>  <r_i_glide_metal>  (24) 
-0

>  <r_i_glide_rewards>  (24) 
-0.7717

>  <r_i_glide_evdw>  (24) 
-32.8253

>  <r_i_glide_ecoul>  (24) 
-9.41421

>  <r_i_glide_erotb>  (24) 
0.489084

>  <r_i_glide_esite>  (24) 
-0.273184

>  <r_i_glide_emodel>  (24) 
-52.26

>  <r_i_glide_energy>  (24) 
-42.2395

>  <r_i_glide_einternal>  (24) 
4.99889

>  <r_i_glide_intrahb_reward>  (24) 
-0

>  <i_i_glide_confnum>  (24) 
2

>  <i_i_glide_posenum>  (24) 
9

>  <r_i_glide_eff_state_penalty>  (24) 
0

>  <ligand_id>  (24) 
7

>  <original_smiles>  (24) 
N=c1[nH]cnc2c1ncn2C1OC(CSc2ncnc3[nH]ccc23)C(O)C1O

>  <smiles>  (24) 
[H]OC1([H])C([H])(n2c([H])nc3c(N([H])[H])nc([H])nc32)OC([H])(C([H])([H])Sc2nc([H])nc3c2c([H])c([H])n3[H])C1([H])O[H]

$$$$
7:0:2
     RDKit          3D

 44 48  0  0  1  0  0  0  0  0999 V2000
   -1.8377   -9.0153    3.2779 N   0  0  0  0  0  0  0  0  0  0  0  0
   -0.6566   -8.5747    2.8436 C   0  0  0  0  0  0  0  0  0  0  0  0
   -0.6384   -7.5998    1.9013 N   0  0  0  0  0  0  0  0  0  0  0  0
    0.5412   -7.1757    1.4283 C   0  0  0  0  0  0  0  0  0  0  0  0
    1.7654   -7.5605    1.8023 N   0  0  0  0  0  0  0  0  0  0  0  0
    1.7427   -8.5070    2.7860 C   0  0  0  0  0  0  0  0  0  0  0  0
    0.5693   -9.0745    3.3468 C   0  0  0  0  0  0  0  0  0  0  0  0
    0.9009  -10.0107    4.3077 N   0  0  0  0  0  0  0  0  0  0  0  0
    2.2017   -9.9974    4.3258 C   0  0  0  0  0  0  0  0  0  0  0  0
    2.7859   -9.1058    3.4506 N   0  0  0  0  0  0  0  0  0  0  0  0
    4.2422   -8.8871    3.2341 C   0  0  2  0  0  0  0  0  0  0  0  0
    4.4834   -7.5556    2.8830 O   0  0  0  0  0  0  0  0  0  0  0  0
    5.4345   -7.4816    1.8198 C   0  0  1  0  0  0  0  0  0  0  0  0
    6.5143   -6.4154    2.1305 C   0  0  0  0  0  0  0  0  0  0  0  0
    5.8215   -4.7354    2.2512 S   0  0  0  0  0  0  0  0  0  0  0  0
    6.2625   -3.8798    0.7752 C   0  0  0  0  0  0  0  0  0  0  0  0
    7.5700   -3.8206    0.4317 N   0  0  0  0  0  0  0  0  0  0  0  0
    7.9126   -3.0864   -0.6372 C   0  0  0  0  0  0  0  0  0  0  0  0
    7.1230   -2.3782   -1.4534 N   0  0  0  0  0  0  0  0  0  0  0  0
    5.8143   -2.4989   -1.0962 C   0  0  0  0  0  0  0  0  0  0  0  0
    4.7305   -1.9357   -1.7162 N   0  0  0  0  0  0  0  0  0  0  0  0
    3.5653   -2.2403   -1.0328 C   0  0  0  0  0  0  0  0  0  0  0  0
    3.8715   -3.0225    0.0520 C   0  0  0  0  0  0  0  0  0  0  0  0
    5.2915   -3.2115    0.0086 C   0  0  0  0  0  0  0  0  0  0  0  0
    5.9305   -8.9242    1.6157 C   0  0  1  0  0  0  0  0  0  0  0  0
    7.0603   -9.1898    2.4292 O   0  0  0  0  0  0  0  0  0  0  0  0
    4.7375   -9.7452    2.0834 C   0  0  1  0  0  0  0  0  0  0  0  0
    5.0997  -11.0650    2.4801 O   0  0  0  0  0  0  0  0  0  0  0  0
   -2.6862   -8.6885    2.8474 H   0  0  0  0  0  0  0  0  0  0  0  0
    4.7612   -1.3736   -2.5499 H   0  0  0  0  0  0  0  0  0  0  0  0
   -1.8472   -9.7615    3.9811 H   0  0  0  0  0  0  0  0  0  0  0  0
    0.5182   -6.4635    0.6192 H   0  0  0  0  0  0  0  0  0  0  0  0
    2.7692  -10.6536    4.9800 H   0  0  0  0  0  0  0  0  0  0  0  0
    4.7220   -9.0965    4.1980 H   0  0  0  0  0  0  0  0  0  0  0  0
    4.8635   -7.1912    0.9396 H   0  0  0  0  0  0  0  0  0  0  0  0
    6.9846   -6.6346    3.0881 H   0  0  0  0  0  0  0  0  0  0  0  0
    7.3144   -6.4534    1.3869 H   0  0  0  0  0  0  0  0  0  0  0  0
    8.9700   -3.0651   -0.8849 H   0  0  0  0  0  0  0  0  0  0  0  0
    2.6193   -1.8585   -1.3826 H   0  0  0  0  0  0  0  0  0  0  0  0
    3.1964   -3.4197    0.8008 H   0  0  0  0  0  0  0  0  0  0  0  0
    6.1939   -9.1285    0.5772 H   0  0  0  0  0  0  0  0  0  0  0  0
    7.7366   -8.5633    2.2341 H   0  0  0  0  0  0  0  0  0  0  0  0
    3.9660   -9.7755    1.3057 H   0  0  0  0  0  0  0  0  0  0  0  0
    4.8149  -11.6401    1.7808 H   0  0  0  0  0  0  0  0  0  0  0  0
  1  2  1  0
  1 31  1  0
  1 29  1  0
  2  3  2  0
  2  7  1  0
  3  4  1  0
  4 32  1  0
  4  5  2  0
  5  6  1  0
  6 10  1  0
  6  7  2  0
  7  8  1  0
  8  9  2  0
  9 33  1  0
  9 10  1  0
 10 11  1  0
 11 27  1  0
 11 12  1  0
 11 34  1  1
 12 13  1  0
 13 14  1  0
 13 25  1  0
 13 35  1  6
 14 15  1  0
 14 36  1  0
 14 37  1  0
 15 16  1  0
 16 24  1  0
 16 17  2  0
 17 18  1  0
 18 19  2  0
 18 38  1  0
 19 20  1  0
 20 24  2  0
 20 21  1  0
 21 30  1  0
 21 22  1  0
 22 23  2  0
 22 39  1  0
 23 24  1  0
 23 40  1  0
 25 26  1  0
 25 27  1  0
 25 41  1  6
 26 42  1  0
 27 28  1  0
 27 43  1  6
 28 44  1  0
M  END
>  <i_m_ct_stereo_status>  (25) 
1

>  <s_m_source_file>  (25) 
/var/tmp/pbs.5076255.sched01/tmpvsf1hu0j/0g1dnczxv.sdf

>  <i_m_source_file_index>  (25) 
9

>  <i_lp_mmshare_version>  (25) 
48012

>  <i_f3d_flags>  (25) 
0

>  <s_epik_input>  (25) 
bjFbY0hdW25IXVxjKD1OXFtIXSljKGMxMiluW2NIXW4yW0NAQEhdM09bQ0BIXShbQ0BASF0oW09IXSlbQ0BIXTNbT0hdKVtDSDJdU2MobltjSF1uNCljKGM0NSlbY0hdW2NIXVtuSF01

>  <s_epik_cmdline>  (25) 
J2VwaWtfcHl0aG9uJywgJy1waHQnLCAnMi4wJywgJy1waCcsICc3LjAnLCAnLXRuJywgJzgnLCAnLW1hJywgJzIwMCcsICctaW1hZScsICc8aW5maWxlLm1hZT4nLCAnLW9tYWUnLCAnPG91dGZpbGUubWFlPic=

>  <r_lp_tautomer_probability>  (25) 
1

>  <r_epik_Ionization_Penalty>  (25) 
0.00043413

>  <r_epik_Ionization_Penalty_Charging>  (25) 
0

>  <r_epik_Ionization_Penalty_Neutral>  (25) 
0.00043413

>  <r_epik_State_Penalty>  (25) 
-0

>  <r_epik_Charging_Adjusted_Penalty>  (25) 
0

>  <i_epik_Tot_Q>  (25) 
0

>  <i_epik_Tot_abs_Q>  (25) 
0

>  <s_epik_Chemistry_Notes>  (25) 
This compound contains an acetal/aminal-like group ( X-CH(R)-Y where X, Y are N, S, or O) that may be acid/base labile, releasing an aldehyde.

>  <s_lp_Force_Field>  (25) 
OPLS3e

>  <r_lp_Energy>  (25) 
33.7394

>  <b_lp_Chiralities_Consistent>  (25) 
1

>  <s_lp_Variant>  (25) 
7:0-1

>  <s_i_glide_gridfile>  (25) 
pfpi4k_grid

>  <i_i_glide_lignum>  (25) 
9

>  <i_i_glide_rotatable_bonds>  (25) 
6

>  <r_i_docking_score>  (25) 
-4.19384

>  <r_i_glide_ligand_efficiency>  (25) 
-0.14978

>  <r_i_glide_ligand_efficiency_sa>  (25) 
-0.45482

>  <r_i_glide_ligand_efficiency_ln>  (25) 
-0.968061

>  <r_i_glide_gscore>  (25) 
-4.19384

>  <r_i_glide_lipo>  (25) 
-0.320738

>  <r_i_glide_hbond>  (25) 
-0.304

>  <r_i_glide_metal>  (25) 
-0

>  <r_i_glide_rewards>  (25) 
-0.81453

>  <r_i_glide_evdw>  (25) 
-32.3092

>  <r_i_glide_ecoul>  (25) 
-9.0541

>  <r_i_glide_erotb>  (25) 
0.489084

>  <r_i_glide_esite>  (25) 
-0.270076

>  <r_i_glide_emodel>  (25) 
-51.3344

>  <r_i_glide_energy>  (25) 
-41.3633

>  <r_i_glide_einternal>  (25) 
4.80509

>  <r_i_glide_intrahb_reward>  (25) 
-0

>  <i_i_glide_confnum>  (25) 
2

>  <i_i_glide_posenum>  (25) 
11

>  <r_i_glide_eff_state_penalty>  (25) 
0

>  <ligand_id>  (25) 
7

>  <original_smiles>  (25) 
N=c1[nH]cnc2c1ncn2C1OC(CSc2ncnc3[nH]ccc23)C(O)C1O

>  <smiles>  (25) 
[H]OC1([H])C([H])(n2c([H])nc3c(N([H])[H])nc([H])nc32)OC([H])(C([H])([H])Sc2nc([H])nc3c2c([H])c([H])n3[H])C1([H])O[H]

$$$$
9:0:0
     RDKit          3D

 81 89  0  0  1  0  0  0  0  0999 V2000
    4.4266    1.7477    6.4869 C   0  0  0  0  0  0  0  0  0  0  0  0
    4.2995    0.3500    7.1716 C   0  0  0  0  0  0  0  0  0  0  0  0
    5.6036    0.1338    8.0267 C   0  0  0  0  0  0  0  0  0  0  0  0
    3.7969   -0.8724    6.2119 C   0  0  1  0  0  0  0  0  0  0  0  0
    4.5922   -0.9941    4.8057 C   0  0  1  0  0  0  0  0  0  0  0  0
    5.6218   -1.8928    5.6047 C   0  0  0  0  0  0  0  0  0  0  0  0
    4.3469   -2.3350    6.2996 C   0  0  1  0  0  0  0  0  0  0  0  0
    4.0298   -2.8308    7.6730 C   0  0  0  0  0  0  0  0  0  0  0  0
    2.6577   -2.3754    7.6513 O   0  0  0  0  0  0  0  0  0  0  0  0
    2.3592   -1.3101    6.7175 C   0  0  1  0  0  0  0  0  0  0  0  0
    1.5322   -0.4120    7.4199 O   0  0  0  0  0  0  0  0  0  0  0  0
    0.2888   -0.9966    7.9700 C   0  0  0  0  0  0  0  0  0  0  0  0
   -0.1873   -2.3125    7.3047 C   0  0  0  0  0  0  0  0  0  0  0  0
   -0.8251   -3.3570    7.8905 O   0  0  0  0  0  0  0  0  0  0  0  0
   -0.4865   -4.4502    7.0863 C   0  0  0  0  0  0  0  0  0  0  0  0
    0.4427   -4.1039    6.1236 C   0  0  0  0  0  0  0  0  0  0  0  0
    0.5061   -2.6970    6.1799 C   0  0  0  0  0  0  0  0  0  0  0  0
    1.4204   -1.7172    5.5670 C   0  0  1  0  0  0  0  0  0  0  0  0
    0.7863   -0.5491    5.0639 O   0  0  0  0  0  0  0  0  0  0  0  0
    0.4800   -0.5486    3.6782 C   0  0  1  0  0  0  0  0  0  0  0  0
   -0.5385    0.5981    3.4425 C   0  0  1  0  0  0  0  0  0  0  0  0
   -1.7855    0.3265    4.0941 O   0  0  0  0  0  0  0  0  0  0  0  0
    0.0280    2.0104    3.7404 C   0  0  1  0  0  0  0  0  0  0  0  0
    0.2334    2.2077    5.1321 O   0  0  0  0  0  0  0  0  0  0  0  0
    1.3442    2.2276    2.9494 C   0  0  1  0  0  0  0  0  0  0  0  0
    1.9534    3.4629    3.2757 O   0  0  0  0  0  0  0  0  0  0  0  0
    2.3678    1.0788    3.0949 C   0  0  0  0  0  0  0  0  0  0  0  0
    1.7564   -0.3170    2.8093 C   0  0  1  0  0  0  0  0  0  0  0  0
    2.8069   -1.4898    2.6195 C   0  0  2  0  0  0  0  0  0  0  0  0
    2.2281   -2.8875    2.1828 C   0  0  0  0  0  0  0  0  0  0  0  0
    1.5488   -3.8880    3.1486 C   0  0  0  0  0  0  0  0  0  0  0  0
    2.3080   -4.7267    4.2288 C   0  0  2  0  0  0  0  0  0  0  0  0
    1.2786   -5.0981    5.3471 C   0  0  0  0  0  0  0  0  0  0  0  0
    1.1311   -6.2965    5.5800 O   0  0  0  0  0  0  0  0  0  0  0  0
    3.7773   -4.3632    4.7255 C   0  0  1  0  0  0  0  0  0  0  0  0
    4.3450   -5.4688    5.6526 C   0  0  0  0  0  0  0  0  0  0  0  0
    4.7779   -4.1566    3.5478 C   0  0  0  0  0  0  0  0  0  0  0  0
    5.0456   -2.7597    2.9054 C   0  0  0  0  0  0  0  0  0  0  0  0
    4.2345   -1.4989    3.3271 C   0  0  2  0  0  0  0  0  0  0  0  0
    4.9623   -0.5408    2.5548 O   0  0  0  0  0  0  0  0  0  0  0  0
    3.5497   -3.2107    5.4874 O   0  0  0  0  0  0  0  0  0  0  0  0
    4.9463    1.7897    5.5243 H   0  0  0  0  0  0  0  0  0  0  0  0
    5.0169    2.4180    7.1190 H   0  0  0  0  0  0  0  0  0  0  0  0
    3.4563    2.2384    6.3464 H   0  0  0  0  0  0  0  0  0  0  0  0
    3.5473    0.5288    7.9319 H   0  0  0  0  0  0  0  0  0  0  0  0
    6.5046   -0.0366    7.4592 H   0  0  0  0  0  0  0  0  0  0  0  0
    5.4467   -0.6536    8.7841 H   0  0  0  0  0  0  0  0  0  0  0  0
    5.8361    1.0394    8.6094 H   0  0  0  0  0  0  0  0  0  0  0  0
    5.0756   -0.0346    4.6990 H   0  0  0  0  0  0  0  0  0  0  0  0
    6.1061   -2.7163    5.0772 H   0  0  0  0  0  0  0  0  0  0  0  0
    6.3573   -1.3842    6.1589 H   0  0  0  0  0  0  0  0  0  0  0  0
    4.0887   -3.9153    7.7837 H   0  0  0  0  0  0  0  0  0  0  0  0
    4.6049   -2.3955    8.4876 H   0  0  0  0  0  0  0  0  0  0  0  0
    0.4374   -1.1841    9.0329 H   0  0  0  0  0  0  0  0  0  0  0  0
   -0.5019   -0.2538    7.9026 H   0  0  0  0  0  0  0  0  0  0  0  0
   -0.9062   -5.4000    7.4068 H   0  0  0  0  0  0  0  0  0  0  0  0
    1.9279   -2.1142    4.7416 H   0  0  0  0  0  0  0  0  0  0  0  0
   -0.0204   -1.4666    3.3757 H   0  0  0  0  0  0  0  0  0  0  0  0
   -0.7789    0.5890    2.3807 H   0  0  0  0  0  0  0  0  0  0  0  0
   -2.4860    0.5539    3.4975 H   0  0  0  0  0  0  0  0  0  0  0  0
   -0.6988    2.7624    3.4198 H   0  0  0  0  0  0  0  0  0  0  0  0
    0.9036    1.6042    5.4243 H   0  0  0  0  0  0  0  0  0  0  0  0
    1.0837    2.3009    1.8914 H   0  0  0  0  0  0  0  0  0  0  0  0
    1.5362    4.1349    2.7494 H   0  0  0  0  0  0  0  0  0  0  0  0
    3.1641    1.2800    2.3788 H   0  0  0  0  0  0  0  0  0  0  0  0
    2.8144    1.0951    4.0873 H   0  0  0  0  0  0  0  0  0  0  0  0
    1.3416   -0.2158    1.8052 H   0  0  0  0  0  0  0  0  0  0  0  0
    3.1103   -1.2216    1.5972 H   0  0  0  0  0  0  0  0  0  0  0  0
    1.4670   -2.6322    1.4514 H   0  0  0  0  0  0  0  0  0  0  0  0
    2.9503   -3.4377    1.5848 H   0  0  0  0  0  0  0  0  0  0  0  0
    0.6481   -3.4402    3.5527 H   0  0  0  0  0  0  0  0  0  0  0  0
    1.1224   -4.6432    2.4916 H   0  0  0  0  0  0  0  0  0  0  0  0
    2.4826   -5.6780    3.7212 H   0  0  0  0  0  0  0  0  0  0  0  0
    4.4705   -6.4045    5.1127 H   0  0  0  0  0  0  0  0  0  0  0  0
    3.7029   -5.6789    6.5070 H   0  0  0  0  0  0  0  0  0  0  0  0
    5.3225   -5.1947    6.0526 H   0  0  0  0  0  0  0  0  0  0  0  0
    5.7522   -4.5383    3.8521 H   0  0  0  0  0  0  0  0  0  0  0  0
    4.4935   -4.8331    2.7506 H   0  0  0  0  0  0  0  0  0  0  0  0
    6.1078   -2.5436    3.0230 H   0  0  0  0  0  0  0  0  0  0  0  0
    5.0047   -2.8744    1.8245 H   0  0  0  0  0  0  0  0  0  0  0  0
    4.5241    0.2960    2.6225 H   0  0  0  0  0  0  0  0  0  0  0  0
  1  2  1  0
  1 42  1  0
  1 43  1  0
  1 44  1  0
  2  3  1  0
  4  2  1  1
  2 45  1  0
  3 46  1  0
  3 47  1  0
  3 48  1  0
  4  7  1  0
  4 10  1  0
  4  5  1  0
  5 39  1  0
  5  6  1  0
  5 49  1  6
  6  7  1  0
  6 50  1  0
  6 51  1  0
  7 41  1  0
  7  8  1  1
  8  9  1  0
  8 52  1  0
  8 53  1  0
 10  9  1  1
 10 18  1  0
 10 11  1  0
 11 12  1  0
 12 13  1  0
 12 54  1  0
 12 55  1  0
 13 17  2  0
 13 14  1  0
 14 15  1  0
 15 16  2  0
 15 56  1  0
 16 33  1  0
 16 17  1  0
 17 18  1  0
 18 19  1  0
 18 57  1  6
 19 20  1  0
 20 28  1  0
 20 21  1  0
 20 58  1  6
 21 22  1  0
 21 23  1  0
 21 59  1  6
 22 60  1  0
 23 24  1  0
 23 25  1  0
 23 61  1  6
 24 62  1  0
 25 26  1  0
 25 27  1  0
 25 63  1  6
 26 64  1  0
 27 28  1  0
 27 65  1  0
 27 66  1  0
 28 29  1  0
 28 67  1  6
 29 39  1  0
 29 30  1  0
 29 68  1  6
 30 31  1  0
 30 69  1  0
 30 70  1  0
 31 32  1  0
 31 71  1  0
 31 72  1  0
 32 33  1  0
 32 35  1  0
 32 73  1  6
 33 34  2  0
 35 36  1  1
 35 37  1  0
 35 41  1  0
 36 74  1  0
 36 75  1  0
 36 76  1  0
 37 38  1  0
 37 77  1  0
 37 78  1  0
 38 39  1  0
 38 79  1  0
 38 80  1  0
 39 40  1  6
 40 81  1  0
M  END
>  <i_m_ct_stereo_status>  (26) 
1

>  <s_m_source_file>  (26) 
/var/tmp/pbs.5076255.sched01/tmpvsf1hu0j/0g1dnczxv.sdf

>  <i_m_source_file_index>  (26) 
11

>  <i_lp_mmshare_version>  (26) 
48012

>  <i_f3d_flags>  (26) 
0

>  <s_epik_input>  (26) 
W0NIM11bQ0hdKFtDSDNdKVtDQEBdMShbQ0BAXTIzNClbQ0BdNShPW0NIMl0zKVtDQEBIXTZjN2MoW0NIMl1PNSlvW2NIXWM3Qyg9TylbQ0BASF04W0NAQF0oTzQpKFtDSDNdKVtDSDJdW0NIMl1bQ0BdKFtPSF0pKFtDSF0xW0NIMl0yKVtDQEBIXShbQ0gyXVtDSDJdOClbQ0BIXTlbQ0BASF0oTzYpW0NAQEhdKFtPSF0pW0NAQEhdKFtPSF0pW0NAQEhdKFtPSF0pW0NIMl05

>  <s_epik_cmdline>  (26) 
J2VwaWtfcHl0aG9uJywgJy1waHQnLCAnMi4wJywgJy1waCcsICc3LjAnLCAnLXRuJywgJzgnLCAnLW1hJywgJzIwMCcsICctaW1hZScsICc8aW5maWxlLm1hZT4nLCAnLW9tYWUnLCAnPG91dGZpbGUubWFlPic=

>  <r_lp_tautomer_probability>  (26) 
1

>  <r_epik_Ionization_Penalty>  (26) 
3.94666e-07

>  <r_epik_Ionization_Penalty_Charging>  (26) 
0

>  <r_epik_Ionization_Penalty_Neutral>  (26) 
3.94666e-07

>  <r_epik_State_Penalty>  (26) 
-0

>  <r_epik_Charging_Adjusted_Penalty>  (26) 
0

>  <i_epik_Tot_Q>  (26) 
0

>  <i_epik_Tot_abs_Q>  (26) 
0

>  <s_lp_Force_Field>  (26) 
OPLS3e

>  <r_lp_Energy>  (26) 
223.207

>  <b_lp_Chiralities_Consistent>  (26) 
1

>  <s_lp_Variant>  (26) 
9:0-1

>  <s_i_glide_gridfile>  (26) 
pfpi4k_grid

>  <i_i_glide_lignum>  (26) 
11

>  <i_i_glide_rotatable_bonds>  (26) 
5

>  <r_i_docking_score>  (26) 
-2.8672

>  <r_i_glide_ligand_efficiency>  (26) 
-0.0699316

>  <r_i_glide_ligand_efficiency_sa>  (26) 
-0.241139

>  <r_i_glide_ligand_efficiency_ln>  (26) 
-0.608285

>  <r_i_glide_gscore>  (26) 
-2.8672

>  <r_i_glide_lipo>  (26) 
-0.121625

>  <r_i_glide_hbond>  (26) 
-0.0763449

>  <r_i_glide_metal>  (26) 
-0

>  <r_i_glide_rewards>  (26) 
-0.5

>  <r_i_glide_evdw>  (26) 
-18.1535

>  <r_i_glide_ecoul>  (26) 
-8.40975

>  <r_i_glide_erotb>  (26) 
0

>  <r_i_glide_esite>  (26) 
-8.70956e-05

>  <r_i_glide_emodel>  (26) 
-30.7956

>  <r_i_glide_energy>  (26) 
-26.5633

>  <r_i_glide_einternal>  (26) 
5.74366

>  <r_i_glide_intrahb_reward>  (26) 
-0.5

>  <i_i_glide_confnum>  (26) 
1

>  <i_i_glide_posenum>  (26) 
25

>  <r_i_glide_eff_state_penalty>  (26) 
0

>  <ligand_id>  (26) 
9

>  <original_smiles>  (26) 
CC(C)C12C3CC14COC21OCc2occ5c2C1OC1C(O)C(O)C(O)CC1C1CCC(C5=O)C(C)(CCC13O)O4

>  <smiles>  (26) 
[H]OC1([H])C([H])([H])C2([H])C([H])(OC3([H])c4c5oc([H])c4C(=O)C4([H])C([H])([H])C([H])([H])C2([H])C2(O[H])C([H])([H])C([H])([H])C4(C([H])([H])[H])OC46C([H])([H])OC3(OC5([H])[H])C4(C([H])(C([H])([H])[H])C([H])([H])[H])C2([H])C6([H])[H])C([H])(O[H])C1([H])O[H]

$$$$
9:1:0
     RDKit          3D

 81 89  0  0  1  0  0  0  0  0999 V2000
    4.5873    3.2543    8.6065 C   0  0  0  0  0  0  0  0  0  0  0  0
    4.1170    2.0144    7.8151 C   0  0  0  0  0  0  0  0  0  0  0  0
    5.2701    1.4086    7.0035 C   0  0  0  0  0  0  0  0  0  0  0  0
    2.7056    2.0411    7.0589 C   0  0  1  0  0  0  0  0  0  0  0  0
    1.8990    0.6199    7.2697 C   0  0  1  0  0  0  0  0  0  0  0  0
    1.4409    1.3415    8.5858 C   0  0  0  0  0  0  0  0  0  0  0  0
    1.3669    2.5329    7.6571 C   0  0  1  0  0  0  0  0  0  0  0  0
    1.5299    3.9744    7.9365 C   0  0  0  0  0  0  0  0  0  0  0  0
    2.0019    4.2863    6.6269 O   0  0  0  0  0  0  0  0  0  0  0  0
    2.7651    3.2343    5.9996 C   0  0  1  0  0  0  0  0  0  0  0  0
    3.9728    3.8640    5.6620 O   0  0  0  0  0  0  0  0  0  0  0  0
    3.7808    5.0986    4.8441 C   0  0  0  0  0  0  0  0  0  0  0  0
    2.4520    5.2188    4.0676 C   0  0  0  0  0  0  0  0  0  0  0  0
    1.7385    6.3632    3.8320 O   0  0  0  0  0  0  0  0  0  0  0  0
    0.4212    5.8958    3.7147 C   0  0  0  0  0  0  0  0  0  0  0  0
    0.3084    4.5286    4.0224 C   0  0  0  0  0  0  0  0  0  0  0  0
    1.6337    4.1059    4.1085 C   0  0  0  0  0  0  0  0  0  0  0  0
    2.2786    2.8639    4.5943 C   0  0  2  0  0  0  0  0  0  0  0  0
    1.7169    1.5876    4.5000 O   0  0  0  0  0  0  0  0  0  0  0  0
    2.1745    0.6312    3.5397 C   0  0  1  0  0  0  0  0  0  0  0  0
    3.6583    0.5878    3.0543 C   0  0  1  0  0  0  0  0  0  0  0  0
    4.5478    0.7872    4.1359 O   0  0  0  0  0  0  0  0  0  0  0  0
    3.9771   -0.8009    2.4571 C   0  0  1  0  0  0  0  0  0  0  0  0
    5.2138   -0.8067    1.7744 O   0  0  0  0  0  0  0  0  0  0  0  0
    3.8256   -1.9572    3.4791 C   0  0  1  0  0  0  0  0  0  0  0  0
    5.0383   -2.2627    4.1323 O   0  0  0  0  0  0  0  0  0  0  0  0
    2.7816   -1.6492    4.5755 C   0  0  0  0  0  0  0  0  0  0  0  0
    1.6649   -0.7147    4.0777 C   0  0  1  0  0  0  0  0  0  0  0  0
    0.4703   -0.5773    5.0521 C   0  0  2  0  0  0  0  0  0  0  0  0
   -0.8484   -0.0519    4.3762 C   0  0  0  0  0  0  0  0  0  0  0  0
   -1.0169    1.4194    3.9468 C   0  0  0  0  0  0  0  0  0  0  0  0
   -1.3283    2.5534    4.9609 C   0  0  2  0  0  0  0  0  0  0  0  0
   -1.0431    3.9113    4.2336 C   0  0  0  0  0  0  0  0  0  0  0  0
   -2.0397    4.5150    3.8214 O   0  0  0  0  0  0  0  0  0  0  0  0
   -0.9764    2.4600    6.5036 C   0  0  1  0  0  0  0  0  0  0  0  0
   -1.5747    3.6920    7.2320 C   0  0  0  0  0  0  0  0  0  0  0  0
   -1.5401    1.1911    7.1988 C   0  0  0  0  0  0  0  0  0  0  0  0
   -0.6974   -0.1114    7.2525 C   0  0  0  0  0  0  0  0  0  0  0  0
    0.6924   -0.2290    6.5828 C   0  0  2  0  0  0  0  0  0  0  0  0
    1.0130   -1.5071    7.1193 O   0  0  0  0  0  0  0  0  0  0  0  0
    0.4257    2.4502    6.5441 O   0  0  0  0  0  0  0  0  0  0  0  0
    4.5389    4.1728    8.0327 H   0  0  0  0  0  0  0  0  0  0  0  0
    5.6225    3.1316    8.9252 H   0  0  0  0  0  0  0  0  0  0  0  0
    4.0186    3.3792    9.5286 H   0  0  0  0  0  0  0  0  0  0  0  0
    4.0657    1.2649    8.6017 H   0  0  0  0  0  0  0  0  0  0  0  0
    5.5921    2.0655    6.1956 H   0  0  0  0  0  0  0  0  0  0  0  0
    4.9958    0.4382    6.5898 H   0  0  0  0  0  0  0  0  0  0  0  0
    6.1449    1.2353    7.6323 H   0  0  0  0  0  0  0  0  0  0  0  0
    2.7013   -0.0696    7.5360 H   0  0  0  0  0  0  0  0  0  0  0  0
    0.4829    1.1401    9.0453 H   0  0  0  0  0  0  0  0  0  0  0  0
    2.1685    1.4475    9.3918 H   0  0  0  0  0  0  0  0  0  0  0  0
    0.6288    4.5279    8.1789 H   0  0  0  0  0  0  0  0  0  0  0  0
    2.2455    4.1729    8.7255 H   0  0  0  0  0  0  0  0  0  0  0  0
    3.8850    5.9613    5.5039 H   0  0  0  0  0  0  0  0  0  0  0  0
    4.6037    5.2105    4.1377 H   0  0  0  0  0  0  0  0  0  0  0  0
   -0.3001    6.6557    3.4788 H   0  0  0  0  0  0  0  0  0  0  0  0
    3.1311    2.8348    3.9299 H   0  0  0  0  0  0  0  0  0  0  0  0
    1.6120    0.8385    2.6304 H   0  0  0  0  0  0  0  0  0  0  0  0
    3.8124    1.3508    2.2889 H   0  0  0  0  0  0  0  0  0  0  0  0
    4.5710    1.7213    4.2968 H   0  0  0  0  0  0  0  0  0  0  0  0
    3.2265   -0.9647    1.6820 H   0  0  0  0  0  0  0  0  0  0  0  0
    5.3066   -1.6482    1.3491 H   0  0  0  0  0  0  0  0  0  0  0  0
    3.5274   -2.8523    2.9305 H   0  0  0  0  0  0  0  0  0  0  0  0
    5.3559   -1.4612    4.5332 H   0  0  0  0  0  0  0  0  0  0  0  0
    2.3729   -2.5947    4.9350 H   0  0  0  0  0  0  0  0  0  0  0  0
    3.2795   -1.1787    5.4262 H   0  0  0  0  0  0  0  0  0  0  0  0
    1.2687   -1.2328    3.2032 H   0  0  0  0  0  0  0  0  0  0  0  0
    0.1578   -1.6212    5.0818 H   0  0  0  0  0  0  0  0  0  0  0  0
   -0.9379   -0.6157    3.4490 H   0  0  0  0  0  0  0  0  0  0  0  0
   -1.7504   -0.3530    4.9028 H   0  0  0  0  0  0  0  0  0  0  0  0
   -0.2529    1.7185    3.2378 H   0  0  0  0  0  0  0  0  0  0  0  0
   -1.8992    1.4046    3.2955 H   0  0  0  0  0  0  0  0  0  0  0  0
   -2.4160    2.5291    5.0029 H   0  0  0  0  0  0  0  0  0  0  0  0
   -2.6561    3.7327    7.0953 H   0  0  0  0  0  0  0  0  0  0  0  0
   -1.1647    4.6314    6.8635 H   0  0  0  0  0  0  0  0  0  0  0  0
   -1.3968    3.6542    8.3081 H   0  0  0  0  0  0  0  0  0  0  0  0
   -1.7539    1.4471    8.2386 H   0  0  0  0  0  0  0  0  0  0  0  0
   -2.5228    0.9853    6.7781 H   0  0  0  0  0  0  0  0  0  0  0  0
   -0.5821   -0.3932    8.2987 H   0  0  0  0  0  0  0  0  0  0  0  0
   -1.3144   -0.9144    6.8701 H   0  0  0  0  0  0  0  0  0  0  0  0
    1.8576   -1.7709    6.7885 H   0  0  0  0  0  0  0  0  0  0  0  0
  1  2  1  0
  1 42  1  0
  1 43  1  0
  1 44  1  0
  2  3  1  0
  4  2  1  1
  2 45  1  0
  3 46  1  0
  3 47  1  0
  3 48  1  0
  4  7  1  0
  4 10  1  0
  4  5  1  0
  5 39  1  0
  5  6  1  0
  5 49  1  1
  6  7  1  0
  6 50  1  0
  6 51  1  0
  7 41  1  0
  7  8  1  1
  8  9  1  0
  8 52  1  0
  8 53  1  0
 10  9  1  1
 10 18  1  0
 10 11  1  0
 11 12  1  0
 12 13  1  0
 12 54  1  0
 12 55  1  0
 13 17  2  0
 13 14  1  0
 14 15  1  0
 15 16  2  0
 15 56  1  0
 16 33  1  0
 16 17  1  0
 17 18  1  0
 18 19  1  0
 18 57  1  6
 19 20  1  0
 20 28  1  0
 20 21  1  0
 20 58  1  6
 21 22  1  0
 21 23  1  0
 21 59  1  6
 22 60  1  0
 23 24  1  0
 23 25  1  0
 23 61  1  6
 24 62  1  0
 25 26  1  0
 25 27  1  0
 25 63  1  6
 26 64  1  0
 27 28  1  0
 27 65  1  0
 27 66  1  0
 28 29  1  0
 28 67  1  6
 29 39  1  0
 29 30  1  0
 29 68  1  1
 30 31  1  0
 30 69  1  0
 30 70  1  0
 31 32  1  0
 31 71  1  0
 31 72  1  0
 32 33  1  0
 32 35  1  0
 32 73  1  1
 33 34  2  0
 35 36  1  1
 35 37  1  0
 35 41  1  0
 36 74  1  0
 36 75  1  0
 36 76  1  0
 37 38  1  0
 37 77  1  0
 37 78  1  0
 38 39  1  0
 38 79  1  0
 38 80  1  0
 39 40  1  1
 40 81  1  0
M  END
>  <i_m_ct_stereo_status>  (27) 
1

>  <s_m_source_file>  (27) 
/var/tmp/pbs.5076255.sched01/tmpvsf1hu0j/0g1dnczxv.sdf

>  <i_m_source_file_index>  (27) 
12

>  <i_lp_mmshare_version>  (27) 
48012

>  <i_f3d_flags>  (27) 
0

>  <s_epik_input>  (27) 
W0NIM11bQ0hdKFtDSDNdKVtDQEBdMShbQ0BAXTIzNClbQ0BdNShPW0NIMl0zKVtDQEBIXTZjN2MoW0NIMl1PNSlvW2NIXWM3Qyg9TylbQ0BASF04W0NAQF0oTzQpKFtDSDNdKVtDSDJdW0NIMl1bQ0BdKFtPSF0pKFtDSF0xW0NIMl0yKVtDQEBIXShbQ0gyXVtDSDJdOClbQ0BIXTlbQ0BASF0oTzYpW0NAQEhdKFtPSF0pW0NAQEhdKFtPSF0pW0NAQEhdKFtPSF0pW0NIMl05

>  <s_epik_cmdline>  (27) 
J2VwaWtfcHl0aG9uJywgJy1waHQnLCAnMi4wJywgJy1waCcsICc3LjAnLCAnLXRuJywgJzgnLCAnLW1hJywgJzIwMCcsICctaW1hZScsICc8aW5maWxlLm1hZT4nLCAnLW9tYWUnLCAnPG91dGZpbGUubWFlPic=

>  <r_lp_tautomer_probability>  (27) 
1

>  <r_epik_Ionization_Penalty>  (27) 
3.94666e-07

>  <r_epik_Ionization_Penalty_Charging>  (27) 
0

>  <r_epik_Ionization_Penalty_Neutral>  (27) 
3.94666e-07

>  <r_epik_State_Penalty>  (27) 
-0

>  <r_epik_Charging_Adjusted_Penalty>  (27) 
0

>  <i_epik_Tot_Q>  (27) 
0

>  <i_epik_Tot_abs_Q>  (27) 
0

>  <s_lp_Force_Field>  (27) 
OPLS3e

>  <r_lp_Energy>  (27) 
256.201

>  <b_lp_Chiralities_Consistent>  (27) 
1

>  <s_lp_Variant>  (27) 
9:0-2

>  <s_i_glide_gridfile>  (27) 
pfpi4k_grid

>  <i_i_glide_lignum>  (27) 
12

>  <i_i_glide_rotatable_bonds>  (27) 
5

>  <r_i_docking_score>  (27) 
-2.45533

>  <r_i_glide_ligand_efficiency>  (27) 
-0.059886

>  <r_i_glide_ligand_efficiency_sa>  (27) 
-0.2065

>  <r_i_glide_ligand_efficiency_ln>  (27) 
-0.520906

>  <r_i_glide_gscore>  (27) 
-2.45533

>  <r_i_glide_lipo>  (27) 
-0.0692024

>  <r_i_glide_hbond>  (27) 
-0.155412

>  <r_i_glide_metal>  (27) 
-0

>  <r_i_glide_rewards>  (27) 
-0.5

>  <r_i_glide_evdw>  (27) 
-20.0082

>  <r_i_glide_ecoul>  (27) 
-4.46303

>  <r_i_glide_erotb>  (27) 
0

>  <r_i_glide_esite>  (27) 
-0.0608469

>  <r_i_glide_emodel>  (27) 
-33.369

>  <r_i_glide_energy>  (27) 
-24.4712

>  <r_i_glide_einternal>  (27) 
0.745927

>  <r_i_glide_intrahb_reward>  (27) 
-0.5

>  <i_i_glide_confnum>  (27) 
1

>  <i_i_glide_posenum>  (27) 
8

>  <r_i_glide_eff_state_penalty>  (27) 
0

>  <ligand_id>  (27) 
9

>  <original_smiles>  (27) 
CC(C)C12C3CC14COC21OCc2occ5c2C1OC1C(O)C(O)C(O)CC1C1CCC(C5=O)C(C)(CCC13O)O4

>  <smiles>  (27) 
[H]OC1([H])C([H])([H])C2([H])C([H])(OC3([H])c4c5oc([H])c4C(=O)C4([H])C([H])([H])C([H])([H])C2([H])C2(O[H])C([H])([H])C([H])([H])C4(C([H])([H])[H])OC46C([H])([H])OC3(OC5([H])[H])C4(C([H])(C([H])([H])[H])C([H])([H])[H])C2([H])C6([H])[H])C([H])(O[H])C1([H])O[H]

$$$$
9:1:1
     RDKit          3D

 81 89  0  0  1  0  0  0  0  0999 V2000
    4.0768    1.5983    8.7917 C   0  0  0  0  0  0  0  0  0  0  0  0
    3.4662    0.6978    7.6947 C   0  0  0  0  0  0  0  0  0  0  0  0
    4.5547   -0.1014    6.9662 C   0  0  0  0  0  0  0  0  0  0  0  0
    2.3144    1.2693    6.7424 C   0  0  1  0  0  0  0  0  0  0  0  0
    1.1268    0.1431    6.5105 C   0  0  1  0  0  0  0  0  0  0  0  0
    0.6011    0.7487    7.8569 C   0  0  0  0  0  0  0  0  0  0  0  0
    1.0630    2.0394    7.2128 C   0  0  1  0  0  0  0  0  0  0  0  0
    1.5327    3.3004    7.8279 C   0  0  0  0  0  0  0  0  0  0  0  0
    2.3378    3.6668    6.7116 O   0  0  0  0  0  0  0  0  0  0  0  0
    2.9116    2.5511    5.9950 C   0  0  1  0  0  0  0  0  0  0  0  0
    4.2807    2.8389    6.0074 O   0  0  0  0  0  0  0  0  0  0  0  0
    4.5919    4.1980    5.4837 C   0  0  0  0  0  0  0  0  0  0  0  0
    3.5435    4.8376    4.5367 C   0  0  0  0  0  0  0  0  0  0  0  0
    3.2352    6.1660    4.4199 O   0  0  0  0  0  0  0  0  0  0  0  0
    1.9014    6.1466    3.9759 C   0  0  0  0  0  0  0  0  0  0  0  0
    1.3762    4.8482    3.9570 C   0  0  0  0  0  0  0  0  0  0  0  0
    2.4869    4.0235    4.1807 C   0  0  0  0  0  0  0  0  0  0  0  0
    2.6671    2.5808    4.4790 C   0  0  2  0  0  0  0  0  0  0  0  0
    1.8303    1.5619    4.0203 O   0  0  0  0  0  0  0  0  0  0  0  0
    2.2131    0.6750    2.9672 C   0  0  1  0  0  0  0  0  0  0  0  0
    3.6919    0.2430    2.7303 C   0  0  1  0  0  0  0  0  0  0  0  0
    4.4027    0.0144    3.9294 O   0  0  0  0  0  0  0  0  0  0  0  0
    3.7560   -1.0398    1.8940 C   0  0  1  0  0  0  0  0  0  0  0  0
    5.0738   -1.2906    1.4432 O   0  0  0  0  0  0  0  0  0  0  0  0
    3.1037   -2.2461    2.6075 C   0  0  1  0  0  0  0  0  0  0  0  0
    4.0531   -2.9847    3.3592 O   0  0  0  0  0  0  0  0  0  0  0  0
    1.9584   -1.8177    3.5594 C   0  0  0  0  0  0  0  0  0  0  0  0
    1.2607   -0.5197    3.1058 C   0  0  1  0  0  0  0  0  0  0  0  0
   -0.0371   -0.1846    3.8822 C   0  0  2  0  0  0  0  0  0  0  0  0
   -0.9773    0.8226    3.1272 C   0  0  0  0  0  0  0  0  0  0  0  0
   -0.6564    2.3226    3.0084 C   0  0  0  0  0  0  0  0  0  0  0  0
   -0.8618    3.3083    4.1895 C   0  0  2  0  0  0  0  0  0  0  0  0
   -0.1007    4.6182    3.8203 C   0  0  0  0  0  0  0  0  0  0  0  0
   -0.8093    5.5237    3.3795 O   0  0  0  0  0  0  0  0  0  0  0  0
   -0.8776    2.8630    5.7123 C   0  0  1  0  0  0  0  0  0  0  0  0
   -1.2614    4.0698    6.5899 C   0  0  0  0  0  0  0  0  0  0  0  0
   -1.9026    1.7513    6.0239 C   0  0  0  0  0  0  0  0  0  0  0  0
   -1.5239    0.2540    5.9047 C   0  0  0  0  0  0  0  0  0  0  0  0
   -0.0896   -0.1782    5.4701 C   0  0  2  0  0  0  0  0  0  0  0  0
   -0.2347   -1.5626    5.7681 O   0  0  0  0  0  0  0  0  0  0  0  0
    0.4137    2.4211    5.9700 O   0  0  0  0  0  0  0  0  0  0  0  0
    4.4072    2.5647    8.4253 H   0  0  0  0  0  0  0  0  0  0  0  0
    4.9452    1.1154    9.2380 H   0  0  0  0  0  0  0  0  0  0  0  0
    3.3831    1.7509    9.6175 H   0  0  0  0  0  0  0  0  0  0  0  0
    3.0449   -0.1097    8.2896 H   0  0  0  0  0  0  0  0  0  0  0  0
    5.2104    0.5410    6.3789 H   0  0  0  0  0  0  0  0  0  0  0  0
    4.1216   -0.8632    6.3168 H   0  0  0  0  0  0  0  0  0  0  0  0
    5.1901   -0.6306    7.6772 H   0  0  0  0  0  0  0  0  0  0  0  0
    1.6454   -0.7906    6.7394 H   0  0  0  0  0  0  0  0  0  0  0  0
   -0.4550    0.7719    8.0918 H   0  0  0  0  0  0  0  0  0  0  0  0
    1.1332    0.4979    8.7742 H   0  0  0  0  0  0  0  0  0  0  0  0
    0.7810    4.0541    8.0351 H   0  0  0  0  0  0  0  0  0  0  0  0
    2.0850    3.1444    8.7455 H   0  0  0  0  0  0  0  0  0  0  0  0
    4.7775    4.8615    6.3272 H   0  0  0  0  0  0  0  0  0  0  0  0
    5.5337    4.1608    4.9627 H   0  0  0  0  0  0  0  0  0  0  0  0
    1.4648    7.1209    3.8134 H   0  0  0  0  0  0  0  0  0  0  0  0
    3.6056    2.3962    3.9732 H   0  0  0  0  0  0  0  0  0  0  0  0
    1.9357    1.1915    2.0504 H   0  0  0  0  0  0  0  0  0  0  0  0
    4.2051    0.9814    2.1435 H   0  0  0  0  0  0  0  0  0  0  0  0
    4.4349    0.8338    4.4046 H   0  0  0  0  0  0  0  0  0  0  0  0
    3.1768   -0.8411    0.9896 H   0  0  0  0  0  0  0  0  0  0  0  0
    5.6060   -1.4805    2.2032 H   0  0  0  0  0  0  0  0  0  0  0  0
    2.7059   -2.9052    1.8339 H   0  0  0  0  0  0  0  0  0  0  0  0
    4.4190   -2.4076    4.0174 H   0  0  0  0  0  0  0  0  0  0  0  0
    1.2416   -2.6378    3.6296 H   0  0  0  0  0  0  0  0  0  0  0  0
    2.3597   -1.6612    4.5629 H   0  0  0  0  0  0  0  0  0  0  0  0
    0.9390   -0.7398    2.0857 H   0  0  0  0  0  0  0  0  0  0  0  0
   -0.6138   -1.0739    3.6440 H   0  0  0  0  0  0  0  0  0  0  0  0
   -1.0316    0.4850    2.0909 H   0  0  0  0  0  0  0  0  0  0  0  0
   -2.0044    0.7483    3.4589 H   0  0  0  0  0  0  0  0  0  0  0  0
    0.2907    2.4934    2.5078 H   0  0  0  0  0  0  0  0  0  0  0  0
   -1.3565    2.6805    2.2435 H   0  0  0  0  0  0  0  0  0  0  0  0
   -1.9010    3.6000    4.0529 H   0  0  0  0  0  0  0  0  0  0  0  0
   -2.2346    4.3972    6.2657 H   0  0  0  0  0  0  0  0  0  0  0  0
   -0.5747    4.9118    6.4978 H   0  0  0  0  0  0  0  0  0  0  0  0
   -1.3610    3.8135    7.6466 H   0  0  0  0  0  0  0  0  0  0  0  0
   -2.2880    1.8809    7.0367 H   0  0  0  0  0  0  0  0  0  0  0  0
   -2.7406    1.9961    5.3894 H   0  0  0  0  0  0  0  0  0  0  0  0
   -1.7506   -0.2031    6.8561 H   0  0  0  0  0  0  0  0  0  0  0  0
   -2.2640   -0.2471    5.2838 H   0  0  0  0  0  0  0  0  0  0  0  0
    0.5429   -2.0095    5.4694 H   0  0  0  0  0  0  0  0  0  0  0  0
  1  2  1  0
  1 42  1  0
  1 43  1  0
  1 44  1  0
  2  3  1  0
  4  2  1  1
  2 45  1  0
  3 46  1  0
  3 47  1  0
  3 48  1  0
  4  7  1  0
  4 10  1  0
  4  5  1  0
  5 39  1  0
  5  6  1  0
  5 49  1  1
  6  7  1  0
  6 50  1  0
  6 51  1  0
  7 41  1  0
  7  8  1  1
  8  9  1  0
  8 52  1  0
  8 53  1  0
 10  9  1  1
 10 18  1  0
 10 11  1  0
 11 12  1  0
 12 13  1  0
 12 54  1  0
 12 55  1  0
 13 17  2  0
 13 14  1  0
 14 15  1  0
 15 16  2  0
 15 56  1  0
 16 33  1  0
 16 17  1  0
 17 18  1  0
 18 19  1  0
 18 57  1  6
 19 20  1  0
 20 28  1  0
 20 21  1  0
 20 58  1  6
 21 22  1  0
 21 23  1  0
 21 59  1  6
 22 60  1  0
 23 24  1  0
 23 25  1  0
 23 61  1  6
 24 62  1  0
 25 26  1  0
 25 27  1  0
 25 63  1  6
 26 64  1  0
 27 28  1  0
 27 65  1  0
 27 66  1  0
 28 29  1  0
 28 67  1  6
 29 39  1  0
 29 30  1  0
 29 68  1  6
 30 31  1  0
 30 69  1  0
 30 70  1  0
 31 32  1  0
 31 71  1  0
 31 72  1  0
 32 33  1  0
 32 35  1  0
 32 73  1  6
 33 34  2  0
 35 36  1  1
 35 37  1  0
 35 41  1  0
 36 74  1  0
 36 75  1  0
 36 76  1  0
 37 38  1  0
 37 77  1  0
 37 78  1  0
 38 39  1  0
 38 79  1  0
 38 80  1  0
 39 40  1  1
 40 81  1  0
M  END
>  <i_m_ct_stereo_status>  (28) 
1

>  <s_m_source_file>  (28) 
/var/tmp/pbs.5076255.sched01/tmpvsf1hu0j/0g1dnczxv.sdf

>  <i_m_source_file_index>  (28) 
12

>  <i_lp_mmshare_version>  (28) 
48012

>  <i_f3d_flags>  (28) 
0

>  <s_epik_input>  (28) 
W0NIM11bQ0hdKFtDSDNdKVtDQEBdMShbQ0BAXTIzNClbQ0BdNShPW0NIMl0zKVtDQEBIXTZjN2MoW0NIMl1PNSlvW2NIXWM3Qyg9TylbQ0BASF04W0NAQF0oTzQpKFtDSDNdKVtDSDJdW0NIMl1bQ0BdKFtPSF0pKFtDSF0xW0NIMl0yKVtDQEBIXShbQ0gyXVtDSDJdOClbQ0BIXTlbQ0BASF0oTzYpW0NAQEhdKFtPSF0pW0NAQEhdKFtPSF0pW0NAQEhdKFtPSF0pW0NIMl05

>  <s_epik_cmdline>  (28) 
J2VwaWtfcHl0aG9uJywgJy1waHQnLCAnMi4wJywgJy1waCcsICc3LjAnLCAnLXRuJywgJzgnLCAnLW1hJywgJzIwMCcsICctaW1hZScsICc8aW5maWxlLm1hZT4nLCAnLW9tYWUnLCAnPG91dGZpbGUubWFlPic=

>  <r_lp_tautomer_probability>  (28) 
1

>  <r_epik_Ionization_Penalty>  (28) 
3.94666e-07

>  <r_epik_Ionization_Penalty_Charging>  (28) 
0

>  <r_epik_Ionization_Penalty_Neutral>  (28) 
3.94666e-07

>  <r_epik_State_Penalty>  (28) 
-0

>  <r_epik_Charging_Adjusted_Penalty>  (28) 
0

>  <i_epik_Tot_Q>  (28) 
0

>  <i_epik_Tot_abs_Q>  (28) 
0

>  <s_lp_Force_Field>  (28) 
OPLS3e

>  <r_lp_Energy>  (28) 
256.201

>  <b_lp_Chiralities_Consistent>  (28) 
1

>  <s_lp_Variant>  (28) 
9:0-2

>  <s_i_glide_gridfile>  (28) 
pfpi4k_grid

>  <i_i_glide_lignum>  (28) 
12

>  <i_i_glide_rotatable_bonds>  (28) 
5

>  <r_i_docking_score>  (28) 
-2.20702

>  <r_i_glide_ligand_efficiency>  (28) 
-0.0538297

>  <r_i_glide_ligand_efficiency_sa>  (28) 
-0.185616

>  <r_i_glide_ligand_efficiency_ln>  (28) 
-0.468226

>  <r_i_glide_gscore>  (28) 
-2.20702

>  <r_i_glide_lipo>  (28) 
-0.0138832

>  <r_i_glide_hbond>  (28) 
-0.124158

>  <r_i_glide_metal>  (28) 
-0

>  <r_i_glide_rewards>  (28) 
-0.5

>  <r_i_glide_evdw>  (28) 
-17.5487

>  <r_i_glide_ecoul>  (28) 
-3.94359

>  <r_i_glide_erotb>  (28) 
0

>  <r_i_glide_esite>  (28) 
-0.1

>  <r_i_glide_emodel>  (28) 
-30.1033

>  <r_i_glide_energy>  (28) 
-21.4923

>  <r_i_glide_einternal>  (28) 
0.330536

>  <r_i_glide_intrahb_reward>  (28) 
-0.5

>  <i_i_glide_confnum>  (28) 
1

>  <i_i_glide_posenum>  (28) 
1

>  <r_i_glide_eff_state_penalty>  (28) 
0

>  <ligand_id>  (28) 
9

>  <original_smiles>  (28) 
CC(C)C12C3CC14COC21OCc2occ5c2C1OC1C(O)C(O)C(O)CC1C1CCC(C5=O)C(C)(CCC13O)O4

>  <smiles>  (28) 
[H]OC1([H])C([H])([H])C2([H])C([H])(OC3([H])c4c5oc([H])c4C(=O)C4([H])C([H])([H])C([H])([H])C2([H])C2(O[H])C([H])([H])C([H])([H])C4(C([H])([H])[H])OC46C([H])([H])OC3(OC5([H])[H])C4(C([H])(C([H])([H])[H])C([H])([H])[H])C2([H])C6([H])[H])C([H])(O[H])C1([H])O[H]

$$$$
9:1:2
     RDKit          3D

 81 89  0  0  1  0  0  0  0  0999 V2000
    3.5684   -0.2545    9.1440 C   0  0  0  0  0  0  0  0  0  0  0  0
    2.6093   -0.2713    7.9316 C   0  0  0  0  0  0  0  0  0  0  0  0
    3.2256   -1.0366    6.7519 C   0  0  0  0  0  0  0  0  0  0  0  0
    1.8124    1.0579    7.5238 C   0  0  1  0  0  0  0  0  0  0  0  0
    0.2442    0.7127    7.1309 C   0  0  1  0  0  0  0  0  0  0  0  0
    0.0691    0.8346    8.6834 C   0  0  0  0  0  0  0  0  0  0  0  0
    1.0409    1.9811    8.4925 C   0  0  1  0  0  0  0  0  0  0  0  0
    2.0404    2.5571    9.4191 C   0  0  0  0  0  0  0  0  0  0  0  0
    2.9059    3.0117    8.3799 O   0  0  0  0  0  0  0  0  0  0  0  0
    2.9102    2.1775    7.2028 C   0  0  1  0  0  0  0  0  0  0  0  0
    4.2668    1.8599    7.0502 O   0  0  0  0  0  0  0  0  0  0  0  0
    5.1593    3.0538    6.9645 C   0  0  0  0  0  0  0  0  0  0  0  0
    4.4895    4.4017    6.5887 C   0  0  0  0  0  0  0  0  0  0  0  0
    4.8006    5.6537    7.0635 O   0  0  0  0  0  0  0  0  0  0  0  0
    3.5866    6.3555    6.9417 C   0  0  0  0  0  0  0  0  0  0  0  0
    2.5301    5.5155    6.5394 C   0  0  0  0  0  0  0  0  0  0  0  0
    3.1664    4.3172    6.1980 C   0  0  0  0  0  0  0  0  0  0  0  0
    2.6814    2.9438    5.8958 C   0  0  2  0  0  0  0  0  0  0  0  0
    1.4644    2.6618    5.2724 O   0  0  0  0  0  0  0  0  0  0  0  0
    1.4032    2.2309    3.9100 C   0  0  1  0  0  0  0  0  0  0  0  0
    2.5593    1.4257    3.2232 C   0  0  1  0  0  0  0  0  0  0  0  0
    3.1117    0.4476    4.0742 O   0  0  0  0  0  0  0  0  0  0  0  0
    2.0103    0.6825    1.9838 C   0  0  1  0  0  0  0  0  0  0  0  0
    3.0413    0.0719    1.2347 O   0  0  0  0  0  0  0  0  0  0  0  0
    0.8910   -0.3301    2.3120 C   0  0  1  0  0  0  0  0  0  0  0  0
    1.4038   -1.6383    2.5024 O   0  0  0  0  0  0  0  0  0  0  0  0
    0.0752    0.0542    3.5678 C   0  0  0  0  0  0  0  0  0  0  0  0
    0.0180    1.5755    3.7854 C   0  0  1  0  0  0  0  0  0  0  0  0
   -0.9965    2.0263    4.8725 C   0  0  2  0  0  0  0  0  0  0  0  0
   -1.4095    3.5400    4.7608 C   0  0  0  0  0  0  0  0  0  0  0  0
   -0.4455    4.6808    5.1546 C   0  0  0  0  0  0  0  0  0  0  0  0
   -0.1675    5.0689    6.6339 C   0  0  2  0  0  0  0  0  0  0  0  0
    1.1034    5.9825    6.6553 C   0  0  0  0  0  0  0  0  0  0  0  0
    0.8765    7.1928    6.7662 O   0  0  0  0  0  0  0  0  0  0  0  0
   -0.3786    4.0714    7.8458 C   0  0  1  0  0  0  0  0  0  0  0  0
   -0.1696    4.8491    9.1739 C   0  0  0  0  0  0  0  0  0  0  0  0
   -1.7966    3.4317    7.9026 C   0  0  0  0  0  0  0  0  0  0  0  0
   -2.1018    2.0941    7.1785 C   0  0  0  0  0  0  0  0  0  0  0  0
   -1.0131    1.3700    6.3224 C   0  0  2  0  0  0  0  0  0  0  0  0
   -1.7443    0.1669    6.0939 O   0  0  0  0  0  0  0  0  0  0  0  0
    0.5982    3.0861    7.6500 O   0  0  0  0  0  0  0  0  0  0  0  0
    4.2865    0.5577    9.1148 H   0  0  0  0  0  0  0  0  0  0  0  0
    4.1412   -1.1807    9.1896 H   0  0  0  0  0  0  0  0  0  0  0  0
    3.0231   -0.2117   10.0866 H   0  0  0  0  0  0  0  0  0  0  0  0
    1.8841   -1.0185    8.2447 H   0  0  0  0  0  0  0  0  0  0  0  0
    4.0865   -0.5155    6.3326 H   0  0  0  0  0  0  0  0  0  0  0  0
    2.4951   -1.2031    5.9594 H   0  0  0  0  0  0  0  0  0  0  0  0
    3.5754   -2.0226    7.0631 H   0  0  0  0  0  0  0  0  0  0  0  0
    0.3030   -0.3477    6.8804 H   0  0  0  0  0  0  0  0  0  0  0  0
   -0.8627    1.1729    9.1177 H   0  0  0  0  0  0  0  0  0  0  0  0
    0.4561    0.0299    9.3103 H   0  0  0  0  0  0  0  0  0  0  0  0
    1.7051    3.3778   10.0446 H   0  0  0  0  0  0  0  0  0  0  0  0
    2.4817    1.8178   10.0778 H   0  0  0  0  0  0  0  0  0  0  0  0
    5.6505    3.1664    7.9325 H   0  0  0  0  0  0  0  0  0  0  0  0
    5.9575    2.8429    6.2510 H   0  0  0  0  0  0  0  0  0  0  0  0
    3.6216    7.3849    7.2598 H   0  0  0  0  0  0  0  0  0  0  0  0
    3.4329    2.6325    5.1831 H   0  0  0  0  0  0  0  0  0  0  0  0
    1.3611    3.1479    3.3238 H   0  0  0  0  0  0  0  0  0  0  0  0
    3.3591    2.1082    2.9254 H   0  0  0  0  0  0  0  0  0  0  0  0
    3.7817    0.0037    3.5724 H   0  0  0  0  0  0  0  0  0  0  0  0
    1.5687    1.4481    1.3422 H   0  0  0  0  0  0  0  0  0  0  0  0
    2.6528   -0.2338    0.4216 H   0  0  0  0  0  0  0  0  0  0  0  0
    0.2229   -0.3641    1.4522 H   0  0  0  0  0  0  0  0  0  0  0  0
    1.8500   -1.8874    1.7021 H   0  0  0  0  0  0  0  0  0  0  0  0
   -0.9301   -0.3556    3.4658 H   0  0  0  0  0  0  0  0  0  0  0  0
    0.5270   -0.4160    4.4416 H   0  0  0  0  0  0  0  0  0  0  0  0
   -0.3837    1.9531    2.8423 H   0  0  0  0  0  0  0  0  0  0  0  0
   -1.9125    1.6384    4.4265 H   0  0  0  0  0  0  0  0  0  0  0  0
   -1.6160    3.7113    3.7018 H   0  0  0  0  0  0  0  0  0  0  0  0
   -2.3780    3.7422    5.2092 H   0  0  0  0  0  0  0  0  0  0  0  0
    0.4709    4.6488    4.5766 H   0  0  0  0  0  0  0  0  0  0  0  0
   -0.9075    5.5774    4.7329 H   0  0  0  0  0  0  0  0  0  0  0  0
   -0.9542    5.7870    6.8396 H   0  0  0  0  0  0  0  0  0  0  0  0
   -0.8738    5.6792    9.2491 H   0  0  0  0  0  0  0  0  0  0  0  0
    0.8322    5.2714    9.2621 H   0  0  0  0  0  0  0  0  0  0  0  0
   -0.3391    4.2160   10.0472 H   0  0  0  0  0  0  0  0  0  0  0  0
   -2.0362    3.2514    8.9523 H   0  0  0  0  0  0  0  0  0  0  0  0
   -2.5235    4.1809    7.5990 H   0  0  0  0  0  0  0  0  0  0  0  0
   -2.5168    1.4154    7.9195 H   0  0  0  0  0  0  0  0  0  0  0  0
   -2.9889    2.2460    6.5688 H   0  0  0  0  0  0  0  0  0  0  0  0
   -1.3373   -0.2699    5.3590 H   0  0  0  0  0  0  0  0  0  0  0  0
  1  2  1  0
  1 42  1  0
  1 43  1  0
  1 44  1  0
  2  3  1  0
  4  2  1  1
  2 45  1  0
  3 46  1  0
  3 47  1  0
  3 48  1  0
  4  7  1  0
  4 10  1  0
  4  5  1  0
  5 39  1  0
  5  6  1  0
  5 49  1  1
  6  7  1  0
  6 50  1  0
  6 51  1  0
  7 41  1  0
  7  8  1  1
  8  9  1  0
  8 52  1  0
  8 53  1  0
 10  9  1  1
 10 18  1  0
 10 11  1  0
 11 12  1  0
 12 13  1  0
 12 54  1  0
 12 55  1  0
 13 17  2  0
 13 14  1  0
 14 15  1  0
 15 16  2  0
 15 56  1  0
 16 33  1  0
 16 17  1  0
 17 18  1  0
 18 19  1  0
 18 57  1  6
 19 20  1  0
 20 28  1  0
 20 21  1  0
 20 58  1  6
 21 22  1  0
 21 23  1  0
 21 59  1  6
 22 60  1  0
 23 24  1  0
 23 25  1  0
 23 61  1  6
 24 62  1  0
 25 26  1  0
 25 27  1  0
 25 63  1  6
 26 64  1  0
 27 28  1  0
 27 65  1  0
 27 66  1  0
 28 29  1  0
 28 67  1  6
 29 39  1  0
 29 30  1  0
 29 68  1  6
 30 31  1  0
 30 69  1  0
 30 70  1  0
 31 32  1  0
 31 71  1  0
 31 72  1  0
 32 33  1  0
 32 35  1  0
 32 73  1  1
 33 34  2  0
 35 36  1  1
 35 37  1  0
 35 41  1  0
 36 74  1  0
 36 75  1  0
 36 76  1  0
 37 38  1  0
 37 77  1  0
 37 78  1  0
 38 39  1  0
 38 79  1  0
 38 80  1  0
 39 40  1  6
 40 81  1  0
M  END
>  <i_m_ct_stereo_status>  (29) 
1

>  <s_m_source_file>  (29) 
/var/tmp/pbs.5076255.sched01/tmpvsf1hu0j/0g1dnczxv.sdf

>  <i_m_source_file_index>  (29) 
12

>  <i_lp_mmshare_version>  (29) 
48012

>  <i_f3d_flags>  (29) 
0

>  <s_epik_input>  (29) 
W0NIM11bQ0hdKFtDSDNdKVtDQEBdMShbQ0BAXTIzNClbQ0BdNShPW0NIMl0zKVtDQEBIXTZjN2MoW0NIMl1PNSlvW2NIXWM3Qyg9TylbQ0BASF04W0NAQF0oTzQpKFtDSDNdKVtDSDJdW0NIMl1bQ0BdKFtPSF0pKFtDSF0xW0NIMl0yKVtDQEBIXShbQ0gyXVtDSDJdOClbQ0BIXTlbQ0BASF0oTzYpW0NAQEhdKFtPSF0pW0NAQEhdKFtPSF0pW0NAQEhdKFtPSF0pW0NIMl05

>  <s_epik_cmdline>  (29) 
J2VwaWtfcHl0aG9uJywgJy1waHQnLCAnMi4wJywgJy1waCcsICc3LjAnLCAnLXRuJywgJzgnLCAnLW1hJywgJzIwMCcsICctaW1hZScsICc8aW5maWxlLm1hZT4nLCAnLW9tYWUnLCAnPG91dGZpbGUubWFlPic=

>  <r_lp_tautomer_probability>  (29) 
1

>  <r_epik_Ionization_Penalty>  (29) 
3.94666e-07

>  <r_epik_Ionization_Penalty_Charging>  (29) 
0

>  <r_epik_Ionization_Penalty_Neutral>  (29) 
3.94666e-07

>  <r_epik_State_Penalty>  (29) 
-0

>  <r_epik_Charging_Adjusted_Penalty>  (29) 
0

>  <i_epik_Tot_Q>  (29) 
0

>  <i_epik_Tot_abs_Q>  (29) 
0

>  <s_lp_Force_Field>  (29) 
OPLS3e

>  <r_lp_Energy>  (29) 
256.201

>  <b_lp_Chiralities_Consistent>  (29) 
1

>  <s_lp_Variant>  (29) 
9:0-2

>  <s_i_glide_gridfile>  (29) 
pfpi4k_grid

>  <i_i_glide_lignum>  (29) 
12

>  <i_i_glide_rotatable_bonds>  (29) 
5

>  <r_i_docking_score>  (29) 
-1.94424

>  <r_i_glide_ligand_efficiency>  (29) 
-0.0474205

>  <r_i_glide_ligand_efficiency_sa>  (29) 
-0.163516

>  <r_i_glide_ligand_efficiency_ln>  (29) 
-0.412477

>  <r_i_glide_gscore>  (29) 
-1.94424

>  <r_i_glide_lipo>  (29) 
-0.0162302

>  <r_i_glide_hbond>  (29) 
-0.144112

>  <r_i_glide_metal>  (29) 
-0

>  <r_i_glide_rewards>  (29) 
0

>  <r_i_glide_evdw>  (29) 
-21.5304

>  <r_i_glide_ecoul>  (29) 
-4.71509

>  <r_i_glide_erotb>  (29) 
0

>  <r_i_glide_esite>  (29) 
-0.000113808

>  <r_i_glide_emodel>  (29) 
-29.0329

>  <r_i_glide_energy>  (29) 
-26.2455

>  <r_i_glide_einternal>  (29) 
1.15858

>  <r_i_glide_intrahb_reward>  (29) 
-0

>  <i_i_glide_confnum>  (29) 
1

>  <i_i_glide_posenum>  (29) 
34

>  <r_i_glide_eff_state_penalty>  (29) 
0

>  <ligand_id>  (29) 
9

>  <original_smiles>  (29) 
CC(C)C12C3CC14COC21OCc2occ5c2C1OC1C(O)C(O)C(O)CC1C1CCC(C5=O)C(C)(CCC13O)O4

>  <smiles>  (29) 
[H]OC1([H])C([H])([H])C2([H])C([H])(OC3([H])c4c5oc([H])c4C(=O)C4([H])C([H])([H])C([H])([H])C2([H])C2(O[H])C([H])([H])C([H])([H])C4(C([H])([H])[H])OC46C([H])([H])OC3(OC5([H])[H])C4(C([H])(C([H])([H])[H])C([H])([H])[H])C2([H])C6([H])[H])C([H])(O[H])C1([H])O[H]

$$$$
10:0:0
     RDKit          3D

 36 38  0  0  1  0  0  0  0  0999 V2000
    2.6235   -6.4260    3.5395 C   0  0  0  0  0  0  0  0  0  0  0  0
    2.2060   -6.6575    1.7709 S   0  0  0  0  0  0  0  0  0  0  0  0
    2.6507   -8.0012    1.3712 O   0  0  0  0  0  0  0  0  0  0  0  0
    0.8071   -6.2538    1.5716 O   0  0  0  0  0  0  0  0  0  0  0  0
    3.2066   -5.4918    0.9621 N   0  0  0  0  0  0  0  0  0  0  0  0
    4.5265   -5.8455    0.4530 C   0  0  0  0  0  0  0  0  0  0  0  0
    4.9987   -4.6519   -0.4000 C   0  0  2  0  0  0  0  0  0  0  0  0
    6.3447   -4.0719    0.1133 C   0  0  0  0  0  0  0  0  0  0  0  0
    7.0476   -3.0604   -0.8129 C   0  0  0  0  0  0  0  0  0  0  0  0
    6.6025   -1.7096   -0.7200 O   0  0  0  0  0  0  0  0  0  0  0  0
    5.2699   -1.3547   -1.0844 C   0  0  1  0  0  0  0  0  0  0  0  0
    4.6563   -2.1076   -2.2796 C   0  0  0  0  0  0  0  0  0  0  0  0
    3.5391   -3.0576   -1.8274 C   0  0  0  0  0  0  0  0  0  0  0  0
    3.8180   -3.6597   -0.4199 C   0  0  1  0  0  0  0  0  0  0  0  0
    2.6240   -4.4760    0.0941 C   0  0  0  0  0  0  0  0  0  0  0  0
    4.0131   -2.6591    0.5877 O   0  0  0  0  0  0  0  0  0  0  0  0
    4.3379   -1.3511    0.1425 C   0  0  0  0  0  0  0  0  0  0  0  0
    2.0217   -7.1259    4.1182 H   0  0  0  0  0  0  0  0  0  0  0  0
    2.3969   -5.4054    3.8366 H   0  0  0  0  0  0  0  0  0  0  0  0
    3.6775   -6.6430    3.6892 H   0  0  0  0  0  0  0  0  0  0  0  0
    5.1922   -6.0916    1.2779 H   0  0  0  0  0  0  0  0  0  0  0  0
    4.4205   -6.7255   -0.1856 H   0  0  0  0  0  0  0  0  0  0  0  0
    5.1543   -5.0385   -1.4111 H   0  0  0  0  0  0  0  0  0  0  0  0
    6.2346   -3.6603    1.1209 H   0  0  0  0  0  0  0  0  0  0  0  0
    7.0264   -4.9155    0.2203 H   0  0  0  0  0  0  0  0  0  0  0  0
    8.0920   -3.0236   -0.5044 H   0  0  0  0  0  0  0  0  0  0  0  0
    7.0770   -3.4151   -1.8400 H   0  0  0  0  0  0  0  0  0  0  0  0
    5.3563   -0.3154   -1.3989 H   0  0  0  0  0  0  0  0  0  0  0  0
    4.2147   -1.3874   -2.9647 H   0  0  0  0  0  0  0  0  0  0  0  0
    5.4033   -2.6238   -2.8785 H   0  0  0  0  0  0  0  0  0  0  0  0
    2.6110   -2.4914   -1.7727 H   0  0  0  0  0  0  0  0  0  0  0  0
    3.3818   -3.8381   -2.5779 H   0  0  0  0  0  0  0  0  0  0  0  0
    2.1277   -4.9983   -0.7165 H   0  0  0  0  0  0  0  0  0  0  0  0
    1.8761   -3.8833    0.6231 H   0  0  0  0  0  0  0  0  0  0  0  0
    4.7845   -0.7978    0.9667 H   0  0  0  0  0  0  0  0  0  0  0  0
    3.4105   -0.8393   -0.1180 H   0  0  0  0  0  0  0  0  0  0  0  0
  1  2  1  0
  1 18  1  0
  1 19  1  0
  1 20  1  0
  2  3  2  0
  2  4  2  0
  2  5  1  0
  5 15  1  0
  5  6  1  0
  6  7  1  0
  6 21  1  0
  6 22  1  0
  7 14  1  0
  7  8  1  0
  7 23  1  6
  8  9  1  0
  8 24  1  0
  8 25  1  0
  9 10  1  0
  9 26  1  0
  9 27  1  0
 10 11  1  0
 11 17  1  0
 11 12  1  0
 11 28  1  6
 12 13  1  0
 12 29  1  0
 12 30  1  0
 13 14  1  0
 13 31  1  0
 13 32  1  0
 14 15  1  1
 14 16  1  0
 15 33  1  0
 15 34  1  0
 16 17  1  0
 17 35  1  0
 17 36  1  0
M  END
>  <i_m_ct_stereo_status>  (30) 
1

>  <s_m_source_file>  (30) 
/var/tmp/pbs.5076255.sched01/tmpvsf1hu0j/0g1dnczxv.sdf

>  <i_m_source_file_index>  (30) 
13

>  <i_lp_mmshare_version>  (30) 
48012

>  <i_f3d_flags>  (30) 
0

>  <s_epik_input>  (30) 
W0NIM11TKD1PKSg9TylOKFtDSDJdMSlbQ0gyXVtDQEBIXShbQ0BdMTIzKVtDSDJdW0NIMl1PW0NASF0oW0NIMl1PMylbQ0gyXVtDSDJdMg==

>  <s_epik_cmdline>  (30) 
J2VwaWtfcHl0aG9uJywgJy1waHQnLCAnMi4wJywgJy1waCcsICc3LjAnLCAnLXRuJywgJzgnLCAnLW1hJywgJzIwMCcsICctaW1hZScsICc8aW5maWxlLm1hZT4nLCAnLW9tYWUnLCAnPG91dGZpbGUubWFlPic=

>  <r_lp_tautomer_probability>  (30) 
1

>  <r_epik_Ionization_Penalty>  (30) 
5.92613e-09

>  <r_epik_Ionization_Penalty_Charging>  (30) 
0

>  <r_epik_Ionization_Penalty_Neutral>  (30) 
5.92613e-09

>  <r_epik_State_Penalty>  (30) 
-0

>  <r_epik_Charging_Adjusted_Penalty>  (30) 
0

>  <i_epik_Tot_Q>  (30) 
0

>  <i_epik_Tot_abs_Q>  (30) 
0

>  <s_lp_Force_Field>  (30) 
OPLS3e

>  <r_lp_Energy>  (30) 
15.2576

>  <b_lp_Chiralities_Consistent>  (30) 
1

>  <s_lp_Variant>  (30) 
10:0-1

>  <s_i_glide_gridfile>  (30) 
pfpi4k_grid

>  <i_i_glide_lignum>  (30) 
13

>  <i_i_glide_rotatable_bonds>  (30) 
1

>  <r_i_docking_score>  (30) 
-4.12295

>  <r_i_glide_ligand_efficiency>  (30) 
-0.242526

>  <r_i_glide_ligand_efficiency_sa>  (30) 
-0.623603

>  <r_i_glide_ligand_efficiency_ln>  (30) 
-1.07559

>  <r_i_glide_gscore>  (30) 
-4.12295

>  <r_i_glide_lipo>  (30) 
-0.293177

>  <r_i_glide_hbond>  (30) 
-0.148988

>  <r_i_glide_metal>  (30) 
-0

>  <r_i_glide_rewards>  (30) 
-1.62724

>  <r_i_glide_evdw>  (30) 
-22.1732

>  <r_i_glide_ecoul>  (30) 
-5.40761

>  <r_i_glide_erotb>  (30) 
0

>  <r_i_glide_esite>  (30) 
-0.133747

>  <r_i_glide_emodel>  (30) 
-32.2273

>  <r_i_glide_energy>  (30) 
-27.5808

>  <r_i_glide_einternal>  (30) 
4.11154

>  <r_i_glide_intrahb_reward>  (30) 
-0

>  <i_i_glide_confnum>  (30) 
2

>  <i_i_glide_posenum>  (30) 
16

>  <r_i_glide_eff_state_penalty>  (30) 
0

>  <ligand_id>  (30) 
10

>  <original_smiles>  (30) 
CS(=O)(=O)N1CC2CCOC3CCC2(C1)OC3

>  <smiles>  (30) 
[H]C1([H])OC2([H])C([H])([H])OC3(C([H])([H])N(S(=O)(=O)C([H])([H])[H])C([H])([H])C3([H])C1([H])[H])C([H])([H])C2([H])[H]

$$$$
10:0:1
     RDKit          3D

 36 38  0  0  1  0  0  0  0  0999 V2000
    1.6721   -7.4159    1.3577 C   0  0  0  0  0  0  0  0  0  0  0  0
    2.3061   -6.0934    2.4419 S   0  0  0  0  0  0  0  0  0  0  0  0
    1.1595   -5.2985    2.9025 O   0  0  0  0  0  0  0  0  0  0  0  0
    3.2252   -6.6944    3.4146 O   0  0  0  0  0  0  0  0  0  0  0  0
    3.2401   -5.1131    1.3706 N   0  0  0  0  0  0  0  0  0  0  0  0
    4.4584   -5.6267    0.7521 C   0  0  0  0  0  0  0  0  0  0  0  0
    4.8946   -4.5706   -0.2812 C   0  0  2  0  0  0  0  0  0  0  0  0
    6.3234   -4.0446   -0.0052 C   0  0  0  0  0  0  0  0  0  0  0  0
    6.9484   -3.1981   -1.1257 C   0  0  0  0  0  0  0  0  0  0  0  0
    6.6066   -1.8217   -1.1240 O   0  0  0  0  0  0  0  0  0  0  0  0
    5.2644   -1.3960   -1.3695 C   0  0  1  0  0  0  0  0  0  0  0  0
    4.4464   -2.2168   -2.3840 C   0  0  0  0  0  0  0  0  0  0  0  0
    3.3476   -3.0218   -1.6827 C   0  0  0  0  0  0  0  0  0  0  0  0
    3.7792   -3.4962   -0.2703 C   0  0  1  0  0  0  0  0  0  0  0  0
    2.6211   -4.1675    0.4665 C   0  0  0  0  0  0  0  0  0  0  0  0
    4.1723   -2.4163    0.5837 O   0  0  0  0  0  0  0  0  0  0  0  0
    4.5125   -1.1874   -0.0438 C   0  0  0  0  0  0  0  0  0  0  0  0
    1.0709   -8.1060    1.9454 H   0  0  0  0  0  0  0  0  0  0  0  0
    2.5173   -7.9570    0.9379 H   0  0  0  0  0  0  0  0  0  0  0  0
    1.0707   -6.9787    0.5653 H   0  0  0  0  0  0  0  0  0  0  0  0
    5.2080   -5.8334    1.5146 H   0  0  0  0  0  0  0  0  0  0  0  0
    4.2235   -6.5591    0.2345 H   0  0  0  0  0  0  0  0  0  0  0  0
    4.8930   -5.0669   -1.2515 H   0  0  0  0  0  0  0  0  0  0  0  0
    6.3778   -3.5177    0.9507 H   0  0  0  0  0  0  0  0  0  0  0  0
    6.9593   -4.9212    0.1144 H   0  0  0  0  0  0  0  0  0  0  0  0
    8.0271   -3.2093   -0.9703 H   0  0  0  0  0  0  0  0  0  0  0  0
    6.8097   -3.6541   -2.1037 H   0  0  0  0  0  0  0  0  0  0  0  0
    5.3843   -0.4057   -1.8101 H   0  0  0  0  0  0  0  0  0  0  0  0
    3.9635   -1.5449   -3.0921 H   0  0  0  0  0  0  0  0  0  0  0  0
    5.0687   -2.8590   -3.0031 H   0  0  0  0  0  0  0  0  0  0  0  0
    2.4706   -2.3852   -1.5741 H   0  0  0  0  0  0  0  0  0  0  0  0
    3.0334   -3.8615   -2.3074 H   0  0  0  0  0  0  0  0  0  0  0  0
    1.9868   -4.7227   -0.2283 H   0  0  0  0  0  0  0  0  0  0  0  0
    2.0184   -3.4491    1.0213 H   0  0  0  0  0  0  0  0  0  0  0  0
    5.0948   -0.5739    0.6411 H   0  0  0  0  0  0  0  0  0  0  0  0
    3.5837   -0.6480   -0.2353 H   0  0  0  0  0  0  0  0  0  0  0  0
  1  2  1  0
  1 18  1  0
  1 19  1  0
  1 20  1  0
  2  3  2  0
  2  4  2  0
  2  5  1  0
  5 15  1  0
  5  6  1  0
  6  7  1  0
  6 21  1  0
  6 22  1  0
  7 14  1  0
  7  8  1  0
  7 23  1  6
  8  9  1  0
  8 24  1  0
  8 25  1  0
  9 10  1  0
  9 26  1  0
  9 27  1  0
 10 11  1  0
 11 17  1  0
 11 12  1  0
 11 28  1  6
 12 13  1  0
 12 29  1  0
 12 30  1  0
 13 14  1  0
 13 31  1  0
 13 32  1  0
 14 15  1  1
 14 16  1  0
 15 33  1  0
 15 34  1  0
 16 17  1  0
 17 35  1  0
 17 36  1  0
M  END
>  <i_m_ct_stereo_status>  (31) 
1

>  <s_m_source_file>  (31) 
/var/tmp/pbs.5076255.sched01/tmpvsf1hu0j/0g1dnczxv.sdf

>  <i_m_source_file_index>  (31) 
13

>  <i_lp_mmshare_version>  (31) 
48012

>  <i_f3d_flags>  (31) 
0

>  <s_epik_input>  (31) 
W0NIM11TKD1PKSg9TylOKFtDSDJdMSlbQ0gyXVtDQEBIXShbQ0BdMTIzKVtDSDJdW0NIMl1PW0NASF0oW0NIMl1PMylbQ0gyXVtDSDJdMg==

>  <s_epik_cmdline>  (31) 
J2VwaWtfcHl0aG9uJywgJy1waHQnLCAnMi4wJywgJy1waCcsICc3LjAnLCAnLXRuJywgJzgnLCAnLW1hJywgJzIwMCcsICctaW1hZScsICc8aW5maWxlLm1hZT4nLCAnLW9tYWUnLCAnPG91dGZpbGUubWFlPic=

>  <r_lp_tautomer_probability>  (31) 
1

>  <r_epik_Ionization_Penalty>  (31) 
5.92613e-09

>  <r_epik_Ionization_Penalty_Charging>  (31) 
0

>  <r_epik_Ionization_Penalty_Neutral>  (31) 
5.92613e-09

>  <r_epik_State_Penalty>  (31) 
-0

>  <r_epik_Charging_Adjusted_Penalty>  (31) 
0

>  <i_epik_Tot_Q>  (31) 
0

>  <i_epik_Tot_abs_Q>  (31) 
0

>  <s_lp_Force_Field>  (31) 
OPLS3e

>  <r_lp_Energy>  (31) 
15.2576

>  <b_lp_Chiralities_Consistent>  (31) 
1

>  <s_lp_Variant>  (31) 
10:0-1

>  <s_i_glide_gridfile>  (31) 
pfpi4k_grid

>  <i_i_glide_lignum>  (31) 
13

>  <i_i_glide_rotatable_bonds>  (31) 
1

>  <r_i_docking_score>  (31) 
-3.63408

>  <r_i_glide_ligand_efficiency>  (31) 
-0.213769

>  <r_i_glide_ligand_efficiency_sa>  (31) 
-0.549661

>  <r_i_glide_ligand_efficiency_ln>  (31) 
-0.94805

>  <r_i_glide_gscore>  (31) 
-3.63408

>  <r_i_glide_lipo>  (31) 
-0.34222

>  <r_i_glide_hbond>  (31) 
-0.16

>  <r_i_glide_metal>  (31) 
-0

>  <r_i_glide_rewards>  (31) 
-1.63312

>  <r_i_glide_evdw>  (31) 
-20.404

>  <r_i_glide_ecoul>  (31) 
-2.84737

>  <r_i_glide_erotb>  (31) 
0

>  <r_i_glide_esite>  (31) 
-0.0514348

>  <r_i_glide_emodel>  (31) 
-29.4438

>  <r_i_glide_energy>  (31) 
-23.2513

>  <r_i_glide_einternal>  (31) 
0.229022

>  <r_i_glide_intrahb_reward>  (31) 
-0

>  <i_i_glide_confnum>  (31) 
2

>  <i_i_glide_posenum>  (31) 
1

>  <r_i_glide_eff_state_penalty>  (31) 
0

>  <ligand_id>  (31) 
10

>  <original_smiles>  (31) 
CS(=O)(=O)N1CC2CCOC3CCC2(C1)OC3

>  <smiles>  (31) 
[H]C1([H])OC2([H])C([H])([H])OC3(C([H])([H])N(S(=O)(=O)C([H])([H])[H])C([H])([H])C3([H])C1([H])[H])C([H])([H])C2([H])[H]

$$$$
10:0:2
     RDKit          3D

 36 38  0  0  1  0  0  0  0  0999 V2000
    4.1144   -4.0408    5.0659 C   0  0  0  0  0  0  0  0  0  0  0  0
    4.8269   -5.2854    3.9173 S   0  0  0  0  0  0  0  0  0  0  0  0
    6.1986   -5.5723    4.3588 O   0  0  0  0  0  0  0  0  0  0  0  0
    3.8676   -6.3854    3.7539 O   0  0  0  0  0  0  0  0  0  0  0  0
    4.9313   -4.4494    2.4072 N   0  0  0  0  0  0  0  0  0  0  0  0
    5.8591   -4.9197    1.3813 C   0  0  0  0  0  0  0  0  0  0  0  0
    5.5067   -4.1505    0.0901 C   0  0  2  0  0  0  0  0  0  0  0  0
    6.6938   -3.2932   -0.4201 C   0  0  0  0  0  0  0  0  0  0  0  0
    6.5291   -2.6911   -1.8255 C   0  0  0  0  0  0  0  0  0  0  0  0
    5.8124   -1.4609   -1.8978 O   0  0  0  0  0  0  0  0  0  0  0  0
    4.4224   -1.4003   -1.5678 C   0  0  1  0  0  0  0  0  0  0  0  0
    3.5702   -2.6307   -1.9340 C   0  0  0  0  0  0  0  0  0  0  0  0
    3.1414   -3.4036   -0.6795 C   0  0  0  0  0  0  0  0  0  0  0  0
    4.2216   -3.3618    0.4310 C   0  0  1  0  0  0  0  0  0  0  0  0
    3.7247   -4.0015    1.7300 C   0  0  0  0  0  0  0  0  0  0  0  0
    4.5721   -2.0258    0.8123 O   0  0  0  0  0  0  0  0  0  0  0  0
    4.2391   -0.9855   -0.0970 C   0  0  0  0  0  0  0  0  0  0  0  0
    4.0028   -4.4978    6.0486 H   0  0  0  0  0  0  0  0  0  0  0  0
    3.1405   -3.7185    4.7039 H   0  0  0  0  0  0  0  0  0  0  0  0
    4.7910   -3.1911    5.1366 H   0  0  0  0  0  0  0  0  0  0  0  0
    6.8868   -4.7746    1.7115 H   0  0  0  0  0  0  0  0  0  0  0  0
    5.6930   -5.9899    1.2378 H   0  0  0  0  0  0  0  0  0  0  0  0
    5.2775   -4.8999   -0.6693 H   0  0  0  0  0  0  0  0  0  0  0  0
    6.9596   -2.5162    0.2997 H   0  0  0  0  0  0  0  0  0  0  0  0
    7.5648   -3.9480   -0.4620 H   0  0  0  0  0  0  0  0  0  0  0  0
    7.5298   -2.4436   -2.1800 H   0  0  0  0  0  0  0  0  0  0  0  0
    6.1736   -3.4292   -2.5412 H   0  0  0  0  0  0  0  0  0  0  0  0
    4.0535   -0.5702   -2.1698 H   0  0  0  0  0  0  0  0  0  0  0  0
    2.6663   -2.3008   -2.4444 H   0  0  0  0  0  0  0  0  0  0  0  0
    4.0621   -3.2843   -2.6512 H   0  0  0  0  0  0  0  0  0  0  0  0
    2.2279   -2.9521   -0.2883 H   0  0  0  0  0  0  0  0  0  0  0  0
    2.8812   -4.4304   -0.9417 H   0  0  0  0  0  0  0  0  0  0  0  0
    3.1069   -4.8765    1.5250 H   0  0  0  0  0  0  0  0  0  0  0  0
    3.1588   -3.3072    2.3500 H   0  0  0  0  0  0  0  0  0  0  0  0
    4.8318   -0.1026    0.1366 H   0  0  0  0  0  0  0  0  0  0  0  0
    3.1964   -0.7117    0.0699 H   0  0  0  0  0  0  0  0  0  0  0  0
  1  2  1  0
  1 18  1  0
  1 19  1  0
  1 20  1  0
  2  3  2  0
  2  4  2  0
  2  5  1  0
  5 15  1  0
  5  6  1  0
  6  7  1  0
  6 21  1  0
  6 22  1  0
  7 14  1  0
  7  8  1  0
  7 23  1  6
  8  9  1  0
  8 24  1  0
  8 25  1  0
  9 10  1  0
  9 26  1  0
  9 27  1  0
 10 11  1  0
 11 17  1  0
 11 12  1  0
 11 28  1  6
 12 13  1  0
 12 29  1  0
 12 30  1  0
 13 14  1  0
 13 31  1  0
 13 32  1  0
 14 15  1  1
 14 16  1  0
 15 33  1  0
 15 34  1  0
 16 17  1  0
 17 35  1  0
 17 36  1  0
M  END
>  <i_m_ct_stereo_status>  (32) 
1

>  <s_m_source_file>  (32) 
/var/tmp/pbs.5076255.sched01/tmpvsf1hu0j/0g1dnczxv.sdf

>  <i_m_source_file_index>  (32) 
13

>  <i_lp_mmshare_version>  (32) 
48012

>  <i_f3d_flags>  (32) 
0

>  <s_epik_input>  (32) 
W0NIM11TKD1PKSg9TylOKFtDSDJdMSlbQ0gyXVtDQEBIXShbQ0BdMTIzKVtDSDJdW0NIMl1PW0NASF0oW0NIMl1PMylbQ0gyXVtDSDJdMg==

>  <s_epik_cmdline>  (32) 
J2VwaWtfcHl0aG9uJywgJy1waHQnLCAnMi4wJywgJy1waCcsICc3LjAnLCAnLXRuJywgJzgnLCAnLW1hJywgJzIwMCcsICctaW1hZScsICc8aW5maWxlLm1hZT4nLCAnLW9tYWUnLCAnPG91dGZpbGUubWFlPic=

>  <r_lp_tautomer_probability>  (32) 
1

>  <r_epik_Ionization_Penalty>  (32) 
5.92613e-09

>  <r_epik_Ionization_Penalty_Charging>  (32) 
0

>  <r_epik_Ionization_Penalty_Neutral>  (32) 
5.92613e-09

>  <r_epik_State_Penalty>  (32) 
-0

>  <r_epik_Charging_Adjusted_Penalty>  (32) 
0

>  <i_epik_Tot_Q>  (32) 
0

>  <i_epik_Tot_abs_Q>  (32) 
0

>  <s_lp_Force_Field>  (32) 
OPLS3e

>  <r_lp_Energy>  (32) 
15.2576

>  <b_lp_Chiralities_Consistent>  (32) 
1

>  <s_lp_Variant>  (32) 
10:0-1

>  <s_i_glide_gridfile>  (32) 
pfpi4k_grid

>  <i_i_glide_lignum>  (32) 
13

>  <i_i_glide_rotatable_bonds>  (32) 
1

>  <r_i_docking_score>  (32) 
-3.38622

>  <r_i_glide_ligand_efficiency>  (32) 
-0.19919

>  <r_i_glide_ligand_efficiency_sa>  (32) 
-0.512172

>  <r_i_glide_ligand_efficiency_ln>  (32) 
-0.88339

>  <r_i_glide_gscore>  (32) 
-3.38622

>  <r_i_glide_lipo>  (32) 
-0.350139

>  <r_i_glide_hbond>  (32) 
-0.0692664

>  <r_i_glide_metal>  (32) 
-0

>  <r_i_glide_rewards>  (32) 
-1.65487

>  <r_i_glide_evdw>  (32) 
-18.9004

>  <r_i_glide_ecoul>  (32) 
-2.44616

>  <r_i_glide_erotb>  (32) 
0

>  <r_i_glide_esite>  (32) 
0

>  <r_i_glide_emodel>  (32) 
-26.0857

>  <r_i_glide_energy>  (32) 
-21.3465

>  <r_i_glide_einternal>  (32) 
2.24299

>  <r_i_glide_intrahb_reward>  (32) 
-0

>  <i_i_glide_confnum>  (32) 
2

>  <i_i_glide_posenum>  (32) 
5

>  <r_i_glide_eff_state_penalty>  (32) 
0

>  <ligand_id>  (32) 
10

>  <original_smiles>  (32) 
CS(=O)(=O)N1CC2CCOC3CCC2(C1)OC3

>  <smiles>  (32) 
[H]C1([H])OC2([H])C([H])([H])OC3(C([H])([H])N(S(=O)(=O)C([H])([H])[H])C([H])([H])C3([H])C1([H])[H])C([H])([H])C2([H])[H]

$$$$
11:0:0
     RDKit          3D

 62 67  0  0  1  0  0  0  0  0999 V2000
    5.1769   -0.7346    2.9251 C   0  0  0  0  0  0  0  0  0  0  0  0
    4.5525   -1.4191    1.6837 C   0  0  2  0  0  0  0  0  0  0  0  0
    3.7595   -2.7090    1.9828 C   0  0  1  0  0  0  0  0  0  0  0  0
    2.8683   -2.8285    3.2416 C   0  0  0  0  0  0  0  0  0  0  0  0
    2.8600   -4.2345    3.9240 C   0  0  0  0  0  0  0  0  0  0  0  0
    2.1904   -5.4629    3.1946 C   0  0  2  0  0  0  0  0  0  0  0  0
    1.4348   -6.4294    4.1958 C   0  0  0  0  0  0  0  0  0  0  0  0
    2.3602   -7.0576    5.2639 C   0  0  0  0  0  0  0  0  0  0  0  0
    0.2983   -5.6596    4.9419 C   0  0  0  0  0  0  0  0  0  0  0  0
    0.7719   -7.5895    3.4143 C   0  0  0  0  0  0  0  0  0  0  0  0
   -0.3128   -8.0441    3.7686 O   0  0  0  0  0  0  0  0  0  0  0  0
    1.4780   -8.1597    2.2685 C   0  0  0  0  0  0  0  0  0  0  0  0
    2.5179   -7.5312    1.6964 C   0  0  0  0  0  0  0  0  0  0  0  0
    3.1081   -6.1678    2.0683 C   0  0  2  0  0  0  0  0  0  0  0  0
    4.4970   -6.5650    2.6191 C   0  0  0  0  0  0  0  0  0  0  0  0
    3.1152   -5.3341    0.6983 C   0  0  1  0  0  0  0  0  0  0  0  0
    2.2249   -4.2461    0.8282 O   0  0  0  0  0  0  0  0  0  0  0  0
    2.9452   -3.0539    0.6870 C   0  0  2  0  0  0  0  0  0  0  0  0
    3.7929   -3.3356   -0.5527 C   0  0  2  0  0  0  0  0  0  0  0  0
    2.9032   -3.3762   -1.8171 C   0  0  0  0  0  0  0  0  0  0  0  0
    4.3268   -4.7444   -0.1533 C   0  0  1  0  0  0  0  0  0  0  0  0
    5.7560   -4.6154    0.4256 C   0  0  0  0  0  0  0  0  0  0  0  0
    5.9003   -3.3764    1.3157 C   0  0  2  0  0  0  0  0  0  0  0  0
    4.8793   -3.5348    2.2685 O   0  0  0  0  0  0  0  0  0  0  0  0
    5.5829   -2.0038    0.6691 C   0  0  2  0  0  0  0  0  0  0  0  0
    6.8441   -1.1398    0.4920 C   0  0  0  0  0  0  0  0  0  0  0  0
    4.8561   -2.2134   -0.6906 C   0  0  1  0  0  0  0  0  0  0  0  0
    5.7495   -2.4862   -1.7610 O   0  0  0  0  0  0  0  0  0  0  0  0
    5.8067   -1.4172    3.4962 H   0  0  0  0  0  0  0  0  0  0  0  0
    4.4082   -0.3438    3.5898 H   0  0  0  0  0  0  0  0  0  0  0  0
    5.7877    0.1244    2.6476 H   0  0  0  0  0  0  0  0  0  0  0  0
    3.9130   -0.6787    1.2008 H   0  0  0  0  0  0  0  0  0  0  0  0
    3.2230   -2.1397    4.0045 H   0  0  0  0  0  0  0  0  0  0  0  0
    1.8521   -2.5064    3.0165 H   0  0  0  0  0  0  0  0  0  0  0  0
    3.8615   -4.4975    4.2597 H   0  0  0  0  0  0  0  0  0  0  0  0
    2.3524   -4.0592    4.8655 H   0  0  0  0  0  0  0  0  0  0  0  0
    1.3268   -5.0397    2.6902 H   0  0  0  0  0  0  0  0  0  0  0  0
    3.0515   -6.3317    5.6975 H   0  0  0  0  0  0  0  0  0  0  0  0
    2.9461   -7.8885    4.8698 H   0  0  0  0  0  0  0  0  0  0  0  0
    1.7760   -7.4731    6.0869 H   0  0  0  0  0  0  0  0  0  0  0  0
    0.6650   -4.9541    5.6877 H   0  0  0  0  0  0  0  0  0  0  0  0
   -0.3661   -6.3254    5.4957 H   0  0  0  0  0  0  0  0  0  0  0  0
   -0.3202   -5.1053    4.2367 H   0  0  0  0  0  0  0  0  0  0  0  0
    1.1528   -9.1241    1.9051 H   0  0  0  0  0  0  0  0  0  0  0  0
    3.0184   -8.0352    0.8793 H   0  0  0  0  0  0  0  0  0  0  0  0
    5.1164   -5.7355    2.9415 H   0  0  0  0  0  0  0  0  0  0  0  0
    5.0608   -7.1423    1.8843 H   0  0  0  0  0  0  0  0  0  0  0  0
    4.4152   -7.2123    3.4881 H   0  0  0  0  0  0  0  0  0  0  0  0
    2.5864   -5.9422   -0.0342 H   0  0  0  0  0  0  0  0  0  0  0  0
    2.2311   -2.2535    0.4966 H   0  0  0  0  0  0  0  0  0  0  0  0
    3.4814   -3.6518   -2.6997 H   0  0  0  0  0  0  0  0  0  0  0  0
    2.4415   -2.4085   -2.0187 H   0  0  0  0  0  0  0  0  0  0  0  0
    2.0931   -4.0989   -1.7250 H   0  0  0  0  0  0  0  0  0  0  0  0
    4.4391   -5.3589   -1.0496 H   0  0  0  0  0  0  0  0  0  0  0  0
    6.0687   -5.5173    0.9359 H   0  0  0  0  0  0  0  0  0  0  0  0
    6.4757   -4.5354   -0.3855 H   0  0  0  0  0  0  0  0  0  0  0  0
    6.8671   -3.3829    1.8163 H   0  0  0  0  0  0  0  0  0  0  0  0
    7.5509   -1.5866   -0.2062 H   0  0  0  0  0  0  0  0  0  0  0  0
    7.3853   -1.0369    1.4303 H   0  0  0  0  0  0  0  0  0  0  0  0
    6.5867   -0.1438    0.1317 H   0  0  0  0  0  0  0  0  0  0  0  0
    4.3619   -1.2777   -0.9649 H   0  0  0  0  0  0  0  0  0  0  0  0
    6.0624   -3.3749   -1.6709 H   0  0  0  0  0  0  0  0  0  0  0  0
  1  2  1  0
  1 29  1  0
  1 30  1  0
  1 31  1  0
  2 25  1  0
  2  3  1  0
  2 32  1  6
  3 18  1  0
  3 24  1  1
  3  4  1  0
  4  5  1  0
  4 33  1  0
  4 34  1  0
  5  6  1  0
  5 35  1  0
  5 36  1  0
  6 14  1  0
  6  7  1  0
  6 37  1  6
  7  8  1  0
  7  9  1  0
  7 10  1  0
  8 38  1  0
  8 39  1  0
  8 40  1  0
  9 41  1  0
  9 42  1  0
  9 43  1  0
 10 11  2  0
 10 12  1  0
 12 13  2  0
 12 44  1  0
 13 14  1  0
 13 45  1  0
 14 15  1  1
 14 16  1  0
 15 46  1  0
 15 47  1  0
 15 48  1  0
 16 21  1  0
 16 17  1  0
 16 49  1  6
 17 18  1  0
 18 19  1  0
 18 50  1  6
 19 27  1  0
 19 20  1  6
 19 21  1  0
 20 51  1  0
 20 52  1  0
 20 53  1  0
 21 22  1  0
 21 54  1  6
 22 23  1  0
 22 55  1  0
 22 56  1  0
 23 24  1  0
 23 25  1  0
 23 57  1  1
 25 26  1  6
 25 27  1  0
 26 58  1  0
 26 59  1  0
 26 60  1  0
 27 28  1  0
 27 61  1  6
 28 62  1  0
M  END
>  <i_m_ct_stereo_status>  (33) 
1

>  <s_m_source_file>  (33) 
/var/tmp/pbs.5076255.sched01/tmpvsf1hu0j/0g1dnczxv.sdf

>  <i_m_source_file_index>  (33) 
14

>  <i_lp_mmshare_version>  (33) 
48012

>  <i_f3d_flags>  (33) 
0

>  <s_epik_input>  (33) 
W0NIM11bQ0BIXTFbQ0BdKFtDSDNdKShbQ0BIXTJbT0hdKVtDQEBIXShPMylbQ0gyXVtDQEhdKFtDQF0yKFtDQEBIXTRbQ0BdMTM1KVtDSDNdKVtDQEhdKE80KVtDQEBdNihbQ0gzXSlbQ0BIXShbQ0gyXVtDSDJdNSlDKFtDSDNdKShbQ0gzXSlDKD1PKVtDSF09W0NIXTY=

>  <s_epik_cmdline>  (33) 
J2VwaWtfcHl0aG9uJywgJy1waHQnLCAnMi4wJywgJy1waCcsICc3LjAnLCAnLXRuJywgJzgnLCAnLW1hJywgJzIwMCcsICctaW1hZScsICc8aW5maWxlLm1hZT4nLCAnLW9tYWUnLCAnPG91dGZpbGUubWFlPic=

>  <r_lp_tautomer_probability>  (33) 
1

>  <r_epik_Ionization_Penalty>  (33) 
6.70569e-08

>  <r_epik_Ionization_Penalty_Charging>  (33) 
0

>  <r_epik_Ionization_Penalty_Neutral>  (33) 
6.70569e-08

>  <r_epik_State_Penalty>  (33) 
-0

>  <r_epik_Charging_Adjusted_Penalty>  (33) 
0

>  <i_epik_Tot_Q>  (33) 
0

>  <i_epik_Tot_abs_Q>  (33) 
0

>  <s_lp_Force_Field>  (33) 
OPLS3e

>  <r_lp_Energy>  (33) 
83.3731

>  <b_lp_Chiralities_Consistent>  (33) 
1

>  <s_lp_Variant>  (33) 
11:0-1

>  <s_i_glide_gridfile>  (33) 
pfpi4k_grid

>  <i_i_glide_lignum>  (33) 
14

>  <i_i_glide_rotatable_bonds>  (33) 
1

>  <r_i_docking_score>  (33) 
-2.99806

>  <r_i_glide_ligand_efficiency>  (33) 
-0.107074

>  <r_i_glide_ligand_efficiency_sa>  (33) 
-0.325138

>  <r_i_glide_ligand_efficiency_ln>  (33) 
-0.69204

>  <r_i_glide_gscore>  (33) 
-2.99806

>  <r_i_glide_lipo>  (33) 
-0.567037

>  <r_i_glide_hbond>  (33) 
-0.000882199

>  <r_i_glide_metal>  (33) 
-0

>  <r_i_glide_rewards>  (33) 
-0.773698

>  <r_i_glide_evdw>  (33) 
-26.7528

>  <r_i_glide_ecoul>  (33) 
-1.96439

>  <r_i_glide_erotb>  (33) 
0

>  <r_i_glide_esite>  (33) 
-0.0241413

>  <r_i_glide_emodel>  (33) 
-34.1476

>  <r_i_glide_energy>  (33) 
-28.7172

>  <r_i_glide_einternal>  (33) 
0.101992

>  <r_i_glide_intrahb_reward>  (33) 
-0

>  <i_i_glide_confnum>  (33) 
2

>  <i_i_glide_posenum>  (33) 
16

>  <r_i_glide_eff_state_penalty>  (33) 
0

>  <ligand_id>  (33) 
11

>  <original_smiles>  (33) 
CC1C23CCC4C(C)(C)C(=O)C=CC4(C)C4OC2C2(C)C4CC(O3)C1(C)C2O

>  <smiles>  (33) 
[H]OC1([H])C2(C([H])([H])[H])C3([H])OC4([H])C2([H])C([H])([H])C2([H])OC3(C([H])([H])C([H])([H])C3([H])C(C([H])([H])[H])(C([H])([H])[H])C(=O)C([H])=C([H])C43C([H])([H])[H])C([H])(C([H])([H])[H])C21C([H])([H])[H]

$$$$
11:0:1
     RDKit          3D

 62 67  0  0  1  0  0  0  0  0999 V2000
    5.1490   -0.8108    3.0221 C   0  0  0  0  0  0  0  0  0  0  0  0
    4.5371   -1.4889    1.7701 C   0  0  2  0  0  0  0  0  0  0  0  0
    3.7449   -2.7836    2.0518 C   0  0  1  0  0  0  0  0  0  0  0  0
    2.8385   -2.9112    3.2999 C   0  0  0  0  0  0  0  0  0  0  0  0
    2.8253   -4.3251    3.9710 C   0  0  0  0  0  0  0  0  0  0  0  0
    2.1658   -5.5493    3.2254 C   0  0  2  0  0  0  0  0  0  0  0  0
    1.3987   -6.5240    4.2109 C   0  0  0  0  0  0  0  0  0  0  0  0
    2.3152   -7.1561    5.2866 C   0  0  0  0  0  0  0  0  0  0  0  0
    0.2542   -5.7608    4.9532 C   0  0  0  0  0  0  0  0  0  0  0  0
    0.7523   -7.6797    3.4130 C   0  0  0  0  0  0  0  0  0  0  0  0
   -0.3393   -8.1361    3.7544 O   0  0  0  0  0  0  0  0  0  0  0  0
    1.4700   -8.2396    2.2708 C   0  0  0  0  0  0  0  0  0  0  0  0
    2.5115   -7.6057    1.7118 C   0  0  0  0  0  0  0  0  0  0  0  0
    3.0936   -6.2460    2.1042 C   0  0  2  0  0  0  0  0  0  0  0  0
    4.4812   -6.6427    2.6674 C   0  0  0  0  0  0  0  0  0  0  0  0
    3.1185   -5.3979    0.7446 C   0  0  1  0  0  0  0  0  0  0  0  0
    2.2263   -4.3145    0.8705 O   0  0  0  0  0  0  0  0  0  0  0  0
    2.9451   -3.1196    0.7469 C   0  0  2  0  0  0  0  0  0  0  0  0
    3.8042   -3.3936   -0.4860 C   0  0  2  0  0  0  0  0  0  0  0  0
    2.9272   -3.4254   -1.7595 C   0  0  0  0  0  0  0  0  0  0  0  0
    4.3350   -4.8025   -0.0922 C   0  0  1  0  0  0  0  0  0  0  0  0
    5.7610   -4.6724    0.4951 C   0  0  0  0  0  0  0  0  0  0  0  0
    5.8927   -3.4414    1.3997 C   0  0  2  0  0  0  0  0  0  0  0  0
    4.8628   -3.6096    2.3413 O   0  0  0  0  0  0  0  0  0  0  0  0
    5.5792   -2.0635    0.7624 C   0  0  2  0  0  0  0  0  0  0  0  0
    6.8379   -1.1886    0.6045 C   0  0  0  0  0  0  0  0  0  0  0  0
    4.8649   -2.2658   -0.6043 C   0  0  1  0  0  0  0  0  0  0  0  0
    5.7632   -2.5316   -1.6705 O   0  0  0  0  0  0  0  0  0  0  0  0
    5.7775   -1.4971    3.5915 H   0  0  0  0  0  0  0  0  0  0  0  0
    4.3745   -0.4327    3.6864 H   0  0  0  0  0  0  0  0  0  0  0  0
    5.7572    0.0528    2.7558 H   0  0  0  0  0  0  0  0  0  0  0  0
    3.9018   -0.7463    1.2884 H   0  0  0  0  0  0  0  0  0  0  0  0
    3.1835   -2.2289    4.0714 H   0  0  0  0  0  0  0  0  0  0  0  0
    1.8251   -2.5905    3.0650 H   0  0  0  0  0  0  0  0  0  0  0  0
    3.8228   -4.5873    4.3154 H   0  0  0  0  0  0  0  0  0  0  0  0
    2.3066   -4.1557    4.9086 H   0  0  0  0  0  0  0  0  0  0  0  0
    1.3061   -5.1243    2.7158 H   0  0  0  0  0  0  0  0  0  0  0  0
    3.0002   -6.4327    5.7323 H   0  0  0  0  0  0  0  0  0  0  0  0
    2.9058   -7.9836    4.8927 H   0  0  0  0  0  0  0  0  0  0  0  0
    1.7223   -7.5782    6.0998 H   0  0  0  0  0  0  0  0  0  0  0  0
    0.6115   -5.0587    5.7065 H   0  0  0  0  0  0  0  0  0  0  0  0
   -0.4130   -6.4314    5.4959 H   0  0  0  0  0  0  0  0  0  0  0  0
   -0.3624   -5.2041    4.2450 H   0  0  0  0  0  0  0  0  0  0  0  0
    1.1448   -9.1994    1.8989 H   0  0  0  0  0  0  0  0  0  0  0  0
    3.0136   -8.0952    0.8851 H   0  0  0  0  0  0  0  0  0  0  0  0
    5.0939   -5.8147    3.0018 H   0  0  0  0  0  0  0  0  0  0  0  0
    5.0527   -7.2129    1.9350 H   0  0  0  0  0  0  0  0  0  0  0  0
    4.3900   -7.2962    3.5313 H   0  0  0  0  0  0  0  0  0  0  0  0
    2.5967   -6.0023    0.0001 H   0  0  0  0  0  0  0  0  0  0  0  0
    2.2313   -2.3185    0.5530 H   0  0  0  0  0  0  0  0  0  0  0  0
    3.5070   -3.6999   -2.6408 H   0  0  0  0  0  0  0  0  0  0  0  0
    2.4650   -2.4570   -1.9590 H   0  0  0  0  0  0  0  0  0  0  0  0
    2.1158   -4.1484   -1.6756 H   0  0  0  0  0  0  0  0  0  0  0  0
    4.4597   -5.4132   -0.9884 H   0  0  0  0  0  0  0  0  0  0  0  0
    6.0730   -5.5783    0.9996 H   0  0  0  0  0  0  0  0  0  0  0  0
    6.4786   -4.5814   -0.3178 H   0  0  0  0  0  0  0  0  0  0  0  0
    6.8527   -3.4507    1.9121 H   0  0  0  0  0  0  0  0  0  0  0  0
    7.5567   -1.6358   -0.0843 H   0  0  0  0  0  0  0  0  0  0  0  0
    7.3676   -1.0582    1.5472 H   0  0  0  0  0  0  0  0  0  0  0  0
    6.5775   -0.1972    0.2341 H   0  0  0  0  0  0  0  0  0  0  0  0
    4.3680   -1.3354   -0.8795 H   0  0  0  0  0  0  0  0  0  0  0  0
    5.2597   -2.8034   -2.4190 H   0  0  0  0  0  0  0  0  0  0  0  0
  1  2  1  0
  1 29  1  0
  1 30  1  0
  1 31  1  0
  2 25  1  0
  2  3  1  0
  2 32  1  6
  3 18  1  0
  3 24  1  1
  3  4  1  0
  4  5  1  0
  4 33  1  0
  4 34  1  0
  5  6  1  0
  5 35  1  0
  5 36  1  0
  6 14  1  0
  6  7  1  0
  6 37  1  6
  7  8  1  0
  7  9  1  0
  7 10  1  0
  8 38  1  0
  8 39  1  0
  8 40  1  0
  9 41  1  0
  9 42  1  0
  9 43  1  0
 10 11  2  0
 10 12  1  0
 12 13  2  0
 12 44  1  0
 13 14  1  0
 13 45  1  0
 14 15  1  1
 14 16  1  0
 15 46  1  0
 15 47  1  0
 15 48  1  0
 16 21  1  0
 16 17  1  0
 16 49  1  6
 17 18  1  0
 18 19  1  0
 18 50  1  6
 19 27  1  0
 19 20  1  6
 19 21  1  0
 20 51  1  0
 20 52  1  0
 20 53  1  0
 21 22  1  0
 21 54  1  6
 22 23  1  0
 22 55  1  0
 22 56  1  0
 23 24  1  0
 23 25  1  0
 23 57  1  1
 25 26  1  6
 25 27  1  0
 26 58  1  0
 26 59  1  0
 26 60  1  0
 27 28  1  0
 27 61  1  6
 28 62  1  0
M  END
>  <i_m_ct_stereo_status>  (34) 
1

>  <s_m_source_file>  (34) 
/var/tmp/pbs.5076255.sched01/tmpvsf1hu0j/0g1dnczxv.sdf

>  <i_m_source_file_index>  (34) 
14

>  <i_lp_mmshare_version>  (34) 
48012

>  <i_f3d_flags>  (34) 
0

>  <s_epik_input>  (34) 
W0NIM11bQ0BIXTFbQ0BdKFtDSDNdKShbQ0BIXTJbT0hdKVtDQEBIXShPMylbQ0gyXVtDQEhdKFtDQF0yKFtDQEBIXTRbQ0BdMTM1KVtDSDNdKVtDQEhdKE80KVtDQEBdNihbQ0gzXSlbQ0BIXShbQ0gyXVtDSDJdNSlDKFtDSDNdKShbQ0gzXSlDKD1PKVtDSF09W0NIXTY=

>  <s_epik_cmdline>  (34) 
J2VwaWtfcHl0aG9uJywgJy1waHQnLCAnMi4wJywgJy1waCcsICc3LjAnLCAnLXRuJywgJzgnLCAnLW1hJywgJzIwMCcsICctaW1hZScsICc8aW5maWxlLm1hZT4nLCAnLW9tYWUnLCAnPG91dGZpbGUubWFlPic=

>  <r_lp_tautomer_probability>  (34) 
1

>  <r_epik_Ionization_Penalty>  (34) 
6.70569e-08

>  <r_epik_Ionization_Penalty_Charging>  (34) 
0

>  <r_epik_Ionization_Penalty_Neutral>  (34) 
6.70569e-08

>  <r_epik_State_Penalty>  (34) 
-0

>  <r_epik_Charging_Adjusted_Penalty>  (34) 
0

>  <i_epik_Tot_Q>  (34) 
0

>  <i_epik_Tot_abs_Q>  (34) 
0

>  <s_lp_Force_Field>  (34) 
OPLS3e

>  <r_lp_Energy>  (34) 
83.3731

>  <b_lp_Chiralities_Consistent>  (34) 
1

>  <s_lp_Variant>  (34) 
11:0-1

>  <s_i_glide_gridfile>  (34) 
pfpi4k_grid

>  <i_i_glide_lignum>  (34) 
14

>  <i_i_glide_rotatable_bonds>  (34) 
1

>  <r_i_docking_score>  (34) 
-2.98039

>  <r_i_glide_ligand_efficiency>  (34) 
-0.106443

>  <r_i_glide_ligand_efficiency_sa>  (34) 
-0.323223

>  <r_i_glide_ligand_efficiency_ln>  (34) 
-0.687963

>  <r_i_glide_gscore>  (34) 
-2.98039

>  <r_i_glide_lipo>  (34) 
-0.554965

>  <r_i_glide_hbond>  (34) 
-0.00269191

>  <r_i_glide_metal>  (34) 
-0

>  <r_i_glide_rewards>  (34) 
-0.773698

>  <r_i_glide_evdw>  (34) 
-26.5788

>  <r_i_glide_ecoul>  (34) 
-1.9731

>  <r_i_glide_erotb>  (34) 
0

>  <r_i_glide_esite>  (34) 
-0.0241328

>  <r_i_glide_emodel>  (34) 
-33.7866

>  <r_i_glide_energy>  (34) 
-28.5519

>  <r_i_glide_einternal>  (34) 
0.457733

>  <r_i_glide_intrahb_reward>  (34) 
-0

>  <i_i_glide_confnum>  (34) 
2

>  <i_i_glide_posenum>  (34) 
32

>  <r_i_glide_eff_state_penalty>  (34) 
0

>  <ligand_id>  (34) 
11

>  <original_smiles>  (34) 
CC1C23CCC4C(C)(C)C(=O)C=CC4(C)C4OC2C2(C)C4CC(O3)C1(C)C2O

>  <smiles>  (34) 
[H]OC1([H])C2(C([H])([H])[H])C3([H])OC4([H])C2([H])C([H])([H])C2([H])OC3(C([H])([H])C([H])([H])C3([H])C(C([H])([H])[H])(C([H])([H])[H])C(=O)C([H])=C([H])C43C([H])([H])[H])C([H])(C([H])([H])[H])C21C([H])([H])[H]

$$$$
11:0:2
     RDKit          3D

 62 67  0  0  1  0  0  0  0  0999 V2000
    4.3217   -0.9775    3.5644 C   0  0  0  0  0  0  0  0  0  0  0  0
    3.8359   -1.6290    2.2437 C   0  0  2  0  0  0  0  0  0  0  0  0
    3.5278   -3.1362    2.3358 C   0  0  1  0  0  0  0  0  0  0  0  0
    2.8315   -3.7342    3.5818 C   0  0  0  0  0  0  0  0  0  0  0  0
    3.3293   -5.1570    4.0036 C   0  0  0  0  0  0  0  0  0  0  0  0
    3.0187   -6.4043    3.0882 C   0  0  2  0  0  0  0  0  0  0  0  0
    2.6978   -7.7111    3.9241 C   0  0  0  0  0  0  0  0  0  0  0  0
    3.8677   -8.1587    4.8347 C   0  0  0  0  0  0  0  0  0  0  0  0
    1.4456   -7.4824    4.8317 C   0  0  0  0  0  0  0  0  0  0  0  0
    2.3817   -8.8903    2.9726 C   0  0  0  0  0  0  0  0  0  0  0  0
    1.5482   -9.7369    3.2897 O   0  0  0  0  0  0  0  0  0  0  0  0
    3.1230   -9.0059    1.7228 C   0  0  0  0  0  0  0  0  0  0  0  0
    3.8515   -7.9894    1.2390 C   0  0  0  0  0  0  0  0  0  0  0  0
    4.0045   -6.5851    1.8264 C   0  0  2  0  0  0  0  0  0  0  0  0
    5.4952   -6.5813    2.2473 C   0  0  0  0  0  0  0  0  0  0  0  0
    3.6196   -5.5856    0.6319 C   0  0  1  0  0  0  0  0  0  0  0  0
    2.4440   -4.8778    0.9772 O   0  0  0  0  0  0  0  0  0  0  0  0
    2.7459   -3.5098    1.0281 C   0  0  2  0  0  0  0  0  0  0  0  0
    3.5234   -3.3113   -0.2731 C   0  0  2  0  0  0  0  0  0  0  0  0
    2.5884   -3.4464   -1.4971 C   0  0  0  0  0  0  0  0  0  0  0  0
    4.5033   -4.5147   -0.1515 C   0  0  1  0  0  0  0  0  0  0  0  0
    5.8681   -4.0117    0.3856 C   0  0  0  0  0  0  0  0  0  0  0  0
    5.6921   -2.9516    1.4826 C   0  0  2  0  0  0  0  0  0  0  0  0
    4.8696   -3.5839    2.4292 O   0  0  0  0  0  0  0  0  0  0  0  0
    4.8986   -1.6768    1.1041 C   0  0  2  0  0  0  0  0  0  0  0  0
    5.7875   -0.4241    1.0469 C   0  0  0  0  0  0  0  0  0  0  0  0
    4.1601   -1.8976   -0.2466 C   0  0  1  0  0  0  0  0  0  0  0  0
    4.9882   -1.6935   -1.3810 O   0  0  0  0  0  0  0  0  0  0  0  0
    5.1896   -1.4920    3.9815 H   0  0  0  0  0  0  0  0  0  0  0  0
    3.5366   -0.9758    4.3182 H   0  0  0  0  0  0  0  0  0  0  0  0
    4.5914    0.0689    3.4210 H   0  0  0  0  0  0  0  0  0  0  0  0
    2.9540   -1.0718    1.9256 H   0  0  0  0  0  0  0  0  0  0  0  0
    3.0163   -3.0984    4.4434 H   0  0  0  0  0  0  0  0  0  0  0  0
    1.7513   -3.7314    3.4512 H   0  0  0  0  0  0  0  0  0  0  0  0
    4.3877   -5.1255    4.2526 H   0  0  0  0  0  0  0  0  0  0  0  0
    2.8784   -5.3067    4.9789 H   0  0  0  0  0  0  0  0  0  0  0  0
    2.0237   -6.2144    2.6955 H   0  0  0  0  0  0  0  0  0  0  0  0
    4.3310   -7.3254    5.3651 H   0  0  0  0  0  0  0  0  0  0  0  0
    4.6476   -8.6783    4.2781 H   0  0  0  0  0  0  0  0  0  0  0  0
    3.5232   -8.8681    5.5891 H   0  0  0  0  0  0  0  0  0  0  0  0
    1.6337   -6.8211    5.6774 H   0  0  0  0  0  0  0  0  0  0  0  0
    1.0835   -8.4074    5.2824 H   0  0  0  0  0  0  0  0  0  0  0  0
    0.6115   -7.0655    4.2590 H   0  0  0  0  0  0  0  0  0  0  0  0
    3.0856   -9.9553    1.2076 H   0  0  0  0  0  0  0  0  0  0  0  0
    4.3939   -8.1559    0.3164 H   0  0  0  0  0  0  0  0  0  0  0  0
    5.8480   -5.6587    2.6917 H   0  0  0  0  0  0  0  0  0  0  0  0
    6.1429   -6.8200    1.4033 H   0  0  0  0  0  0  0  0  0  0  0  0
    5.7018   -7.3487    2.9893 H   0  0  0  0  0  0  0  0  0  0  0  0
    3.2538   -6.2168   -0.1783 H   0  0  0  0  0  0  0  0  0  0  0  0
    1.8132   -2.9447    1.0069 H   0  0  0  0  0  0  0  0  0  0  0  0
    3.1373   -3.4000   -2.4378 H   0  0  0  0  0  0  0  0  0  0  0  0
    1.8429   -2.6633   -1.5224 H   0  0  0  0  0  0  0  0  0  0  0  0
    2.0307   -4.3773   -1.4889 H   0  0  0  0  0  0  0  0  0  0  0  0
    4.7102   -4.9209   -1.1442 H   0  0  0  0  0  0  0  0  0  0  0  0
    6.4984   -4.8282    0.7165 H   0  0  0  0  0  0  0  0  0  0  0  0
    6.4374   -3.5716   -0.4316 H   0  0  0  0  0  0  0  0  0  0  0  0
    6.6441   -2.7145    1.9493 H   0  0  0  0  0  0  0  0  0  0  0  0
    6.5381   -0.4913    0.2586 H   0  0  0  0  0  0  0  0  0  0  0  0
    6.3336   -0.2894    1.9788 H   0  0  0  0  0  0  0  0  0  0  0  0
    5.1947    0.4738    0.8705 H   0  0  0  0  0  0  0  0  0  0  0  0
    3.3724   -1.1471   -0.3321 H   0  0  0  0  0  0  0  0  0  0  0  0
    4.4443   -1.7856   -2.1512 H   0  0  0  0  0  0  0  0  0  0  0  0
  1  2  1  0
  1 29  1  0
  1 30  1  0
  1 31  1  0
  2 25  1  0
  2  3  1  0
  2 32  1  6
  3 18  1  0
  3 24  1  6
  3  4  1  0
  4  5  1  0
  4 33  1  0
  4 34  1  0
  5  6  1  0
  5 35  1  0
  5 36  1  0
  6 14  1  0
  6  7  1  0
  6 37  1  6
  7  8  1  0
  7  9  1  0
  7 10  1  0
  8 38  1  0
  8 39  1  0
  8 40  1  0
  9 41  1  0
  9 42  1  0
  9 43  1  0
 10 11  2  0
 10 12  1  0
 12 13  2  0
 12 44  1  0
 13 14  1  0
 13 45  1  0
 14 15  1  1
 14 16  1  0
 15 46  1  0
 15 47  1  0
 15 48  1  0
 16 21  1  0
 16 17  1  0
 16 49  1  6
 17 18  1  0
 18 19  1  0
 18 50  1  6
 19 27  1  0
 19 20  1  6
 19 21  1  0
 20 51  1  0
 20 52  1  0
 20 53  1  0
 21 22  1  0
 21 54  1  6
 22 23  1  0
 22 55  1  0
 22 56  1  0
 23 24  1  0
 23 25  1  0
 23 57  1  1
 25 26  1  6
 25 27  1  0
 26 58  1  0
 26 59  1  0
 26 60  1  0
 27 28  1  0
 27 61  1  6
 28 62  1  0
M  END
>  <i_m_ct_stereo_status>  (35) 
1

>  <s_m_source_file>  (35) 
/var/tmp/pbs.5076255.sched01/tmpvsf1hu0j/0g1dnczxv.sdf

>  <i_m_source_file_index>  (35) 
14

>  <i_lp_mmshare_version>  (35) 
48012

>  <i_f3d_flags>  (35) 
0

>  <s_epik_input>  (35) 
W0NIM11bQ0BIXTFbQ0BdKFtDSDNdKShbQ0BIXTJbT0hdKVtDQEBIXShPMylbQ0gyXVtDQEhdKFtDQF0yKFtDQEBIXTRbQ0BdMTM1KVtDSDNdKVtDQEhdKE80KVtDQEBdNihbQ0gzXSlbQ0BIXShbQ0gyXVtDSDJdNSlDKFtDSDNdKShbQ0gzXSlDKD1PKVtDSF09W0NIXTY=

>  <s_epik_cmdline>  (35) 
J2VwaWtfcHl0aG9uJywgJy1waHQnLCAnMi4wJywgJy1waCcsICc3LjAnLCAnLXRuJywgJzgnLCAnLW1hJywgJzIwMCcsICctaW1hZScsICc8aW5maWxlLm1hZT4nLCAnLW9tYWUnLCAnPG91dGZpbGUubWFlPic=

>  <r_lp_tautomer_probability>  (35) 
1

>  <r_epik_Ionization_Penalty>  (35) 
6.70569e-08

>  <r_epik_Ionization_Penalty_Charging>  (35) 
0

>  <r_epik_Ionization_Penalty_Neutral>  (35) 
6.70569e-08

>  <r_epik_State_Penalty>  (35) 
-0

>  <r_epik_Charging_Adjusted_Penalty>  (35) 
0

>  <i_epik_Tot_Q>  (35) 
0

>  <i_epik_Tot_abs_Q>  (35) 
0

>  <s_lp_Force_Field>  (35) 
OPLS3e

>  <r_lp_Energy>  (35) 
83.3731

>  <b_lp_Chiralities_Consistent>  (35) 
1

>  <s_lp_Variant>  (35) 
11:0-1

>  <s_i_glide_gridfile>  (35) 
pfpi4k_grid

>  <i_i_glide_lignum>  (35) 
14

>  <i_i_glide_rotatable_bonds>  (35) 
1

>  <r_i_docking_score>  (35) 
-2.83989

>  <r_i_glide_ligand_efficiency>  (35) 
-0.101425

>  <r_i_glide_ligand_efficiency_sa>  (35) 
-0.307985

>  <r_i_glide_ligand_efficiency_ln>  (35) 
-0.655529

>  <r_i_glide_gscore>  (35) 
-2.83989

>  <r_i_glide_lipo>  (35) 
-0.500184

>  <r_i_glide_hbond>  (35) 
0

>  <r_i_glide_metal>  (35) 
-0

>  <r_i_glide_rewards>  (35) 
-0.773698

>  <r_i_glide_evdw>  (35) 
-25.551

>  <r_i_glide_ecoul>  (35) 
-1.8926

>  <r_i_glide_erotb>  (35) 
0

>  <r_i_glide_esite>  (35) 
-0.00456762

>  <r_i_glide_emodel>  (35) 
-32.5031

>  <r_i_glide_energy>  (35) 
-27.4436

>  <r_i_glide_einternal>  (35) 
0.327865

>  <r_i_glide_intrahb_reward>  (35) 
-0

>  <i_i_glide_confnum>  (35) 
2

>  <i_i_glide_posenum>  (35) 
19

>  <r_i_glide_eff_state_penalty>  (35) 
0

>  <ligand_id>  (35) 
11

>  <original_smiles>  (35) 
CC1C23CCC4C(C)(C)C(=O)C=CC4(C)C4OC2C2(C)C4CC(O3)C1(C)C2O

>  <smiles>  (35) 
[H]OC1([H])C2(C([H])([H])[H])C3([H])OC4([H])C2([H])C([H])([H])C2([H])OC3(C([H])([H])C([H])([H])C3([H])C(C([H])([H])[H])(C([H])([H])[H])C(=O)C([H])=C([H])C43C([H])([H])[H])C([H])(C([H])([H])[H])C21C([H])([H])[H]

$$$$
12:0:0
     RDKit          3D

 20 22  0  0  1  0  0  0  0  0999 V2000
    5.7873  -10.2017    2.4748 C   0  0  0  0  0  0  0  0  0  0  0  0
    4.8642  -10.9832    3.2186 O   0  0  0  0  0  0  0  0  0  0  0  0
    3.5261  -10.6583    3.1740 C   0  0  0  0  0  0  0  0  0  0  0  0
    2.6374  -11.5372    3.8121 C   0  0  0  0  0  0  0  0  0  0  0  0
    1.2696  -11.2528    3.7929 C   0  0  0  0  0  0  0  0  0  0  0  0
    0.8284  -10.0883    3.1435 C   0  0  0  0  0  0  0  0  0  0  0  0
   -0.4888   -9.7588    3.0924 N   0  0  0  0  0  0  0  0  0  0  0  0
   -0.9098   -8.6357    2.4927 N   0  0  0  0  0  0  0  0  0  0  0  0
    0.0158   -7.8278    1.9213 C   0  0  0  0  0  0  0  0  0  0  0  0
   -0.1518   -6.6696    1.2821 N   0  0  0  0  0  0  0  0  0  0  0  0
    1.1521   -6.3012    0.8941 N   0  0  0  0  0  0  0  0  0  0  0  0
    2.0563   -7.1550    1.3008 N   0  0  0  0  0  0  0  0  0  0  0  0
    1.3165   -8.0834    1.9164 N   0  0  0  0  0  0  0  0  0  0  0  0
    1.7879   -9.2367    2.5304 C   0  0  0  0  0  0  0  0  0  0  0  0
    3.1373   -9.5186    2.5449 N   0  0  0  0  0  0  0  0  0  0  0  0
    6.7912  -10.6024    2.6192 H   0  0  0  0  0  0  0  0  0  0  0  0
    5.7985   -9.1647    2.8098 H   0  0  0  0  0  0  0  0  0  0  0  0
    5.5698  -10.2428    1.4078 H   0  0  0  0  0  0  0  0  0  0  0  0
    2.9952  -12.4330    4.2947 H   0  0  0  0  0  0  0  0  0  0  0  0
    0.5652  -11.9182    4.2659 H   0  0  0  0  0  0  0  0  0  0  0  0
  1  2  1  0
  1 16  1  0
  1 17  1  0
  1 18  1  0
  2  3  1  0
  3 15  2  0
  3  4  1  0
  4  5  2  0
  4 19  1  0
  5  6  1  0
  5 20  1  0
  6 14  2  0
  6  7  1  0
  7  8  2  0
  8  9  1  0
  9 13  1  0
  9 10  2  0
 10 11  1  0
 11 12  2  0
 12 13  1  0
 13 14  1  0
 14 15  1  0
M  END
>  <i_m_ct_stereo_status>  (36) 
1

>  <s_m_source_file>  (36) 
/var/tmp/pbs.5076255.sched01/tmpvsf1hu0j/0g1dnczxv.sdf

>  <i_m_source_file_index>  (36) 
15

>  <i_lp_mmshare_version>  (36) 
48012

>  <i_f3d_flags>  (36) 
0

>  <s_epik_input>  (36) 
W0NIM11PYyhbY0hdW2NIXTEpbmMoYzEyKW4zYyhubjIpbm5uMw==

>  <s_epik_cmdline>  (36) 
J2VwaWtfcHl0aG9uJywgJy1waHQnLCAnMi4wJywgJy1waCcsICc3LjAnLCAnLXRuJywgJzgnLCAnLW1hJywgJzIwMCcsICctaW1hZScsICc8aW5maWxlLm1hZT4nLCAnLW9tYWUnLCAnPG91dGZpbGUubWFlPic=

>  <r_lp_tautomer_probability>  (36) 
1

>  <r_epik_Ionization_Penalty>  (36) 
4.51245e-14

>  <r_epik_Ionization_Penalty_Charging>  (36) 
0

>  <r_epik_Ionization_Penalty_Neutral>  (36) 
4.51245e-14

>  <r_epik_State_Penalty>  (36) 
-0

>  <r_epik_Charging_Adjusted_Penalty>  (36) 
0

>  <i_epik_Tot_Q>  (36) 
0

>  <i_epik_Tot_abs_Q>  (36) 
0

>  <s_lp_Force_Field>  (36) 
OPLS3e

>  <r_lp_Energy>  (36) 
27.3585

>  <b_lp_Chiralities_Consistent>  (36) 
1

>  <s_lp_Variant>  (36) 
12:0-1

>  <s_i_glide_gridfile>  (36) 
pfpi4k_grid

>  <i_i_glide_lignum>  (36) 
15

>  <i_i_glide_rotatable_bonds>  (36) 
1

>  <r_i_docking_score>  (36) 
-4.34797

>  <r_i_glide_ligand_efficiency>  (36) 
-0.289864

>  <r_i_glide_ligand_efficiency_sa>  (36) 
-0.714867

>  <r_i_glide_ligand_efficiency_ln>  (36) 
-1.17258

>  <r_i_glide_gscore>  (36) 
-4.34797

>  <r_i_glide_lipo>  (36) 
-0.245225

>  <r_i_glide_hbond>  (36) 
0

>  <r_i_glide_metal>  (36) 
-0

>  <r_i_glide_rewards>  (36) 
-2.08558

>  <r_i_glide_evdw>  (36) 
-21.3151

>  <r_i_glide_ecoul>  (36) 
-3.84488

>  <r_i_glide_erotb>  (36) 
0

>  <r_i_glide_esite>  (36) 
-0.37467

>  <r_i_glide_emodel>  (36) 
-32.7733

>  <r_i_glide_energy>  (36) 
-25.16

>  <r_i_glide_einternal>  (36) 
0.112898

>  <r_i_glide_intrahb_reward>  (36) 
-0

>  <i_i_glide_confnum>  (36) 
2

>  <i_i_glide_posenum>  (36) 
1

>  <r_i_glide_eff_state_penalty>  (36) 
0

>  <ligand_id>  (36) 
12

>  <original_smiles>  (36) 
COc1ccc2nnc3nnnn3c2n1

>  <smiles>  (36) 
[H]c1c(OC([H])([H])[H])nc2c(nnc3nnnn32)c1[H]

$$$$
12:0:1
     RDKit          3D

 20 22  0  0  1  0  0  0  0  0999 V2000
    5.2051  -12.2108    3.9608 C   0  0  0  0  0  0  0  0  0  0  0  0
    4.7690  -10.9721    3.4030 O   0  0  0  0  0  0  0  0  0  0  0  0
    3.4138  -10.7286    3.3705 C   0  0  0  0  0  0  0  0  0  0  0  0
    2.4539  -11.5990    3.9544 C   0  0  0  0  0  0  0  0  0  0  0  0
    1.1099  -11.2757    3.8587 C   0  0  0  0  0  0  0  0  0  0  0  0
    0.7198  -10.1069    3.1969 C   0  0  0  0  0  0  0  0  0  0  0  0
   -0.5839   -9.7693    3.0786 N   0  0  0  0  0  0  0  0  0  0  0  0
   -0.9597   -8.6331    2.4736 N   0  0  0  0  0  0  0  0  0  0  0  0
    0.0053   -7.8370    1.9555 C   0  0  0  0  0  0  0  0  0  0  0  0
   -0.1255   -6.6742    1.3116 N   0  0  0  0  0  0  0  0  0  0  0  0
    1.1924   -6.3138    0.9993 N   0  0  0  0  0  0  0  0  0  0  0  0
    2.0733   -7.1779    1.4458 N   0  0  0  0  0  0  0  0  0  0  0  0
    1.3052   -8.1090    2.0199 N   0  0  0  0  0  0  0  0  0  0  0  0
    1.7325   -9.2704    2.6507 C   0  0  0  0  0  0  0  0  0  0  0  0
    3.0694   -9.5745    2.7421 N   0  0  0  0  0  0  0  0  0  0  0  0
    6.2913  -12.3149    3.9520 H   0  0  0  0  0  0  0  0  0  0  0  0
    4.7962  -13.0470    3.3957 H   0  0  0  0  0  0  0  0  0  0  0  0
    4.8995  -12.3156    5.0006 H   0  0  0  0  0  0  0  0  0  0  0  0
    2.6669  -12.5179    4.4690 H   0  0  0  0  0  0  0  0  0  0  0  0
    0.3658  -11.9289    4.2945 H   0  0  0  0  0  0  0  0  0  0  0  0
  1  2  1  0
  1 16  1  0
  1 17  1  0
  1 18  1  0
  2  3  1  0
  3 15  2  0
  3  4  1  0
  4  5  2  0
  4 19  1  0
  5  6  1  0
  5 20  1  0
  6 14  2  0
  6  7  1  0
  7  8  2  0
  8  9  1  0
  9 13  1  0
  9 10  2  0
 10 11  1  0
 11 12  2  0
 12 13  1  0
 13 14  1  0
 14 15  1  0
M  END
>  <i_m_ct_stereo_status>  (37) 
1

>  <s_m_source_file>  (37) 
/var/tmp/pbs.5076255.sched01/tmpvsf1hu0j/0g1dnczxv.sdf

>  <i_m_source_file_index>  (37) 
15

>  <i_lp_mmshare_version>  (37) 
48012

>  <i_f3d_flags>  (37) 
0

>  <s_epik_input>  (37) 
W0NIM11PYyhbY0hdW2NIXTEpbmMoYzEyKW4zYyhubjIpbm5uMw==

>  <s_epik_cmdline>  (37) 
J2VwaWtfcHl0aG9uJywgJy1waHQnLCAnMi4wJywgJy1waCcsICc3LjAnLCAnLXRuJywgJzgnLCAnLW1hJywgJzIwMCcsICctaW1hZScsICc8aW5maWxlLm1hZT4nLCAnLW9tYWUnLCAnPG91dGZpbGUubWFlPic=

>  <r_lp_tautomer_probability>  (37) 
1

>  <r_epik_Ionization_Penalty>  (37) 
4.51245e-14

>  <r_epik_Ionization_Penalty_Charging>  (37) 
0

>  <r_epik_Ionization_Penalty_Neutral>  (37) 
4.51245e-14

>  <r_epik_State_Penalty>  (37) 
-0

>  <r_epik_Charging_Adjusted_Penalty>  (37) 
0

>  <i_epik_Tot_Q>  (37) 
0

>  <i_epik_Tot_abs_Q>  (37) 
0

>  <s_lp_Force_Field>  (37) 
OPLS3e

>  <r_lp_Energy>  (37) 
27.3585

>  <b_lp_Chiralities_Consistent>  (37) 
1

>  <s_lp_Variant>  (37) 
12:0-1

>  <s_i_glide_gridfile>  (37) 
pfpi4k_grid

>  <i_i_glide_lignum>  (37) 
15

>  <i_i_glide_rotatable_bonds>  (37) 
1

>  <r_i_docking_score>  (37) 
-4.33818

>  <r_i_glide_ligand_efficiency>  (37) 
-0.289212

>  <r_i_glide_ligand_efficiency_sa>  (37) 
-0.713259

>  <r_i_glide_ligand_efficiency_ln>  (37) 
-1.16994

>  <r_i_glide_gscore>  (37) 
-4.33818

>  <r_i_glide_lipo>  (37) 
-0.243369

>  <r_i_glide_hbond>  (37) 
0

>  <r_i_glide_metal>  (37) 
-0

>  <r_i_glide_rewards>  (37) 
-2.07518

>  <r_i_glide_evdw>  (37) 
-21.0627

>  <r_i_glide_ecoul>  (37) 
-4.02843

>  <r_i_glide_erotb>  (37) 
0

>  <r_i_glide_esite>  (37) 
-0.362235

>  <r_i_glide_emodel>  (37) 
-30.369

>  <r_i_glide_energy>  (37) 
-25.0911

>  <r_i_glide_einternal>  (37) 
4.56201

>  <r_i_glide_intrahb_reward>  (37) 
-0

>  <i_i_glide_confnum>  (37) 
1

>  <i_i_glide_posenum>  (37) 
24

>  <r_i_glide_eff_state_penalty>  (37) 
0

>  <ligand_id>  (37) 
12

>  <original_smiles>  (37) 
COc1ccc2nnc3nnnn3c2n1

>  <smiles>  (37) 
[H]c1c(OC([H])([H])[H])nc2c(nnc3nnnn32)c1[H]

$$$$
12:0:2
     RDKit          3D

 20 22  0  0  1  0  0  0  0  0999 V2000
   -2.7913    2.6703    7.0858 C   0  0  0  0  0  0  0  0  0  0  0  0
   -2.4211    3.1282    5.7929 O   0  0  0  0  0  0  0  0  0  0  0  0
   -1.6330    2.3220    5.0005 C   0  0  0  0  0  0  0  0  0  0  0  0
   -1.1264    2.8922    3.8224 C   0  0  0  0  0  0  0  0  0  0  0  0
   -0.3116    2.1177    2.9917 C   0  0  0  0  0  0  0  0  0  0  0  0
   -0.0312    0.7932    3.3564 C   0  0  0  0  0  0  0  0  0  0  0  0
    0.7603    0.0004    2.5864 N   0  0  0  0  0  0  0  0  0  0  0  0
    1.0286   -1.2665    2.9427 N   0  0  0  0  0  0  0  0  0  0  0  0
    0.4848   -1.7470    4.0896 C   0  0  0  0  0  0  0  0  0  0  0  0
    0.5892   -2.9557    4.6391 N   0  0  0  0  0  0  0  0  0  0  0  0
   -0.1909   -2.8697    5.8117 N   0  0  0  0  0  0  0  0  0  0  0  0
   -0.7368   -1.6936    5.9650 N   0  0  0  0  0  0  0  0  0  0  0  0
   -0.2967   -1.0340    4.8888 N   0  0  0  0  0  0  0  0  0  0  0  0
   -0.5879    0.2820    4.5608 C   0  0  0  0  0  0  0  0  0  0  0  0
   -1.3848    1.0432    5.3875 N   0  0  0  0  0  0  0  0  0  0  0  0
   -3.4020    3.4296    7.5705 H   0  0  0  0  0  0  0  0  0  0  0  0
   -1.9139    2.5233    7.7137 H   0  0  0  0  0  0  0  0  0  0  0  0
   -3.3761    1.7522    7.0458 H   0  0  0  0  0  0  0  0  0  0  0  0
   -1.3378    3.9123    3.5528 H   0  0  0  0  0  0  0  0  0  0  0  0
    0.1040    2.5352    2.0875 H   0  0  0  0  0  0  0  0  0  0  0  0
  1  2  1  0
  1 16  1  0
  1 17  1  0
  1 18  1  0
  2  3  1  0
  3 15  2  0
  3  4  1  0
  4  5  2  0
  4 19  1  0
  5  6  1  0
  5 20  1  0
  6 14  2  0
  6  7  1  0
  7  8  2  0
  8  9  1  0
  9 13  1  0
  9 10  2  0
 10 11  1  0
 11 12  2  0
 12 13  1  0
 13 14  1  0
 14 15  1  0
M  END
>  <i_m_ct_stereo_status>  (38) 
1

>  <s_m_source_file>  (38) 
/var/tmp/pbs.5076255.sched01/tmpvsf1hu0j/0g1dnczxv.sdf

>  <i_m_source_file_index>  (38) 
15

>  <i_lp_mmshare_version>  (38) 
48012

>  <i_f3d_flags>  (38) 
0

>  <s_epik_input>  (38) 
W0NIM11PYyhbY0hdW2NIXTEpbmMoYzEyKW4zYyhubjIpbm5uMw==

>  <s_epik_cmdline>  (38) 
J2VwaWtfcHl0aG9uJywgJy1waHQnLCAnMi4wJywgJy1waCcsICc3LjAnLCAnLXRuJywgJzgnLCAnLW1hJywgJzIwMCcsICctaW1hZScsICc8aW5maWxlLm1hZT4nLCAnLW9tYWUnLCAnPG91dGZpbGUubWFlPic=

>  <r_lp_tautomer_probability>  (38) 
1

>  <r_epik_Ionization_Penalty>  (38) 
4.51245e-14

>  <r_epik_Ionization_Penalty_Charging>  (38) 
0

>  <r_epik_Ionization_Penalty_Neutral>  (38) 
4.51245e-14

>  <r_epik_State_Penalty>  (38) 
-0

>  <r_epik_Charging_Adjusted_Penalty>  (38) 
0

>  <i_epik_Tot_Q>  (38) 
0

>  <i_epik_Tot_abs_Q>  (38) 
0

>  <s_lp_Force_Field>  (38) 
OPLS3e

>  <r_lp_Energy>  (38) 
27.3585

>  <b_lp_Chiralities_Consistent>  (38) 
1

>  <s_lp_Variant>  (38) 
12:0-1

>  <s_i_glide_gridfile>  (38) 
pfpi4k_grid

>  <i_i_glide_lignum>  (38) 
15

>  <i_i_glide_rotatable_bonds>  (38) 
1

>  <r_i_docking_score>  (38) 
-3.64672

>  <r_i_glide_ligand_efficiency>  (38) 
-0.243115

>  <r_i_glide_ligand_efficiency_sa>  (38) 
-0.599573

>  <r_i_glide_ligand_efficiency_ln>  (38) 
-0.983462

>  <r_i_glide_gscore>  (38) 
-3.64672

>  <r_i_glide_lipo>  (38) 
-0.192789

>  <r_i_glide_hbond>  (38) 
0

>  <r_i_glide_metal>  (38) 
-0

>  <r_i_glide_rewards>  (38) 
-2.02914

>  <r_i_glide_evdw>  (38) 
-17.9291

>  <r_i_glide_ecoul>  (38) 
-2.42797

>  <r_i_glide_erotb>  (38) 
0

>  <r_i_glide_esite>  (38) 
-0.16415

>  <r_i_glide_emodel>  (38) 
-26.6509

>  <r_i_glide_energy>  (38) 
-20.3571

>  <r_i_glide_einternal>  (38) 
0.23017

>  <r_i_glide_intrahb_reward>  (38) 
-0

>  <i_i_glide_confnum>  (38) 
1

>  <i_i_glide_posenum>  (38) 
39

>  <r_i_glide_eff_state_penalty>  (38) 
0

>  <ligand_id>  (38) 
12

>  <original_smiles>  (38) 
COc1ccc2nnc3nnnn3c2n1

>  <smiles>  (38) 
[H]c1c(OC([H])([H])[H])nc2c(nnc3nnnn32)c1[H]

$$$$
13:1:0
     RDKit          3D

 89 95  0  0  1  0  0  0  0  0999 V2000
    2.2184   -2.7533   -3.7890 C   0  0  0  0  0  0  0  0  0  0  0  0
    3.2409   -2.6651   -2.9376 C   0  0  0  0  0  0  0  0  0  0  0  0
    4.3074   -1.7006   -3.1221 C   0  0  0  0  0  0  0  0  0  0  0  0
    4.5494   -1.0693   -4.1436 O   0  0  0  0  0  0  0  0  0  0  0  0
    5.0250   -1.6873   -1.9675 O   0  0  0  0  0  0  0  0  0  0  0  0
    4.2890   -2.3313   -0.9455 C   0  0  2  0  0  0  0  0  0  0  0  0
    5.0041   -3.0020    0.2074 C   0  0  0  0  0  0  0  0  0  0  0  0
    3.9893   -3.5516    1.3065 C   0  0  2  0  0  0  0  0  0  0  0  0
    3.3070   -2.3082    1.9226 C   0  0  0  0  0  0  0  0  0  0  0  0
    4.8344   -4.3623    2.3893 C   0  0  1  0  0  0  0  0  0  0  0  0
    6.2076   -4.2431    2.1024 O   0  0  0  0  0  0  0  0  0  0  0  0
    4.7747   -4.0091    3.9188 C   0  0  0  0  0  0  0  0  0  0  0  0
    3.6301   -4.5356    4.8295 C   0  0  0  0  0  0  0  0  0  0  0  0
    3.1816   -6.0628    4.9233 C   0  0  2  0  0  0  0  0  0  0  0  0
    2.5686   -6.5425    3.5368 C   0  0  2  0  0  0  0  0  0  0  0  0
    1.7804   -5.4851    2.7058 C   0  0  0  0  0  0  0  0  0  0  0  0
    2.0035   -5.5033    1.1964 C   0  0  2  0  0  0  0  0  0  0  0  0
    3.2401   -5.8215    0.5805 O   0  0  0  0  0  0  0  0  0  0  0  0
    2.9088   -4.4547    0.5660 C   0  0  2  0  0  0  0  0  0  0  0  0
    2.3796   -3.8698   -0.7639 C   0  0  0  0  0  0  0  0  0  0  0  0
    3.5246   -3.4113   -1.6788 C   0  0  1  0  0  0  0  0  0  0  0  0
    1.6611   -7.7422    3.5936 N   0  0  1  0  0  0  0  0  0  0  0  0
    2.2184   -9.1222    3.2724 C   0  0  0  0  0  0  0  0  0  0  0  0
    1.2901   -9.8857    2.3310 C   0  0  0  0  0  0  0  0  0  0  0  0
   -0.2154   -9.8579    2.6476 C   0  0  0  0  0  0  0  0  0  0  0  0
    0.6032   -7.7522    4.6908 C   0  0  0  0  0  0  0  0  0  0  0  0
    1.1559   -7.4276    6.0769 C   0  0  1  0  0  0  0  0  0  0  0  0
    1.4371   -8.7223    6.8728 C   0  0  0  0  0  0  0  0  0  0  0  0
    2.1038   -6.1677    6.1341 C   0  0  2  0  0  0  0  0  0  0  0  0
    1.0921   -4.9685    6.1065 C   0  0  0  0  0  0  0  0  0  0  0  0
    2.7762   -6.0561    7.5586 C   0  0  0  0  0  0  0  0  0  0  0  0
    4.0741   -6.8643    7.8093 C   0  0  0  0  0  0  0  0  0  0  0  0
    5.0499   -6.5672    6.6701 C   0  0  1  0  0  0  0  0  0  0  0  0
    6.3986   -7.2410    6.6425 C   0  0  0  0  0  0  0  0  0  0  0  0
    6.7710   -7.5316    5.3897 C   0  0  0  0  0  0  0  0  0  0  0  0
    8.0859   -8.1043    4.9286 C   0  0  0  0  0  0  0  0  0  0  0  0
    5.6820   -7.1652    4.3913 C   0  0  0  0  0  0  0  0  0  0  0  0
    4.4497   -6.9597    5.3065 C   0  0  2  0  0  0  0  0  0  0  0  0
    4.0508   -8.2960    5.4656 O   0  0  0  0  0  0  0  0  0  0  0  0
    1.4369   -3.4598   -3.6272 H   0  0  0  0  0  0  0  0  0  0  0  0
    2.1495   -2.0881   -4.6327 H   0  0  0  0  0  0  0  0  0  0  0  0
    3.6025   -1.5855   -0.5699 H   0  0  0  0  0  0  0  0  0  0  0  0
    5.6159   -3.8109   -0.2013 H   0  0  0  0  0  0  0  0  0  0  0  0
    5.6943   -2.2806    0.6581 H   0  0  0  0  0  0  0  0  0  0  0  0
    2.7589   -2.5292    2.8329 H   0  0  0  0  0  0  0  0  0  0  0  0
    2.5816   -1.8546    1.2452 H   0  0  0  0  0  0  0  0  0  0  0  0
    4.0392   -1.5469    2.1737 H   0  0  0  0  0  0  0  0  0  0  0  0
    4.7084   -5.4281    2.2762 H   0  0  0  0  0  0  0  0  0  0  0  0
    6.6896   -4.8543    2.6574 H   0  0  0  0  0  0  0  0  0  0  0  0
    5.7017   -4.3066    4.4127 H   0  0  0  0  0  0  0  0  0  0  0  0
    4.8191   -2.9219    4.0361 H   0  0  0  0  0  0  0  0  0  0  0  0
    3.9065   -4.2147    5.8347 H   0  0  0  0  0  0  0  0  0  0  0  0
    2.8022   -3.8597    4.6516 H   0  0  0  0  0  0  0  0  0  0  0  0
    3.3918   -6.8506    2.9117 H   0  0  0  0  0  0  0  0  0  0  0  0
    0.7104   -5.5704    2.8728 H   0  0  0  0  0  0  0  0  0  0  0  0
    1.9657   -4.4727    2.9857 H   0  0  0  0  0  0  0  0  0  0  0  0
    1.1420   -5.8545    0.6300 H   0  0  0  0  0  0  0  0  0  0  0  0
    1.8012   -4.6360   -1.2797 H   0  0  0  0  0  0  0  0  0  0  0  0
    1.7015   -3.0438   -0.5718 H   0  0  0  0  0  0  0  0  0  0  0  0
    4.1643   -4.2536   -1.9469 H   0  0  0  0  0  0  0  0  0  0  0  0
    3.1723   -9.0138    2.7772 H   0  0  0  0  0  0  0  0  0  0  0  0
    2.3712   -9.6833    4.1706 H   0  0  0  0  0  0  0  0  0  0  0  0
    1.4598   -9.5801    1.3000 H   0  0  0  0  0  0  0  0  0  0  0  0
    1.6287  -10.9185    2.4182 H   0  0  0  0  0  0  0  0  0  0  0  0
   -0.8123  -10.4413    1.9229 H   0  0  0  0  0  0  0  0  0  0  0  0
   -0.6157   -8.8528    2.5998 H   0  0  0  0  0  0  0  0  0  0  0  0
   -0.3918  -10.2027    3.6675 H   0  0  0  0  0  0  0  0  0  0  0  0
   -0.0876   -6.9600    4.4091 H   0  0  0  0  0  0  0  0  0  0  0  0
    0.0811   -8.6860    4.7152 H   0  0  0  0  0  0  0  0  0  0  0  0
    0.2479   -7.1350    6.5967 H   0  0  0  0  0  0  0  0  0  0  0  0
    2.1742   -9.3833    6.4376 H   0  0  0  0  0  0  0  0  0  0  0  0
    0.5226   -9.3179    6.9163 H   0  0  0  0  0  0  0  0  0  0  0  0
    1.6965   -8.5354    7.9141 H   0  0  0  0  0  0  0  0  0  0  0  0
    0.2952   -5.0799    6.8386 H   0  0  0  0  0  0  0  0  0  0  0  0
    0.6135   -4.8605    5.1318 H   0  0  0  0  0  0  0  0  0  0  0  0
    1.5491   -4.0163    6.3593 H   0  0  0  0  0  0  0  0  0  0  0  0
    3.0165   -5.0017    7.7620 H   0  0  0  0  0  0  0  0  0  0  0  0
    2.0493   -6.3223    8.3180 H   0  0  0  0  0  0  0  0  0  0  0  0
    4.5105   -6.5565    8.7594 H   0  0  0  0  0  0  0  0  0  0  0  0
    3.8825   -7.9329    7.9231 H   0  0  0  0  0  0  0  0  0  0  0  0
    5.3069   -5.5162    6.7162 H   0  0  0  0  0  0  0  0  0  0  0  0
    7.0035   -7.3758    7.5266 H   0  0  0  0  0  0  0  0  0  0  0  0
    8.5685   -7.4189    4.2359 H   0  0  0  0  0  0  0  0  0  0  0  0
    7.9230   -9.0471    4.4106 H   0  0  0  0  0  0  0  0  0  0  0  0
    8.7582   -8.2800    5.7663 H   0  0  0  0  0  0  0  0  0  0  0  0
    6.0439   -6.2891    3.8786 H   0  0  0  0  0  0  0  0  0  0  0  0
    5.5626   -7.9606    3.6408 H   0  0  0  0  0  0  0  0  0  0  0  0
    3.8039   -8.6404    4.6113 H   0  0  0  0  0  0  0  0  0  0  0  0
    1.1272   -7.6208    2.7660 H   0  0  0  0  0  0  0  0  0  0  0  0
  1  2  2  0
  1 40  1  0
  1 41  1  0
  2 21  1  0
  2  3  1  0
  3  4  2  0
  3  5  1  0
  5  6  1  0
  6 21  1  0
  6  7  1  0
  6 42  1  1
  7  8  1  0
  7 43  1  0
  7 44  1  0
  8 19  1  0
  8  9  1  1
  8 10  1  0
  9 45  1  0
  9 46  1  0
  9 47  1  0
 10 11  1  0
 10 12  1  0
 10 48  1  1
 11 49  1  0
 12 13  1  0
 12 50  1  0
 12 51  1  0
 14 13  1  6
 13 52  1  0
 13 53  1  0
 14 29  1  0
 14 38  1  0
 14 15  1  0
 15 16  1  0
 15 22  1  0
 15 54  1  6
 16 17  1  0
 16 55  1  0
 16 56  1  0
 17 19  1  0
 17 18  1  0
 17 57  1  6
 19 18  1  6
 19 20  1  0
 20 21  1  0
 20 58  1  0
 20 59  1  0
 21 60  1  6
 22 23  1  0
 22 26  1  0
 22 89  1  6
 23 24  1  0
 23 61  1  0
 23 62  1  0
 24 25  1  0
 24 63  1  0
 24 64  1  0
 25 65  1  0
 25 66  1  0
 25 67  1  0
 26 27  1  0
 26 68  1  0
 26 69  1  0
 27 28  1  0
 27 29  1  0
 27 70  1  1
 28 71  1  0
 28 72  1  0
 28 73  1  0
 29 30  1  6
 29 31  1  0
 30 74  1  0
 30 75  1  0
 30 76  1  0
 31 32  1  0
 31 77  1  0
 31 78  1  0
 32 33  1  0
 32 79  1  0
 32 80  1  0
 33 38  1  0
 33 34  1  0
 33 81  1  6
 34 35  2  0
 34 82  1  0
 35 36  1  0
 35 37  1  0
 36 83  1  0
 36 84  1  0
 36 85  1  0
 37 38  1  0
 37 86  1  0
 37 87  1  0
 38 39  1  1
 39 88  1  0
M  CHG  1  22   1
M  END
>  <i_m_ct_stereo_status>  (39) 
1

>  <s_m_source_file>  (39) 
/var/tmp/pbs.5076255.sched01/tmpvsf1hu0j/0g1dnczxv.sdf

>  <i_m_source_file_index>  (39) 
17

>  <i_lp_mmshare_version>  (39) 
48012

>  <i_f3d_flags>  (39) 
0

>  <s_epik_input>  (39) 
Tz1DKE8xKUMoPVtDSDJdKVtDQEhdKFtDSDJdMilbQ0BIXTFbQ0gyXVtDQF0oW0NIM10pKFtDQEBIXShbT0hdKVtDSDJdW0NIMl0zKVtDQEBdMihPNClbQ0BASF00W0NIMl1bQ0BASF0oW0NAQF0zNTYpTihbQ0gyXVtDSDJdW0NIM10pW0NIMl1bQ0BASF0oW0NIM10pW0NAQF01KFtDSDNdKVtDSDJdW0NIMl1bQ0BASF03W0NAXTYoW09IXSlbQ0gyXUMoPVtDSF03KVtDSDNd

>  <s_epik_cmdline>  (39) 
J2VwaWtfcHl0aG9uJywgJy1waHQnLCAnMi4wJywgJy1waCcsICc3LjAnLCAnLXRuJywgJzgnLCAnLW1hJywgJzIwMCcsICctaW1hZScsICc8aW5maWxlLm1hZT4nLCAnLW9tYWUnLCAnPG91dGZpbGUubWFlPic=

>  <r_epik_Ionization_Penalty>  (39) 
0.000797626

>  <r_epik_Ionization_Penalty_Charging>  (39) 
0.000797506

>  <r_epik_Ionization_Penalty_Neutral>  (39) 
1.20221e-07

>  <r_epik_State_Penalty>  (39) 
0.000512005

>  <r_epik_Charging_Adjusted_Penalty>  (39) 
0.00130951

>  <i_epik_Tot_Q>  (39) 
1

>  <i_epik_Tot_abs_Q>  (39) 
1

>  <s_epik_Chemistry_Notes>  (39) 
This compound has an ester and may undergo hydrolysis at high or low pH.

>  <s_lp_Force_Field>  (39) 
OPLS3e

>  <r_lp_Energy>  (39) 
130.107

>  <b_lp_Chiralities_Consistent>  (39) 
1

>  <s_lp_Variant>  (39) 
13:0-2

>  <s_i_glide_gridfile>  (39) 
pfpi4k_grid

>  <i_i_glide_lignum>  (39) 
17

>  <i_i_glide_rotatable_bonds>  (39) 
4

>  <r_i_docking_score>  (39) 
-2.45575

>  <r_i_glide_ligand_efficiency>  (39) 
-0.0629678

>  <r_i_glide_ligand_efficiency_sa>  (39) 
-0.213537

>  <r_i_glide_ligand_efficiency_ln>  (39) 
-0.526582

>  <r_i_glide_gscore>  (39) 
-2.45575

>  <r_i_glide_lipo>  (39) 
-0.469635

>  <r_i_glide_hbond>  (39) 
-0.00272045

>  <r_i_glide_metal>  (39) 
-0

>  <r_i_glide_rewards>  (39) 
-0.0897214

>  <r_i_glide_evdw>  (39) 
-24.4373

>  <r_i_glide_ecoul>  (39) 
-4.88871

>  <r_i_glide_erotb>  (39) 
0.0707091

>  <r_i_glide_esite>  (39) 
-0.00920565

>  <r_i_glide_emodel>  (39) 
-28.9266

>  <r_i_glide_energy>  (39) 
-29.326

>  <r_i_glide_einternal>  (39) 
4.51291

>  <r_i_glide_intrahb_reward>  (39) 
-0

>  <i_i_glide_confnum>  (39) 
2

>  <i_i_glide_posenum>  (39) 
16

>  <r_i_glide_eff_state_penalty>  (39) 
0

>  <ligand_id>  (39) 
13

>  <original_smiles>  (39) 
C=C1C(=O)OC2CC3(C)C(O)CCC45C(CC6OC63CC12)N(CCC)CC(C)C4(C)CCC1C=C(C)CC15O

>  <smiles>  (39) 
[H]OC1([H])C([H])([H])C([H])([H])C23C4(O[H])C([H])([H])C(C([H])([H])[H])=C([H])C4([H])C([H])([H])C([H])([H])C2(C([H])([H])[H])C([H])(C([H])([H])[H])C([H])([H])[N+]([H])(C([H])([H])C([H])([H])C([H])([H])[H])C3([H])C([H])([H])C2([H])OC23C([H])([H])C2([H])C(=C([H])[H])C(=O)OC2([H])C([H])([H])C13C([H])([H])[H]

$$$$
15:0:0
     RDKit          3D

 45 48  0  0  1  0  0  0  0  0999 V2000
   -1.1516   -8.4074    4.2493 C   0  0  0  0  0  0  0  0  0  0  0  0
    0.1759   -8.1068    3.7019 N   0  0  0  0  0  0  0  0  0  0  0  0
    1.2912   -8.6646    4.3549 C   0  0  0  0  0  0  0  0  0  0  0  0
    2.5401   -8.4183    3.9361 C   0  0  0  0  0  0  0  0  0  0  0  0
    3.8954   -9.1130    4.7336 Cl  0  0  0  0  0  0  0  0  0  0  0  0
    2.7194   -7.5740    2.7816 C   0  0  0  0  0  0  0  0  0  0  0  0
    1.6644   -7.0339    2.1208 C   0  0  0  0  0  0  0  0  0  0  0  0
    1.9079   -6.1888    0.9131 C   0  0  0  0  0  0  0  0  0  0  0  0
    1.0186   -5.8647    0.1168 O   0  0  0  0  0  0  0  0  0  0  0  0
    3.1978   -5.8030    0.7801 O   0  0  0  0  0  0  0  0  0  0  0  0
    3.6025   -4.9963   -0.3196 C   0  0  0  0  0  0  0  0  0  0  0  0
    4.4228   -3.7706    0.1090 C   0  0  2  0  0  0  0  0  0  0  0  0
    5.7424   -4.2159    0.7848 C   0  0  0  0  0  0  0  0  0  0  0  0
    6.5670   -2.9807    1.1882 C   0  0  1  0  0  0  0  0  0  0  0  0
    6.9135   -2.1537   -0.0662 C   0  0  0  0  0  0  0  0  0  0  0  0
    5.6040   -1.6837   -0.7344 C   0  0  2  0  0  0  0  0  0  0  0  0
    4.7803   -0.8224    0.2450 C   0  0  0  0  0  0  0  0  0  0  0  0
    4.4478   -1.6540    1.4986 C   0  0  2  0  0  0  0  0  0  0  0  0
    5.7553   -2.1139    2.1754 C   0  0  0  0  0  0  0  0  0  0  0  0
    3.6155   -2.8851    1.0915 C   0  0  0  0  0  0  0  0  0  0  0  0
    4.7772   -2.9194   -1.1440 C   0  0  0  0  0  0  0  0  0  0  0  0
    0.2929   -7.2952    2.6068 C   0  0  0  0  0  0  0  0  0  0  0  0
   -0.7077   -6.7871    2.0977 O   0  0  0  0  0  0  0  0  0  0  0  0
   -1.1038   -9.0601    5.1270 H   0  0  0  0  0  0  0  0  0  0  0  0
   -1.7606   -8.9157    3.4982 H   0  0  0  0  0  0  0  0  0  0  0  0
   -1.6613   -7.4848    4.5373 H   0  0  0  0  0  0  0  0  0  0  0  0
    1.0724   -9.2923    5.2104 H   0  0  0  0  0  0  0  0  0  0  0  0
    3.7322   -7.4094    2.4503 H   0  0  0  0  0  0  0  0  0  0  0  0
    4.2145   -5.6269   -0.9613 H   0  0  0  0  0  0  0  0  0  0  0  0
    2.7598   -4.6501   -0.9195 H   0  0  0  0  0  0  0  0  0  0  0  0
    5.5341   -4.8215    1.6678 H   0  0  0  0  0  0  0  0  0  0  0  0
    6.3231   -4.8471    0.1102 H   0  0  0  0  0  0  0  0  0  0  0  0
    7.4811   -3.3272    1.6637 H   0  0  0  0  0  0  0  0  0  0  0  0
    7.5418   -1.3043    0.2051 H   0  0  0  0  0  0  0  0  0  0  0  0
    7.4916   -2.7648   -0.7610 H   0  0  0  0  0  0  0  0  0  0  0  0
    5.8252   -1.0943   -1.6222 H   0  0  0  0  0  0  0  0  0  0  0  0
    5.3235    0.0831    0.5199 H   0  0  0  0  0  0  0  0  0  0  0  0
    3.8564   -0.4973   -0.2345 H   0  0  0  0  0  0  0  0  0  0  0  0
    3.8703   -1.0466    2.1953 H   0  0  0  0  0  0  0  0  0  0  0  0
    5.5298   -2.6834    3.0779 H   0  0  0  0  0  0  0  0  0  0  0  0
    6.3369   -1.2466    2.4917 H   0  0  0  0  0  0  0  0  0  0  0  0
    2.6756   -2.5728    0.6324 H   0  0  0  0  0  0  0  0  0  0  0  0
    3.3520   -3.4509    1.9850 H   0  0  0  0  0  0  0  0  0  0  0  0
    5.3355   -3.5162   -1.8673 H   0  0  0  0  0  0  0  0  0  0  0  0
    3.8676   -2.5981   -1.6536 H   0  0  0  0  0  0  0  0  0  0  0  0
  1  2  1  0
  1 24  1  0
  1 25  1  0
  1 26  1  0
  2 22  1  0
  2  3  1  0
  3  4  2  0
  3 27  1  0
  4  5  1  0
  4  6  1  0
  6  7  2  0
  6 28  1  0
  7  8  1  0
  7 22  1  0
  8  9  2  0
  8 10  1  0
 10 11  1  0
 12 11  1  6
 11 29  1  0
 11 30  1  0
 12 20  1  0
 12 21  1  0
 12 13  1  0
 13 14  1  0
 13 31  1  0
 13 32  1  0
 14 19  1  0
 14 15  1  0
 14 33  1  1
 15 16  1  0
 15 34  1  0
 15 35  1  0
 16 17  1  0
 16 21  1  0
 16 36  1  6
 17 18  1  0
 17 37  1  0
 17 38  1  0
 18 19  1  0
 18 20  1  0
 18 39  1  1
 19 40  1  0
 19 41  1  0
 20 42  1  0
 20 43  1  0
 21 44  1  0
 21 45  1  0
 22 23  2  0
M  END
>  <i_m_ct_stereo_status>  (40) 
1

>  <s_m_source_file>  (40) 
/var/tmp/pbs.5076255.sched01/tmpvsf1hu0j/0g1dnczxv.sdf

>  <i_m_source_file_index>  (40) 
19

>  <i_lp_mmshare_version>  (40) 
48012

>  <i_f3d_flags>  (40) 
0

>  <s_epik_input>  (40) 
W0NIM11uMVtjSF1jKENsKVtjSF1jKGMxPU8pQyg9TylPW0NIMl1DMjNbQ0gyXVtDQEhdNFtDSDJdW0NAQEhdKFtDSDJdMylbQ0gyXVtDQEhdKFtDSDJdNClbQ0gyXTI=

>  <s_epik_cmdline>  (40) 
J2VwaWtfcHl0aG9uJywgJy1waHQnLCAnMi4wJywgJy1waCcsICc3LjAnLCAnLXRuJywgJzgnLCAnLW1hJywgJzIwMCcsICctaW1hZScsICc8aW5maWxlLm1hZT4nLCAnLW9tYWUnLCAnPG91dGZpbGUubWFlPic=

>  <r_lp_tautomer_probability>  (40) 
1

>  <r_epik_Ionization_Penalty>  (40) 
9.7075e-08

>  <r_epik_Ionization_Penalty_Charging>  (40) 
9.7075e-08

>  <r_epik_Ionization_Penalty_Neutral>  (40) 
1.31558e-16

>  <r_epik_State_Penalty>  (40) 
-0

>  <r_epik_Charging_Adjusted_Penalty>  (40) 
9.7075e-08

>  <i_epik_Tot_Q>  (40) 
0

>  <i_epik_Tot_abs_Q>  (40) 
0

>  <s_epik_Chemistry_Notes>  (40) 
This compound has an ester and may undergo hydrolysis at high or low pH.

>  <s_lp_Force_Field>  (40) 
OPLS3e

>  <r_lp_Energy>  (40) 
27.8184

>  <b_lp_Chiralities_Consistent>  (40) 
1

>  <s_lp_Variant>  (40) 
15:0-1

>  <s_i_glide_gridfile>  (40) 
pfpi4k_grid

>  <i_i_glide_lignum>  (40) 
19

>  <i_i_glide_rotatable_bonds>  (40) 
4

>  <r_i_docking_score>  (40) 
-3.78226

>  <r_i_glide_ligand_efficiency>  (40) 
-0.164446

>  <r_i_glide_ligand_efficiency_sa>  (40) 
-0.467662

>  <r_i_glide_ligand_efficiency_ln>  (40) 
-0.914584

>  <r_i_glide_gscore>  (40) 
-3.78226

>  <r_i_glide_lipo>  (40) 
-0.315389

>  <r_i_glide_hbond>  (40) 
-0.510703

>  <r_i_glide_metal>  (40) 
-0

>  <r_i_glide_rewards>  (40) 
-1.11938

>  <r_i_glide_evdw>  (40) 
-21.0872

>  <r_i_glide_ecoul>  (40) 
-8.04255

>  <r_i_glide_erotb>  (40) 
0.502184

>  <r_i_glide_esite>  (40) 
-0.0782295

>  <r_i_glide_emodel>  (40) 
-35.8404

>  <r_i_glide_energy>  (40) 
-29.1298

>  <r_i_glide_einternal>  (40) 
1.66739

>  <r_i_glide_intrahb_reward>  (40) 
-0

>  <i_i_glide_confnum>  (40) 
4

>  <i_i_glide_posenum>  (40) 
25

>  <r_i_glide_eff_state_penalty>  (40) 
0

>  <ligand_id>  (40) 
15

>  <original_smiles>  (40) 
Cn1cc(Cl)cc(C(=O)OCC23CC4CC(CC(C4)C2)C3)c1=O

>  <smiles>  (40) 
[H]c1c(Cl)c([H])n(C([H])([H])[H])c(=O)c1C(=O)OC([H])([H])C12C([H])([H])C3([H])C([H])([H])C([H])(C([H])([H])C([H])(C3([H])[H])C1([H])[H])C2([H])[H]

$$$$
15:0:1
     RDKit          3D

 45 48  0  0  1  0  0  0  0  0999 V2000
   -0.8259   -8.6118    4.8696 C   0  0  0  0  0  0  0  0  0  0  0  0
    0.3810   -8.5082    4.0495 N   0  0  0  0  0  0  0  0  0  0  0  0
    1.4112   -9.4322    4.2987 C   0  0  0  0  0  0  0  0  0  0  0  0
    2.5622   -9.3924    3.6188 C   0  0  0  0  0  0  0  0  0  0  0  0
    3.8105  -10.5339    3.9126 Cl  0  0  0  0  0  0  0  0  0  0  0  0
    2.7213   -8.3757    2.6135 C   0  0  0  0  0  0  0  0  0  0  0  0
    1.7389   -7.4738    2.3441 C   0  0  0  0  0  0  0  0  0  0  0  0
    1.9587   -6.4789    1.2676 C   0  0  0  0  0  0  0  0  0  0  0  0
    1.0410   -5.8728    0.7133 O   0  0  0  0  0  0  0  0  0  0  0  0
    3.2622   -6.3163    0.9330 O   0  0  0  0  0  0  0  0  0  0  0  0
    3.6309   -5.4055   -0.0991 C   0  0  0  0  0  0  0  0  0  0  0  0
    4.2447   -4.0756    0.3942 C   0  0  2  0  0  0  0  0  0  0  0  0
    3.4029   -3.4538    1.5428 C   0  0  0  0  0  0  0  0  0  0  0  0
    4.0287   -2.1329    2.0113 C   0  0  1  0  0  0  0  0  0  0  0  0
    5.4640   -2.4008    2.5066 C   0  0  0  0  0  0  0  0  0  0  0  0
    6.3094   -2.9674    1.3450 C   0  0  2  0  0  0  0  0  0  0  0  0
    6.3358   -1.9686    0.1705 C   0  0  0  0  0  0  0  0  0  0  0  0
    4.8941   -1.7187   -0.3140 C   0  0  2  0  0  0  0  0  0  0  0  0
    4.0526   -1.1316    0.8406 C   0  0  0  0  0  0  0  0  0  0  0  0
    4.2775   -3.0540   -0.7794 C   0  0  0  0  0  0  0  0  0  0  0  0
    5.6994   -4.3016    0.8810 C   0  0  0  0  0  0  0  0  0  0  0  0
    0.4727   -7.5242    3.1037 C   0  0  0  0  0  0  0  0  0  0  0  0
   -0.4534   -6.7243    2.9370 O   0  0  0  0  0  0  0  0  0  0  0  0
   -0.7686   -9.4213    5.6036 H   0  0  0  0  0  0  0  0  0  0  0  0
   -1.7015   -8.7796    4.2381 H   0  0  0  0  0  0  0  0  0  0  0  0
   -0.9662   -7.6779    5.4124 H   0  0  0  0  0  0  0  0  0  0  0  0
    1.2147  -10.1659    5.0722 H   0  0  0  0  0  0  0  0  0  0  0  0
    3.6411   -8.3779    2.0531 H   0  0  0  0  0  0  0  0  0  0  0  0
    4.3481   -5.9209   -0.7345 H   0  0  0  0  0  0  0  0  0  0  0  0
    2.7735   -5.1666   -0.7197 H   0  0  0  0  0  0  0  0  0  0  0  0
    2.3760   -3.2942    1.2099 H   0  0  0  0  0  0  0  0  0  0  0  0
    3.3548   -4.1319    2.3955 H   0  0  0  0  0  0  0  0  0  0  0  0
    3.4288   -1.7305    2.8247 H   0  0  0  0  0  0  0  0  0  0  0  0
    5.9065   -1.4848    2.8983 H   0  0  0  0  0  0  0  0  0  0  0  0
    5.4430   -3.1150    3.3301 H   0  0  0  0  0  0  0  0  0  0  0  0
    7.3303   -3.1497    1.6711 H   0  0  0  0  0  0  0  0  0  0  0  0
    6.8058   -1.0313    0.4763 H   0  0  0  0  0  0  0  0  0  0  0  0
    6.9390   -2.3724   -0.6446 H   0  0  0  0  0  0  0  0  0  0  0  0
    4.9062   -1.0080   -1.1413 H   0  0  0  0  0  0  0  0  0  0  0  0
    3.0358   -0.9319    0.4971 H   0  0  0  0  0  0  0  0  0  0  0  0
    4.4649   -0.1743    1.1676 H   0  0  0  0  0  0  0  0  0  0  0  0
    4.8452   -3.4556   -1.6178 H   0  0  0  0  0  0  0  0  0  0  0  0
    3.2691   -2.8777   -1.1536 H   0  0  0  0  0  0  0  0  0  0  0  0
    5.7157   -5.0247    1.6971 H   0  0  0  0  0  0  0  0  0  0  0  0
    6.3062   -4.7262    0.0800 H   0  0  0  0  0  0  0  0  0  0  0  0
  1  2  1  0
  1 24  1  0
  1 25  1  0
  1 26  1  0
  2 22  1  0
  2  3  1  0
  3  4  2  0
  3 27  1  0
  4  5  1  0
  4  6  1  0
  6  7  2  0
  6 28  1  0
  7  8  1  0
  7 22  1  0
  8  9  2  0
  8 10  1  0
 10 11  1  0
 12 11  1  6
 11 29  1  0
 11 30  1  0
 12 20  1  0
 12 21  1  0
 12 13  1  0
 13 14  1  0
 13 31  1  0
 13 32  1  0
 14 19  1  0
 14 15  1  0
 14 33  1  1
 15 16  1  0
 15 34  1  0
 15 35  1  0
 16 17  1  0
 16 21  1  0
 16 36  1  1
 17 18  1  0
 17 37  1  0
 17 38  1  0
 18 19  1  0
 18 20  1  0
 18 39  1  6
 19 40  1  0
 19 41  1  0
 20 42  1  0
 20 43  1  0
 21 44  1  0
 21 45  1  0
 22 23  2  0
M  END
>  <i_m_ct_stereo_status>  (41) 
1

>  <s_m_source_file>  (41) 
/var/tmp/pbs.5076255.sched01/tmpvsf1hu0j/0g1dnczxv.sdf

>  <i_m_source_file_index>  (41) 
19

>  <i_lp_mmshare_version>  (41) 
48012

>  <i_f3d_flags>  (41) 
0

>  <s_epik_input>  (41) 
W0NIM11uMVtjSF1jKENsKVtjSF1jKGMxPU8pQyg9TylPW0NIMl1DMjNbQ0gyXVtDQEhdNFtDSDJdW0NAQEhdKFtDSDJdMylbQ0gyXVtDQEhdKFtDSDJdNClbQ0gyXTI=

>  <s_epik_cmdline>  (41) 
J2VwaWtfcHl0aG9uJywgJy1waHQnLCAnMi4wJywgJy1waCcsICc3LjAnLCAnLXRuJywgJzgnLCAnLW1hJywgJzIwMCcsICctaW1hZScsICc8aW5maWxlLm1hZT4nLCAnLW9tYWUnLCAnPG91dGZpbGUubWFlPic=

>  <r_lp_tautomer_probability>  (41) 
1

>  <r_epik_Ionization_Penalty>  (41) 
9.7075e-08

>  <r_epik_Ionization_Penalty_Charging>  (41) 
9.7075e-08

>  <r_epik_Ionization_Penalty_Neutral>  (41) 
1.31558e-16

>  <r_epik_State_Penalty>  (41) 
-0

>  <r_epik_Charging_Adjusted_Penalty>  (41) 
9.7075e-08

>  <i_epik_Tot_Q>  (41) 
0

>  <i_epik_Tot_abs_Q>  (41) 
0

>  <s_epik_Chemistry_Notes>  (41) 
This compound has an ester and may undergo hydrolysis at high or low pH.

>  <s_lp_Force_Field>  (41) 
OPLS3e

>  <r_lp_Energy>  (41) 
27.8184

>  <b_lp_Chiralities_Consistent>  (41) 
1

>  <s_lp_Variant>  (41) 
15:0-1

>  <s_i_glide_gridfile>  (41) 
pfpi4k_grid

>  <i_i_glide_lignum>  (41) 
19

>  <i_i_glide_rotatable_bonds>  (41) 
4

>  <r_i_docking_score>  (41) 
-3.34926

>  <r_i_glide_ligand_efficiency>  (41) 
-0.14562

>  <r_i_glide_ligand_efficiency_sa>  (41) 
-0.414124

>  <r_i_glide_ligand_efficiency_ln>  (41) 
-0.809882

>  <r_i_glide_gscore>  (41) 
-3.34926

>  <r_i_glide_lipo>  (41) 
-0.250412

>  <r_i_glide_hbond>  (41) 
-0.32

>  <r_i_glide_metal>  (41) 
-0

>  <r_i_glide_rewards>  (41) 
-1.11938

>  <r_i_glide_evdw>  (41) 
-19.4271

>  <r_i_glide_ecoul>  (41) 
-7.50985

>  <r_i_glide_erotb>  (41) 
0.502184

>  <r_i_glide_esite>  (41) 
-0.0638271

>  <r_i_glide_emodel>  (41) 
-32.0054

>  <r_i_glide_energy>  (41) 
-26.9369

>  <r_i_glide_einternal>  (41) 
3.11805

>  <r_i_glide_intrahb_reward>  (41) 
-0

>  <i_i_glide_confnum>  (41) 
2

>  <i_i_glide_posenum>  (41) 
9

>  <r_i_glide_eff_state_penalty>  (41) 
0

>  <ligand_id>  (41) 
15

>  <original_smiles>  (41) 
Cn1cc(Cl)cc(C(=O)OCC23CC4CC(CC(C4)C2)C3)c1=O

>  <smiles>  (41) 
[H]c1c(Cl)c([H])n(C([H])([H])[H])c(=O)c1C(=O)OC([H])([H])C12C([H])([H])C3([H])C([H])([H])C([H])(C([H])([H])C([H])(C3([H])[H])C1([H])[H])C2([H])[H]

$$$$
15:0:2
     RDKit          3D

 45 48  0  0  1  0  0  0  0  0999 V2000
   -0.0475   -9.8829    3.6755 C   0  0  0  0  0  0  0  0  0  0  0  0
    1.1089   -9.2078    3.0804 N   0  0  0  0  0  0  0  0  0  0  0  0
    2.3792   -9.7451    3.3503 C   0  0  0  0  0  0  0  0  0  0  0  0
    3.4903   -9.1841    2.8602 C   0  0  0  0  0  0  0  0  0  0  0  0
    5.0414   -9.8422    3.1937 Cl  0  0  0  0  0  0  0  0  0  0  0  0
    3.3563   -8.0061    2.0434 C   0  0  0  0  0  0  0  0  0  0  0  0
    2.1417   -7.4584    1.7658 C   0  0  0  0  0  0  0  0  0  0  0  0
    2.0667   -6.2651    0.8791 C   0  0  0  0  0  0  0  0  0  0  0  0
    1.0145   -5.8685    0.3766 O   0  0  0  0  0  0  0  0  0  0  0  0
    3.2710   -5.7122    0.6114 O   0  0  0  0  0  0  0  0  0  0  0  0
    3.4037   -4.6735   -0.3501 C   0  0  0  0  0  0  0  0  0  0  0  0
    3.9810   -3.3774    0.2398 C   0  0  2  0  0  0  0  0  0  0  0  0
    5.4265   -3.6052    0.7510 C   0  0  0  0  0  0  0  0  0  0  0  0
    6.0001   -2.2879    1.3095 C   0  0  1  0  0  0  0  0  0  0  0  0
    6.0312   -1.2281    0.1915 C   0  0  0  0  0  0  0  0  0  0  0  0
    4.5957   -0.9801   -0.3091 C   0  0  2  0  0  0  0  0  0  0  0  0
    3.7021   -0.4828    0.8466 C   0  0  0  0  0  0  0  0  0  0  0  0
    3.6813   -1.5460    1.9619 C   0  0  2  0  0  0  0  0  0  0  0  0
    5.1170   -1.7917    2.4736 C   0  0  0  0  0  0  0  0  0  0  0  0
    3.1008   -2.8586    1.4044 C   0  0  0  0  0  0  0  0  0  0  0  0
    4.0186   -2.2917   -0.8702 C   0  0  0  0  0  0  0  0  0  0  0  0
    0.9212   -8.0872    2.3141 C   0  0  0  0  0  0  0  0  0  0  0  0
   -0.2131   -7.6428    2.1234 O   0  0  0  0  0  0  0  0  0  0  0  0
    0.2322  -10.7505    4.2805 H   0  0  0  0  0  0  0  0  0  0  0  0
   -0.7271  -10.2291    2.8941 H   0  0  0  0  0  0  0  0  0  0  0  0
   -0.5925   -9.1953    4.3251 H   0  0  0  0  0  0  0  0  0  0  0  0
    2.3988  -10.6246    3.9841 H   0  0  0  0  0  0  0  0  0  0  0  0
    4.2658   -7.5934    1.6401 H   0  0  0  0  0  0  0  0  0  0  0  0
    4.0805   -5.0507   -1.1150 H   0  0  0  0  0  0  0  0  0  0  0  0
    2.4624   -4.4477   -0.8524 H   0  0  0  0  0  0  0  0  0  0  0  0
    5.4398   -4.3715    1.5270 H   0  0  0  0  0  0  0  0  0  0  0  0
    6.0601   -3.9761   -0.0570 H   0  0  0  0  0  0  0  0  0  0  0  0
    7.0124   -2.4669    1.6697 H   0  0  0  0  0  0  0  0  0  0  0  0
    6.4776   -0.2997    0.5497 H   0  0  0  0  0  0  0  0  0  0  0  0
    6.6510   -1.5854   -0.6300 H   0  0  0  0  0  0  0  0  0  0  0  0
    4.6131   -0.2388   -1.1035 H   0  0  0  0  0  0  0  0  0  0  0  0
    4.0616    0.4710    1.2355 H   0  0  0  0  0  0  0  0  0  0  0  0
    2.6875   -0.3078    0.4833 H   0  0  0  0  0  0  0  0  0  0  0  0
    3.0549   -1.1997    2.7836 H   0  0  0  0  0  0  0  0  0  0  0  0
    5.1076   -2.5303    3.2760 H   0  0  0  0  0  0  0  0  0  0  0  0
    5.5286   -0.8753    2.8991 H   0  0  0  0  0  0  0  0  0  0  0  0
    2.0783   -2.7020    1.0589 H   0  0  0  0  0  0  0  0  0  0  0  0
    3.0522   -3.5969    2.2046 H   0  0  0  0  0  0  0  0  0  0  0  0
    4.6191   -2.6263   -1.7176 H   0  0  0  0  0  0  0  0  0  0  0  0
    3.0163   -2.1094   -1.2630 H   0  0  0  0  0  0  0  0  0  0  0  0
  1  2  1  0
  1 24  1  0
  1 25  1  0
  1 26  1  0
  2 22  1  0
  2  3  1  0
  3  4  2  0
  3 27  1  0
  4  5  1  0
  4  6  1  0
  6  7  2  0
  6 28  1  0
  7  8  1  0
  7 22  1  0
  8  9  2  0
  8 10  1  0
 10 11  1  0
 12 11  1  6
 11 29  1  0
 11 30  1  0
 12 20  1  0
 12 21  1  0
 12 13  1  0
 13 14  1  0
 13 31  1  0
 13 32  1  0
 14 19  1  0
 14 15  1  0
 14 33  1  1
 15 16  1  0
 15 34  1  0
 15 35  1  0
 16 17  1  0
 16 21  1  0
 16 36  1  6
 17 18  1  0
 17 37  1  0
 17 38  1  0
 18 19  1  0
 18 20  1  0
 18 39  1  1
 19 40  1  0
 19 41  1  0
 20 42  1  0
 20 43  1  0
 21 44  1  0
 21 45  1  0
 22 23  2  0
M  END
>  <i_m_ct_stereo_status>  (42) 
1

>  <s_m_source_file>  (42) 
/var/tmp/pbs.5076255.sched01/tmpvsf1hu0j/0g1dnczxv.sdf

>  <i_m_source_file_index>  (42) 
19

>  <i_lp_mmshare_version>  (42) 
48012

>  <i_f3d_flags>  (42) 
0

>  <s_epik_input>  (42) 
W0NIM11uMVtjSF1jKENsKVtjSF1jKGMxPU8pQyg9TylPW0NIMl1DMjNbQ0gyXVtDQEhdNFtDSDJdW0NAQEhdKFtDSDJdMylbQ0gyXVtDQEhdKFtDSDJdNClbQ0gyXTI=

>  <s_epik_cmdline>  (42) 
J2VwaWtfcHl0aG9uJywgJy1waHQnLCAnMi4wJywgJy1waCcsICc3LjAnLCAnLXRuJywgJzgnLCAnLW1hJywgJzIwMCcsICctaW1hZScsICc8aW5maWxlLm1hZT4nLCAnLW9tYWUnLCAnPG91dGZpbGUubWFlPic=

>  <r_lp_tautomer_probability>  (42) 
1

>  <r_epik_Ionization_Penalty>  (42) 
9.7075e-08

>  <r_epik_Ionization_Penalty_Charging>  (42) 
9.7075e-08

>  <r_epik_Ionization_Penalty_Neutral>  (42) 
1.31558e-16

>  <r_epik_State_Penalty>  (42) 
-0

>  <r_epik_Charging_Adjusted_Penalty>  (42) 
9.7075e-08

>  <i_epik_Tot_Q>  (42) 
0

>  <i_epik_Tot_abs_Q>  (42) 
0

>  <s_epik_Chemistry_Notes>  (42) 
This compound has an ester and may undergo hydrolysis at high or low pH.

>  <s_lp_Force_Field>  (42) 
OPLS3e

>  <r_lp_Energy>  (42) 
27.8184

>  <b_lp_Chiralities_Consistent>  (42) 
1

>  <s_lp_Variant>  (42) 
15:0-1

>  <s_i_glide_gridfile>  (42) 
pfpi4k_grid

>  <i_i_glide_lignum>  (42) 
19

>  <i_i_glide_rotatable_bonds>  (42) 
4

>  <r_i_docking_score>  (42) 
-3.22126

>  <r_i_glide_ligand_efficiency>  (42) 
-0.140055

>  <r_i_glide_ligand_efficiency_sa>  (42) 
-0.398297

>  <r_i_glide_ligand_efficiency_ln>  (42) 
-0.77893

>  <r_i_glide_gscore>  (42) 
-3.22126

>  <r_i_glide_lipo>  (42) 
-0.314201

>  <r_i_glide_hbond>  (42) 
-0.181965

>  <r_i_glide_metal>  (42) 
-0

>  <r_i_glide_rewards>  (42) 
-1.11938

>  <r_i_glide_evdw>  (42) 
-23.0699

>  <r_i_glide_ecoul>  (42) 
-6.11377

>  <r_i_glide_erotb>  (42) 
0.502184

>  <r_i_glide_esite>  (42) 
-0.0373414

>  <r_i_glide_emodel>  (42) 
-34.6135

>  <r_i_glide_energy>  (42) 
-29.1837

>  <r_i_glide_einternal>  (42) 
1.88874

>  <r_i_glide_intrahb_reward>  (42) 
-0

>  <i_i_glide_confnum>  (42) 
5

>  <i_i_glide_posenum>  (42) 
29

>  <r_i_glide_eff_state_penalty>  (42) 
0

>  <ligand_id>  (42) 
15

>  <original_smiles>  (42) 
Cn1cc(Cl)cc(C(=O)OCC23CC4CC(CC(C4)C2)C3)c1=O

>  <smiles>  (42) 
[H]c1c(Cl)c([H])n(C([H])([H])[H])c(=O)c1C(=O)OC([H])([H])C12C([H])([H])C3([H])C([H])([H])C([H])(C([H])([H])C([H])(C3([H])[H])C1([H])[H])C2([H])[H]

$$$$
16:0:0
     RDKit          3D

 39 41  0  0  1  0  0  0  0  0999 V2000
    7.2749   -2.2533   -0.6112 O   0  0  0  0  0  0  0  0  0  0  0  0
    6.4152   -3.1304   -0.4521 C   0  0  0  0  0  0  0  0  0  0  0  0
    5.2073   -3.0724   -1.0126 N   0  0  0  0  0  0  0  0  0  0  0  0
    4.7351   -2.0495   -1.9278 C   0  0  0  0  0  0  0  0  0  0  0  0
    3.2405   -1.8547   -1.7154 C   0  0  0  0  0  0  0  0  0  0  0  0
    2.4220   -3.0753   -2.1699 C   0  0  0  0  0  0  0  0  0  0  0  0
    2.7190   -3.4317   -3.6347 C   0  0  0  0  0  0  0  0  0  0  0  0
    4.2163   -3.6715   -3.8436 C   0  0  0  0  0  0  0  0  0  0  0  0
    5.0156   -2.4544   -3.3817 C   0  0  0  0  0  0  0  0  0  0  0  0
    6.6076   -4.3973    0.3357 C   0  0  0  0  0  0  0  0  0  0  0  0
    5.6450   -5.2602    0.6186 N   0  0  0  0  0  0  0  0  0  0  0  0
    6.2330   -6.2685    1.2933 N   0  0  0  0  0  0  0  0  0  0  0  0
    5.4589   -7.3687    1.7438 C   0  0  0  0  0  0  0  0  0  0  0  0
    4.1492   -7.5863    1.2459 C   0  0  0  0  0  0  0  0  0  0  0  0
    3.3792   -8.6737    1.7086 C   0  0  0  0  0  0  0  0  0  0  0  0
    3.9148   -9.5485    2.6781 C   0  0  0  0  0  0  0  0  0  0  0  0
    2.9723  -10.8632    3.2753 Cl  0  0  0  0  0  0  0  0  0  0  0  0
    5.2199   -9.3382    3.1742 C   0  0  0  0  0  0  0  0  0  0  0  0
    5.9886   -8.2536    2.7097 C   0  0  0  0  0  0  0  0  0  0  0  0
    7.5893   -6.0382    1.4334 C   0  0  0  0  0  0  0  0  0  0  0  0
    7.8659   -4.8439    0.8334 C   0  0  0  0  0  0  0  0  0  0  0  0
    9.0798   -4.2344    0.7309 O   0  0  0  0  0  0  0  0  0  0  0  0
    4.6088   -3.8694   -0.8240 H   0  0  0  0  0  0  0  0  0  0  0  0
    5.2387   -1.1032   -1.7170 H   0  0  0  0  0  0  0  0  0  0  0  0
    3.0367   -1.6387   -0.6643 H   0  0  0  0  0  0  0  0  0  0  0  0
    2.9133   -0.9775   -2.2738 H   0  0  0  0  0  0  0  0  0  0  0  0
    2.6385   -3.9278   -1.5230 H   0  0  0  0  0  0  0  0  0  0  0  0
    1.3583   -2.8852   -2.0453 H   0  0  0  0  0  0  0  0  0  0  0  0
    2.1846   -4.3289   -3.9292 H   0  0  0  0  0  0  0  0  0  0  0  0
    2.3550   -2.6344   -4.2842 H   0  0  0  0  0  0  0  0  0  0  0  0
    4.5526   -4.5527   -3.2931 H   0  0  0  0  0  0  0  0  0  0  0  0
    4.4145   -3.8966   -4.8878 H   0  0  0  0  0  0  0  0  0  0  0  0
    4.7739   -1.6107   -4.0281 H   0  0  0  0  0  0  0  0  0  0  0  0
    6.0778   -2.6706   -3.5137 H   0  0  0  0  0  0  0  0  0  0  0  0
    3.7267   -6.9238    0.5050 H   0  0  0  0  0  0  0  0  0  0  0  0
    2.3810   -8.8310    1.3202 H   0  0  0  0  0  0  0  0  0  0  0  0
    5.6354   -9.9984    3.9227 H   0  0  0  0  0  0  0  0  0  0  0  0
    6.9757   -8.0972    3.1131 H   0  0  0  0  0  0  0  0  0  0  0  0
    8.2544   -6.7251    1.9297 H   0  0  0  0  0  0  0  0  0  0  0  0
  1  2  2  0
  2  3  1  0
  2 10  1  0
  3  4  1  0
  3 23  1  0
  4  9  1  0
  4  5  1  0
  4 24  1  0
  5  6  1  0
  5 25  1  0
  5 26  1  0
  6  7  1  0
  6 27  1  0
  6 28  1  0
  7  8  1  0
  7 29  1  0
  7 30  1  0
  8  9  1  0
  8 31  1  0
  8 32  1  0
  9 33  1  0
  9 34  1  0
 10 21  1  0
 10 11  2  0
 11 12  1  0
 12 13  1  0
 12 20  1  0
 13 19  1  0
 13 14  2  0
 14 15  1  0
 14 35  1  0
 15 16  2  0
 15 36  1  0
 16 17  1  0
 16 18  1  0
 18 19  2  0
 18 37  1  0
 19 38  1  0
 20 21  2  0
 20 39  1  0
 21 22  1  0
M  CHG  1  22  -1
M  END
>  <i_m_ct_stereo_status>  (43) 
1

>  <s_m_source_file>  (43) 
/var/tmp/pbs.5076255.sched01/tmpvsf1hu0j/0g1dnczxv.sdf

>  <i_m_source_file_index>  (43) 
20

>  <i_lp_mmshare_version>  (43) 
48012

>  <i_f3d_flags>  (43) 
0

>  <s_epik_input>  (43) 
W0NIMl0xW0NIMl1bQ0gyXVtDSDJdW0NIMl1bQ0hdMVtOSF1DKD1PKWMybm4oW2NIXWMyW09IXSktYzNbY0hdW2NIXWMoQ2wpW2NIXVtjSF0z

>  <s_epik_cmdline>  (43) 
J2VwaWtfcHl0aG9uJywgJy1waHQnLCAnMi4wJywgJy1waCcsICc3LjAnLCAnLXRuJywgJzgnLCAnLW1hJywgJzIwMCcsICctaW1hZScsICc8aW5maWxlLm1hZT4nLCAnLW9tYWUnLCAnPG91dGZpbGUubWFlPic=

>  <r_epik_Ionization_Penalty>  (43) 
0.323847

>  <r_epik_Ionization_Penalty_Charging>  (43) 
0.323816

>  <r_epik_Ionization_Penalty_Neutral>  (43) 
3.05722e-05

>  <r_epik_State_Penalty>  (43) 
0.31852

>  <r_epik_Charging_Adjusted_Penalty>  (43) 
0.642336

>  <i_epik_Tot_Q>  (43) 
-1

>  <i_epik_Tot_abs_Q>  (43) 
1

>  <s_lp_Force_Field>  (43) 
OPLS3e

>  <r_lp_Energy>  (43) 
25.0363

>  <b_lp_Chiralities_Consistent>  (43) 
1

>  <s_lp_Variant>  (43) 
16:0-1

>  <s_i_glide_gridfile>  (43) 
pfpi4k_grid

>  <i_i_glide_lignum>  (43) 
20

>  <i_i_glide_rotatable_bonds>  (43) 
4

>  <r_i_docking_score>  (43) 
-3.31634

>  <r_i_glide_ligand_efficiency>  (43) 
-0.150743

>  <r_i_glide_ligand_efficiency_sa>  (43) 
-0.422387

>  <r_i_glide_ligand_efficiency_ln>  (43) 
-0.810634

>  <r_i_glide_gscore>  (43) 
-3.31634

>  <r_i_glide_lipo>  (43) 
-0.696984

>  <r_i_glide_hbond>  (43) 
-0.199488

>  <r_i_glide_metal>  (43) 
-0

>  <r_i_glide_rewards>  (43) 
-1.45481

>  <r_i_glide_evdw>  (43) 
-27.1308

>  <r_i_glide_ecoul>  (43) 
-2.28411

>  <r_i_glide_erotb>  (43) 
0.734099

>  <r_i_glide_esite>  (43) 
0

>  <r_i_glide_emodel>  (43) 
-37.5474

>  <r_i_glide_energy>  (43) 
-29.4149

>  <r_i_glide_einternal>  (43) 
2.013

>  <r_i_glide_intrahb_reward>  (43) 
-0

>  <i_i_glide_confnum>  (43) 
5

>  <i_i_glide_posenum>  (43) 
7

>  <r_i_glide_eff_state_penalty>  (43) 
0

>  <ligand_id>  (43) 
16

>  <original_smiles>  (43) 
O=C(NC1CCCCC1)c1nn(-c2ccc(Cl)cc2)cc1O

>  <smiles>  (43) 
[H]c1c([H])c(-n2nc(C(=O)N([H])C3([H])C([H])([H])C([H])([H])C([H])([H])C([H])([H])C3([H])[H])c([O-])c2[H])c([H])c([H])c1Cl

$$$$
16:0:1
     RDKit          3D

 39 41  0  0  1  0  0  0  0  0999 V2000
    7.7219   -6.0892    3.0260 O   0  0  0  0  0  0  0  0  0  0  0  0
    6.9414   -6.0033    2.0773 C   0  0  0  0  0  0  0  0  0  0  0  0
    5.9442   -6.8572    1.8568 N   0  0  0  0  0  0  0  0  0  0  0  0
    5.5628   -7.9915    2.6783 C   0  0  0  0  0  0  0  0  0  0  0  0
    5.2951   -9.1888    1.7561 C   0  0  0  0  0  0  0  0  0  0  0  0
    4.0474   -8.9655    0.8838 C   0  0  0  0  0  0  0  0  0  0  0  0
    2.8108   -8.6461    1.7361 C   0  0  0  0  0  0  0  0  0  0  0  0
    3.0633   -7.4336    2.6483 C   0  0  0  0  0  0  0  0  0  0  0  0
    4.3176   -7.6430    3.5192 C   0  0  0  0  0  0  0  0  0  0  0  0
    7.0022   -4.9196    1.0376 C   0  0  0  0  0  0  0  0  0  0  0  0
    5.9968   -4.5302    0.2693 N   0  0  0  0  0  0  0  0  0  0  0  0
    6.5027   -3.5351   -0.4904 N   0  0  0  0  0  0  0  0  0  0  0  0
    5.6875   -2.8770   -1.4000 C   0  0  0  0  0  0  0  0  0  0  0  0
    5.1014   -3.5970   -2.4568 C   0  0  0  0  0  0  0  0  0  0  0  0
    4.2635   -2.9416   -3.3724 C   0  0  0  0  0  0  0  0  0  0  0  0
    4.0223   -1.5627   -3.2140 C   0  0  0  0  0  0  0  0  0  0  0  0
    3.0329   -0.7059   -4.3251 Cl  0  0  0  0  0  0  0  0  0  0  0  0
    4.6036   -0.8567   -2.1470 C   0  0  0  0  0  0  0  0  0  0  0  0
    5.4409   -1.5048   -1.2316 C   0  0  0  0  0  0  0  0  0  0  0  0
    7.8359   -3.3125   -0.2441 C   0  0  0  0  0  0  0  0  0  0  0  0
    8.1883   -4.1845    0.7339 C   0  0  0  0  0  0  0  0  0  0  0  0
    9.4140   -4.3195    1.2742 O   0  0  0  0  0  0  0  0  0  0  0  0
    5.3896   -6.6390    1.0418 H   0  0  0  0  0  0  0  0  0  0  0  0
    6.3755   -8.2566    3.3604 H   0  0  0  0  0  0  0  0  0  0  0  0
    6.1666   -9.3727    1.1245 H   0  0  0  0  0  0  0  0  0  0  0  0
    5.1608  -10.0843    2.3640 H   0  0  0  0  0  0  0  0  0  0  0  0
    4.2233   -8.1595    0.1714 H   0  0  0  0  0  0  0  0  0  0  0  0
    3.8590   -9.8533    0.2795 H   0  0  0  0  0  0  0  0  0  0  0  0
    1.9503   -8.4574    1.0935 H   0  0  0  0  0  0  0  0  0  0  0  0
    2.5534   -9.5153    2.3423 H   0  0  0  0  0  0  0  0  0  0  0  0
    3.1832   -6.5361    2.0406 H   0  0  0  0  0  0  0  0  0  0  0  0
    2.1918   -7.2565    3.2815 H   0  0  0  0  0  0  0  0  0  0  0  0
    4.1283   -8.4551    4.2212 H   0  0  0  0  0  0  0  0  0  0  0  0
    4.4972   -6.7575    4.1313 H   0  0  0  0  0  0  0  0  0  0  0  0
    5.2999   -4.6562   -2.5452 H   0  0  0  0  0  0  0  0  0  0  0  0
    3.8194   -3.5058   -4.1803 H   0  0  0  0  0  0  0  0  0  0  0  0
    4.3992    0.1925   -2.0352 H   0  0  0  0  0  0  0  0  0  0  0  0
    5.8785   -0.9686   -0.3951 H   0  0  0  0  0  0  0  0  0  0  0  0
    8.4358   -2.5731   -0.7591 H   0  0  0  0  0  0  0  0  0  0  0  0
  1  2  2  0
  2  3  1  0
  2 10  1  0
  3  4  1  0
  3 23  1  0
  4  9  1  0
  4  5  1  0
  4 24  1  0
  5  6  1  0
  5 25  1  0
  5 26  1  0
  6  7  1  0
  6 27  1  0
  6 28  1  0
  7  8  1  0
  7 29  1  0
  7 30  1  0
  8  9  1  0
  8 31  1  0
  8 32  1  0
  9 33  1  0
  9 34  1  0
 10 21  1  0
 10 11  2  0
 11 12  1  0
 12 13  1  0
 12 20  1  0
 13 19  1  0
 13 14  2  0
 14 15  1  0
 14 35  1  0
 15 16  2  0
 15 36  1  0
 16 17  1  0
 16 18  1  0
 18 19  2  0
 18 37  1  0
 19 38  1  0
 20 21  2  0
 20 39  1  0
 21 22  1  0
M  CHG  1  22  -1
M  END
>  <i_m_ct_stereo_status>  (44) 
1

>  <s_m_source_file>  (44) 
/var/tmp/pbs.5076255.sched01/tmpvsf1hu0j/0g1dnczxv.sdf

>  <i_m_source_file_index>  (44) 
20

>  <i_lp_mmshare_version>  (44) 
48012

>  <i_f3d_flags>  (44) 
0

>  <s_epik_input>  (44) 
W0NIMl0xW0NIMl1bQ0gyXVtDSDJdW0NIMl1bQ0hdMVtOSF1DKD1PKWMybm4oW2NIXWMyW09IXSktYzNbY0hdW2NIXWMoQ2wpW2NIXVtjSF0z

>  <s_epik_cmdline>  (44) 
J2VwaWtfcHl0aG9uJywgJy1waHQnLCAnMi4wJywgJy1waCcsICc3LjAnLCAnLXRuJywgJzgnLCAnLW1hJywgJzIwMCcsICctaW1hZScsICc8aW5maWxlLm1hZT4nLCAnLW9tYWUnLCAnPG91dGZpbGUubWFlPic=

>  <r_epik_Ionization_Penalty>  (44) 
0.323847

>  <r_epik_Ionization_Penalty_Charging>  (44) 
0.323816

>  <r_epik_Ionization_Penalty_Neutral>  (44) 
3.05722e-05

>  <r_epik_State_Penalty>  (44) 
0.31852

>  <r_epik_Charging_Adjusted_Penalty>  (44) 
0.642336

>  <i_epik_Tot_Q>  (44) 
-1

>  <i_epik_Tot_abs_Q>  (44) 
1

>  <s_lp_Force_Field>  (44) 
OPLS3e

>  <r_lp_Energy>  (44) 
25.0363

>  <b_lp_Chiralities_Consistent>  (44) 
1

>  <s_lp_Variant>  (44) 
16:0-1

>  <s_i_glide_gridfile>  (44) 
pfpi4k_grid

>  <i_i_glide_lignum>  (44) 
20

>  <i_i_glide_rotatable_bonds>  (44) 
4

>  <r_i_docking_score>  (44) 
-3.2192

>  <r_i_glide_ligand_efficiency>  (44) 
-0.146327

>  <r_i_glide_ligand_efficiency_sa>  (44) 
-0.410015

>  <r_i_glide_ligand_efficiency_ln>  (44) 
-0.78689

>  <r_i_glide_gscore>  (44) 
-3.2192

>  <r_i_glide_lipo>  (44) 
-1.02499

>  <r_i_glide_hbond>  (44) 
-0.00981871

>  <r_i_glide_metal>  (44) 
-0

>  <r_i_glide_rewards>  (44) 
-1.43626

>  <r_i_glide_evdw>  (44) 
-31.2441

>  <r_i_glide_ecoul>  (44) 
0.533166

>  <r_i_glide_erotb>  (44) 
0.734099

>  <r_i_glide_esite>  (44) 
0

>  <r_i_glide_emodel>  (44) 
-37.3386

>  <r_i_glide_energy>  (44) 
-30.7109

>  <r_i_glide_einternal>  (44) 
4.34543

>  <r_i_glide_intrahb_reward>  (44) 
-0

>  <i_i_glide_confnum>  (44) 
5

>  <i_i_glide_posenum>  (44) 
8

>  <r_i_glide_eff_state_penalty>  (44) 
0

>  <ligand_id>  (44) 
16

>  <original_smiles>  (44) 
O=C(NC1CCCCC1)c1nn(-c2ccc(Cl)cc2)cc1O

>  <smiles>  (44) 
[H]c1c([H])c(-n2nc(C(=O)N([H])C3([H])C([H])([H])C([H])([H])C([H])([H])C([H])([H])C3([H])[H])c([O-])c2[H])c([H])c([H])c1Cl

$$$$
16:0:2
     RDKit          3D

 39 41  0  0  1  0  0  0  0  0999 V2000
    5.2852   -0.5393    0.9544 O   0  0  0  0  0  0  0  0  0  0  0  0
    4.1536   -0.8832    0.5982 C   0  0  0  0  0  0  0  0  0  0  0  0
    3.8139   -1.1552   -0.6647 N   0  0  0  0  0  0  0  0  0  0  0  0
    4.7194   -1.0950   -1.8092 C   0  0  0  0  0  0  0  0  0  0  0  0
    3.9130   -0.8156   -3.0861 C   0  0  0  0  0  0  0  0  0  0  0  0
    3.0079   -2.0016   -3.4452 C   0  0  0  0  0  0  0  0  0  0  0  0
    3.8163   -3.2989   -3.5732 C   0  0  0  0  0  0  0  0  0  0  0  0
    4.6199   -3.5834   -2.2931 C   0  0  0  0  0  0  0  0  0  0  0  0
    5.5268   -2.4014   -1.9266 C   0  0  0  0  0  0  0  0  0  0  0  0
    2.9987   -0.9205    1.5421 C   0  0  0  0  0  0  0  0  0  0  0  0
    2.3112    0.1528    1.9409 N   0  0  0  0  0  0  0  0  0  0  0  0
    1.3353   -0.3462    2.7214 N   0  0  0  0  0  0  0  0  0  0  0  0
    0.3861    0.5190    3.2915 C   0  0  0  0  0  0  0  0  0  0  0  0
    0.1246    1.7842    2.7114 C   0  0  0  0  0  0  0  0  0  0  0  0
   -0.8022    2.6624    3.3077 C   0  0  0  0  0  0  0  0  0  0  0  0
   -1.4706    2.2717    4.4869 C   0  0  0  0  0  0  0  0  0  0  0  0
   -2.5700    3.3477    5.2547 Cl  0  0  0  0  0  0  0  0  0  0  0  0
   -1.2298    1.0080    5.0600 C   0  0  0  0  0  0  0  0  0  0  0  0
   -0.3042    0.1320    4.4626 C   0  0  0  0  0  0  0  0  0  0  0  0
    1.4387   -1.7242    2.8400 C   0  0  0  0  0  0  0  0  0  0  0  0
    2.4823   -2.1500    2.0799 C   0  0  0  0  0  0  0  0  0  0  0  0
    2.9242   -3.4442    1.8824 O   0  0  0  0  0  0  0  0  0  0  0  0
    2.8369   -1.3914   -0.8064 H   0  0  0  0  0  0  0  0  0  0  0  0
    5.4188   -0.2648   -1.6760 H   0  0  0  0  0  0  0  0  0  0  0  0
    3.3134    0.0904   -2.9757 H   0  0  0  0  0  0  0  0  0  0  0  0
    4.5975   -0.6223   -3.9127 H   0  0  0  0  0  0  0  0  0  0  0  0
    2.2349   -2.1262   -2.6856 H   0  0  0  0  0  0  0  0  0  0  0  0
    2.4696   -1.7920   -4.3658 H   0  0  0  0  0  0  0  0  0  0  0  0
    3.1379   -4.1244   -3.7854 H   0  0  0  0  0  0  0  0  0  0  0  0
    4.4973   -3.2367   -4.4196 H   0  0  0  0  0  0  0  0  0  0  0  0
    3.9367   -3.7930   -1.4690 H   0  0  0  0  0  0  0  0  0  0  0  0
    5.2142   -4.4873   -2.4221 H   0  0  0  0  0  0  0  0  0  0  0  0
    6.2862   -2.2921   -2.6994 H   0  0  0  0  0  0  0  0  0  0  0  0
    6.0658   -2.6123   -1.0021 H   0  0  0  0  0  0  0  0  0  0  0  0
    0.6379    2.1014    1.8048 H   0  0  0  0  0  0  0  0  0  0  0  0
   -0.9783    3.6366    2.8544 H   0  0  0  0  0  0  0  0  0  0  0  0
   -1.7391    0.7183    5.9728 H   0  0  0  0  0  0  0  0  0  0  0  0
   -0.0961   -0.8249    4.9267 H   0  0  0  0  0  0  0  0  0  0  0  0
    0.7471   -2.3010    3.4307 H   0  0  0  0  0  0  0  0  0  0  0  0
  1  2  2  0
  2  3  1  0
  2 10  1  0
  3  4  1  0
  3 23  1  0
  4  9  1  0
  4  5  1  0
  4 24  1  0
  5  6  1  0
  5 25  1  0
  5 26  1  0
  6  7  1  0
  6 27  1  0
  6 28  1  0
  7  8  1  0
  7 29  1  0
  7 30  1  0
  8  9  1  0
  8 31  1  0
  8 32  1  0
  9 33  1  0
  9 34  1  0
 10 21  1  0
 10 11  2  0
 11 12  1  0
 12 13  1  0
 12 20  1  0
 13 19  1  0
 13 14  2  0
 14 15  1  0
 14 35  1  0
 15 16  2  0
 15 36  1  0
 16 17  1  0
 16 18  1  0
 18 19  2  0
 18 37  1  0
 19 38  1  0
 20 21  2  0
 20 39  1  0
 21 22  1  0
M  CHG  1  22  -1
M  END
>  <i_m_ct_stereo_status>  (45) 
1

>  <s_m_source_file>  (45) 
/var/tmp/pbs.5076255.sched01/tmpvsf1hu0j/0g1dnczxv.sdf

>  <i_m_source_file_index>  (45) 
20

>  <i_lp_mmshare_version>  (45) 
48012

>  <i_f3d_flags>  (45) 
0

>  <s_epik_input>  (45) 
W0NIMl0xW0NIMl1bQ0gyXVtDSDJdW0NIMl1bQ0hdMVtOSF1DKD1PKWMybm4oW2NIXWMyW09IXSktYzNbY0hdW2NIXWMoQ2wpW2NIXVtjSF0z

>  <s_epik_cmdline>  (45) 
J2VwaWtfcHl0aG9uJywgJy1waHQnLCAnMi4wJywgJy1waCcsICc3LjAnLCAnLXRuJywgJzgnLCAnLW1hJywgJzIwMCcsICctaW1hZScsICc8aW5maWxlLm1hZT4nLCAnLW9tYWUnLCAnPG91dGZpbGUubWFlPic=

>  <r_epik_Ionization_Penalty>  (45) 
0.323847

>  <r_epik_Ionization_Penalty_Charging>  (45) 
0.323816

>  <r_epik_Ionization_Penalty_Neutral>  (45) 
3.05722e-05

>  <r_epik_State_Penalty>  (45) 
0.31852

>  <r_epik_Charging_Adjusted_Penalty>  (45) 
0.642336

>  <i_epik_Tot_Q>  (45) 
-1

>  <i_epik_Tot_abs_Q>  (45) 
1

>  <s_lp_Force_Field>  (45) 
OPLS3e

>  <r_lp_Energy>  (45) 
25.0363

>  <b_lp_Chiralities_Consistent>  (45) 
1

>  <s_lp_Variant>  (45) 
16:0-1

>  <s_i_glide_gridfile>  (45) 
pfpi4k_grid

>  <i_i_glide_lignum>  (45) 
20

>  <i_i_glide_rotatable_bonds>  (45) 
4

>  <r_i_docking_score>  (45) 
-2.98619

>  <r_i_glide_ligand_efficiency>  (45) 
-0.135736

>  <r_i_glide_ligand_efficiency_sa>  (45) 
-0.380337

>  <r_i_glide_ligand_efficiency_ln>  (45) 
-0.729933

>  <r_i_glide_gscore>  (45) 
-2.98619

>  <r_i_glide_lipo>  (45) 
-0.497028

>  <r_i_glide_hbond>  (45) 
-0.114523

>  <r_i_glide_metal>  (45) 
-0

>  <r_i_glide_rewards>  (45) 
-1.27788

>  <r_i_glide_evdw>  (45) 
-33.5598

>  <r_i_glide_ecoul>  (45) 
-0.363801

>  <r_i_glide_erotb>  (45) 
0.734099

>  <r_i_glide_esite>  (45) 
-0.0982928

>  <r_i_glide_emodel>  (45) 
-40.5693

>  <r_i_glide_energy>  (45) 
-33.9236

>  <r_i_glide_einternal>  (45) 
3.02344

>  <r_i_glide_intrahb_reward>  (45) 
-0

>  <i_i_glide_confnum>  (45) 
3

>  <i_i_glide_posenum>  (45) 
5

>  <r_i_glide_eff_state_penalty>  (45) 
0

>  <ligand_id>  (45) 
16

>  <original_smiles>  (45) 
O=C(NC1CCCCC1)c1nn(-c2ccc(Cl)cc2)cc1O

>  <smiles>  (45) 
[H]c1c([H])c(-n2nc(C(=O)N([H])C3([H])C([H])([H])C([H])([H])C([H])([H])C([H])([H])C3([H])[H])c([O-])c2[H])c([H])c([H])c1Cl

$$$$
16:1:0
     RDKit          3D

 40 42  0  0  1  0  0  0  0  0999 V2000
    7.4862   -7.1793    2.3165 O   0  0  0  0  0  0  0  0  0  0  0  0
    6.5426   -6.7147    1.6771 C   0  0  0  0  0  0  0  0  0  0  0  0
    5.3247   -7.2620    1.6167 N   0  0  0  0  0  0  0  0  0  0  0  0
    4.8911   -8.4992    2.2559 C   0  0  0  0  0  0  0  0  0  0  0  0
    3.6696   -9.0576    1.5040 C   0  0  0  0  0  0  0  0  0  0  0  0
    2.4262   -8.1649    1.6838 C   0  0  0  0  0  0  0  0  0  0  0  0
    2.1066   -7.9416    3.1702 C   0  0  0  0  0  0  0  0  0  0  0  0
    3.3183   -7.3711    3.9261 C   0  0  0  0  0  0  0  0  0  0  0  0
    4.5608   -8.2625    3.7447 C   0  0  0  0  0  0  0  0  0  0  0  0
    6.6657   -5.4496    0.8805 C   0  0  0  0  0  0  0  0  0  0  0  0
    5.7311   -4.9476    0.0858 N   0  0  0  0  0  0  0  0  0  0  0  0
    6.2774   -3.8356   -0.4427 N   0  0  0  0  0  0  0  0  0  0  0  0
    5.5491   -3.0673   -1.3713 C   0  0  0  0  0  0  0  0  0  0  0  0
    4.9340   -3.6725   -2.4908 C   0  0  0  0  0  0  0  0  0  0  0  0
    4.1913   -2.8927   -3.4014 C   0  0  0  0  0  0  0  0  0  0  0  0
    4.0646   -1.5080   -3.1918 C   0  0  0  0  0  0  0  0  0  0  0  0
    3.2042   -0.5333   -4.3181 Cl  0  0  0  0  0  0  0  0  0  0  0  0
    4.6666   -0.9120   -2.0676 C   0  0  0  0  0  0  0  0  0  0  0  0
    5.4158   -1.6842   -1.1613 C   0  0  0  0  0  0  0  0  0  0  0  0
    7.5515   -3.6174    0.0409 C   0  0  0  0  0  0  0  0  0  0  0  0
    7.8486   -4.6524    0.8799 C   0  0  0  0  0  0  0  0  0  0  0  0
    9.0217   -4.8768    1.5445 O   0  0  0  0  0  0  0  0  0  0  0  0
    4.6403   -6.7346    1.0874 H   0  0  0  0  0  0  0  0  0  0  0  0
    5.7007   -9.2278    2.1828 H   0  0  0  0  0  0  0  0  0  0  0  0
    3.9011   -9.1751    0.4446 H   0  0  0  0  0  0  0  0  0  0  0  0
    3.4532  -10.0595    1.8718 H   0  0  0  0  0  0  0  0  0  0  0  0
    2.5826   -7.2017    1.1964 H   0  0  0  0  0  0  0  0  0  0  0  0
    1.5701   -8.6217    1.1857 H   0  0  0  0  0  0  0  0  0  0  0  0
    1.2546   -7.2689    3.2699 H   0  0  0  0  0  0  0  0  0  0  0  0
    1.8079   -8.8886    3.6216 H   0  0  0  0  0  0  0  0  0  0  0  0
    3.5316   -6.3641    3.5670 H   0  0  0  0  0  0  0  0  0  0  0  0
    3.0822   -7.2704    4.9865 H   0  0  0  0  0  0  0  0  0  0  0  0
    4.3845   -9.2238    4.2246 H   0  0  0  0  0  0  0  0  0  0  0  0
    5.4124   -7.8230    4.2670 H   0  0  0  0  0  0  0  0  0  0  0  0
    5.0149   -4.7374   -2.6425 H   0  0  0  0  0  0  0  0  0  0  0  0
    3.7189   -3.3632   -4.2529 H   0  0  0  0  0  0  0  0  0  0  0  0
    4.5620    0.1422   -1.9012 H   0  0  0  0  0  0  0  0  0  0  0  0
    5.8706   -1.2256   -0.2970 H   0  0  0  0  0  0  0  0  0  0  0  0
    8.1516   -2.7763   -0.2723 H   0  0  0  0  0  0  0  0  0  0  0  0
    8.9957   -5.6472    2.0990 H   0  0  0  0  0  0  0  0  0  0  0  0
  1  2  2  0
  2  3  1  0
  2 10  1  0
  3  4  1  0
  3 23  1  0
  4  9  1  0
  4  5  1  0
  4 24  1  0
  5  6  1  0
  5 25  1  0
  5 26  1  0
  6  7  1  0
  6 27  1  0
  6 28  1  0
  7  8  1  0
  7 29  1  0
  7 30  1  0
  8  9  1  0
  8 31  1  0
  8 32  1  0
  9 33  1  0
  9 34  1  0
 10 21  1  0
 10 11  2  0
 11 12  1  0
 12 13  1  0
 12 20  1  0
 13 19  1  0
 13 14  2  0
 14 15  1  0
 14 35  1  0
 15 16  2  0
 15 36  1  0
 16 17  1  0
 16 18  1  0
 18 19  2  0
 18 37  1  0
 19 38  1  0
 20 21  2  0
 20 39  1  0
 21 22  1  0
 22 40  1  0
M  END
>  <i_m_ct_stereo_status>  (46) 
1

>  <s_m_source_file>  (46) 
/var/tmp/pbs.5076255.sched01/tmpvsf1hu0j/0g1dnczxv.sdf

>  <i_m_source_file_index>  (46) 
21

>  <i_lp_mmshare_version>  (46) 
48012

>  <i_f3d_flags>  (46) 
0

>  <s_epik_input>  (46) 
W0NIMl0xW0NIMl1bQ0gyXVtDSDJdW0NIMl1bQ0hdMVtOSF1DKD1PKWMybm4oW2NIXWMyW09IXSktYzNbY0hdW2NIXWMoQ2wpW2NIXVtjSF0z

>  <s_epik_cmdline>  (46) 
J2VwaWtfcHl0aG9uJywgJy1waHQnLCAnMi4wJywgJy1waCcsICc3LjAnLCAnLXRuJywgJzgnLCAnLW1hJywgJzIwMCcsICctaW1hZScsICc8aW5maWxlLm1hZT4nLCAnLW9tYWUnLCAnPG91dGZpbGUubWFlPic=

>  <r_lp_tautomer_probability>  (46) 
1

>  <r_epik_Ionization_Penalty>  (46) 
0.512504

>  <r_epik_Ionization_Penalty_Charging>  (46) 
0

>  <r_epik_Ionization_Penalty_Neutral>  (46) 
0.512504

>  <r_epik_State_Penalty>  (46) 
0.519864

>  <r_epik_Charging_Adjusted_Penalty>  (46) 
0.519864

>  <i_epik_Tot_Q>  (46) 
0

>  <i_epik_Tot_abs_Q>  (46) 
0

>  <s_lp_Force_Field>  (46) 
OPLS3e

>  <r_lp_Energy>  (46) 
25.4399

>  <b_lp_Chiralities_Consistent>  (46) 
1

>  <s_lp_Variant>  (46) 
16:0-2

>  <s_i_glide_gridfile>  (46) 
pfpi4k_grid

>  <i_i_glide_lignum>  (46) 
21

>  <i_i_glide_rotatable_bonds>  (46) 
5

>  <r_i_docking_score>  (46) 
-3.93413

>  <r_i_glide_ligand_efficiency>  (46) 
-0.178824

>  <r_i_glide_ligand_efficiency_sa>  (46) 
-0.501072

>  <r_i_glide_ligand_efficiency_ln>  (46) 
-0.961645

>  <r_i_glide_gscore>  (46) 
-3.93413

>  <r_i_glide_lipo>  (46) 
-1.02556

>  <r_i_glide_hbond>  (46) 
0

>  <r_i_glide_metal>  (46) 
-0

>  <r_i_glide_rewards>  (46) 
-1.91585

>  <r_i_glide_evdw>  (46) 
-32.333

>  <r_i_glide_ecoul>  (46) 
-0.707295

>  <r_i_glide_erotb>  (46) 
0.730028

>  <r_i_glide_esite>  (46) 
0

>  <r_i_glide_emodel>  (46) 
-45.2986

>  <r_i_glide_energy>  (46) 
-33.0403

>  <r_i_glide_einternal>  (46) 
2.73149

>  <r_i_glide_intrahb_reward>  (46) 
-0.5

>  <i_i_glide_confnum>  (46) 
4

>  <i_i_glide_posenum>  (46) 
4

>  <r_i_glide_eff_state_penalty>  (46) 
0

>  <ligand_id>  (46) 
16

>  <original_smiles>  (46) 
O=C(NC1CCCCC1)c1nn(-c2ccc(Cl)cc2)cc1O

>  <smiles>  (46) 
[H]Oc1c(C(=O)N([H])C2([H])C([H])([H])C([H])([H])C([H])([H])C([H])([H])C2([H])[H])nn(-c2c([H])c([H])c(Cl)c([H])c2[H])c1[H]

$$$$
16:1:1
     RDKit          3D

 40 42  0  0  1  0  0  0  0  0999 V2000
    6.2533   -0.9789    0.4447 O   0  0  0  0  0  0  0  0  0  0  0  0
    5.0511   -0.7526    0.3044 C   0  0  0  0  0  0  0  0  0  0  0  0
    4.3873   -0.8742   -0.8490 N   0  0  0  0  0  0  0  0  0  0  0  0
    4.9815   -1.1075   -2.1570 C   0  0  0  0  0  0  0  0  0  0  0  0
    3.9607   -0.7795   -3.2605 C   0  0  0  0  0  0  0  0  0  0  0  0
    2.8098   -1.7860   -3.2649 C   0  0  0  0  0  0  0  0  0  0  0  0
    3.3090   -3.2195   -3.3685 C   0  0  0  0  0  0  0  0  0  0  0  0
    4.3250   -3.5388   -2.2610 C   0  0  0  0  0  0  0  0  0  0  0  0
    5.4937   -2.5533   -2.2816 C   0  0  0  0  0  0  0  0  0  0  0  0
    4.1875   -0.2753    1.4326 C   0  0  0  0  0  0  0  0  0  0  0  0
    2.9717    0.2273    1.3002 N   0  0  0  0  0  0  0  0  0  0  0  0
    2.5947    0.5797    2.5466 N   0  0  0  0  0  0  0  0  0  0  0  0
    1.3294    1.1610    2.7734 C   0  0  0  0  0  0  0  0  0  0  0  0
    0.2741    0.9260    1.8706 C   0  0  0  0  0  0  0  0  0  0  0  0
   -0.9985    1.4720    2.1027 C   0  0  0  0  0  0  0  0  0  0  0  0
   -1.2168    2.2866    3.2288 C   0  0  0  0  0  0  0  0  0  0  0  0
   -2.7586    2.9978    3.4948 Cl  0  0  0  0  0  0  0  0  0  0  0  0
   -0.1626    2.5330    4.1323 C   0  0  0  0  0  0  0  0  0  0  0  0
    1.1087    1.9687    3.9084 C   0  0  0  0  0  0  0  0  0  0  0  0
    3.5726    0.2656    3.4701 C   0  0  0  0  0  0  0  0  0  0  0  0
    4.6213   -0.2658    2.7862 C   0  0  0  0  0  0  0  0  0  0  0  0
    5.8164   -0.6693    3.2942 O   0  0  0  0  0  0  0  0  0  0  0  0
    3.3893   -0.6887   -0.7952 H   0  0  0  0  0  0  0  0  0  0  0  0
    5.8160   -0.4196   -2.2724 H   0  0  0  0  0  0  0  0  0  0  0  0
    3.5700    0.2327   -3.1410 H   0  0  0  0  0  0  0  0  0  0  0  0
    4.4505   -0.8037   -4.2321 H   0  0  0  0  0  0  0  0  0  0  0  0
    2.2155   -1.6788   -2.3556 H   0  0  0  0  0  0  0  0  0  0  0  0
    2.1571   -1.5840   -4.1104 H   0  0  0  0  0  0  0  0  0  0  0  0
    2.4439   -3.8750   -3.2930 H   0  0  0  0  0  0  0  0  0  0  0  0
    3.7554   -3.3895   -4.3474 H   0  0  0  0  0  0  0  0  0  0  0  0
    3.8295   -3.5179   -1.2885 H   0  0  0  0  0  0  0  0  0  0  0  0
    4.7042   -4.5527   -2.3860 H   0  0  0  0  0  0  0  0  0  0  0  0
    6.0493   -2.6679   -3.2094 H   0  0  0  0  0  0  0  0  0  0  0  0
    6.1966   -2.8003   -1.4854 H   0  0  0  0  0  0  0  0  0  0  0  0
    0.4420    0.3270    0.9894 H   0  0  0  0  0  0  0  0  0  0  0  0
   -1.7905    1.2816    1.3941 H   0  0  0  0  0  0  0  0  0  0  0  0
   -0.3226    3.1603    4.9938 H   0  0  0  0  0  0  0  0  0  0  0  0
    1.9151    2.1683    4.5980 H   0  0  0  0  0  0  0  0  0  0  0  0
    3.4616    0.4522    4.5251 H   0  0  0  0  0  0  0  0  0  0  0  0
    6.4286   -0.9400    2.6174 H   0  0  0  0  0  0  0  0  0  0  0  0
  1  2  2  0
  2  3  1  0
  2 10  1  0
  3  4  1  0
  3 23  1  0
  4  9  1  0
  4  5  1  0
  4 24  1  0
  5  6  1  0
  5 25  1  0
  5 26  1  0
  6  7  1  0
  6 27  1  0
  6 28  1  0
  7  8  1  0
  7 29  1  0
  7 30  1  0
  8  9  1  0
  8 31  1  0
  8 32  1  0
  9 33  1  0
  9 34  1  0
 10 21  1  0
 10 11  2  0
 11 12  1  0
 12 13  1  0
 12 20  1  0
 13 19  1  0
 13 14  2  0
 14 15  1  0
 14 35  1  0
 15 16  2  0
 15 36  1  0
 16 17  1  0
 16 18  1  0
 18 19  2  0
 18 37  1  0
 19 38  1  0
 20 21  2  0
 20 39  1  0
 21 22  1  0
 22 40  1  0
M  END
>  <i_m_ct_stereo_status>  (47) 
1

>  <s_m_source_file>  (47) 
/var/tmp/pbs.5076255.sched01/tmpvsf1hu0j/0g1dnczxv.sdf

>  <i_m_source_file_index>  (47) 
21

>  <i_lp_mmshare_version>  (47) 
48012

>  <i_f3d_flags>  (47) 
0

>  <s_epik_input>  (47) 
W0NIMl0xW0NIMl1bQ0gyXVtDSDJdW0NIMl1bQ0hdMVtOSF1DKD1PKWMybm4oW2NIXWMyW09IXSktYzNbY0hdW2NIXWMoQ2wpW2NIXVtjSF0z

>  <s_epik_cmdline>  (47) 
J2VwaWtfcHl0aG9uJywgJy1waHQnLCAnMi4wJywgJy1waCcsICc3LjAnLCAnLXRuJywgJzgnLCAnLW1hJywgJzIwMCcsICctaW1hZScsICc8aW5maWxlLm1hZT4nLCAnLW9tYWUnLCAnPG91dGZpbGUubWFlPic=

>  <r_lp_tautomer_probability>  (47) 
1

>  <r_epik_Ionization_Penalty>  (47) 
0.512504

>  <r_epik_Ionization_Penalty_Charging>  (47) 
0

>  <r_epik_Ionization_Penalty_Neutral>  (47) 
0.512504

>  <r_epik_State_Penalty>  (47) 
0.519864

>  <r_epik_Charging_Adjusted_Penalty>  (47) 
0.519864

>  <i_epik_Tot_Q>  (47) 
0

>  <i_epik_Tot_abs_Q>  (47) 
0

>  <s_lp_Force_Field>  (47) 
OPLS3e

>  <r_lp_Energy>  (47) 
25.4399

>  <b_lp_Chiralities_Consistent>  (47) 
1

>  <s_lp_Variant>  (47) 
16:0-2

>  <s_i_glide_gridfile>  (47) 
pfpi4k_grid

>  <i_i_glide_lignum>  (47) 
21

>  <i_i_glide_rotatable_bonds>  (47) 
5

>  <r_i_docking_score>  (47) 
-3.66994

>  <r_i_glide_ligand_efficiency>  (47) 
-0.166815

>  <r_i_glide_ligand_efficiency_sa>  (47) 
-0.467423

>  <r_i_glide_ligand_efficiency_ln>  (47) 
-0.897066

>  <r_i_glide_gscore>  (47) 
-3.66994

>  <r_i_glide_lipo>  (47) 
-0.616246

>  <r_i_glide_hbond>  (47) 
0

>  <r_i_glide_metal>  (47) 
-0

>  <r_i_glide_rewards>  (47) 
-1.89519

>  <r_i_glide_evdw>  (47) 
-31.4204

>  <r_i_glide_ecoul>  (47) 
-1.86003

>  <r_i_glide_erotb>  (47) 
0.730028

>  <r_i_glide_esite>  (47) 
-0.0385101

>  <r_i_glide_emodel>  (47) 
-45.2449

>  <r_i_glide_energy>  (47) 
-33.2804

>  <r_i_glide_einternal>  (47) 
1.97191

>  <r_i_glide_intrahb_reward>  (47) 
-0.5

>  <i_i_glide_confnum>  (47) 
4

>  <i_i_glide_posenum>  (47) 
14

>  <r_i_glide_eff_state_penalty>  (47) 
0

>  <ligand_id>  (47) 
16

>  <original_smiles>  (47) 
O=C(NC1CCCCC1)c1nn(-c2ccc(Cl)cc2)cc1O

>  <smiles>  (47) 
[H]Oc1c(C(=O)N([H])C2([H])C([H])([H])C([H])([H])C([H])([H])C([H])([H])C2([H])[H])nn(-c2c([H])c([H])c(Cl)c([H])c2[H])c1[H]

$$$$
16:1:2
     RDKit          3D

 40 42  0  0  1  0  0  0  0  0999 V2000
    4.4425    0.1411    4.6059 O   0  0  0  0  0  0  0  0  0  0  0  0
    3.6732    0.0823    3.6455 C   0  0  0  0  0  0  0  0  0  0  0  0
    4.0020   -0.4806    2.4800 N   0  0  0  0  0  0  0  0  0  0  0  0
    5.2891   -1.0757    2.1353 C   0  0  0  0  0  0  0  0  0  0  0  0
    5.6611   -0.6608    0.7080 C   0  0  0  0  0  0  0  0  0  0  0  0
    4.7184   -1.2877   -0.3365 C   0  0  0  0  0  0  0  0  0  0  0  0
    4.6736   -2.8186   -0.1963 C   0  0  0  0  0  0  0  0  0  0  0  0
    4.2868   -3.2408    1.2319 C   0  0  0  0  0  0  0  0  0  0  0  0
    5.2241   -2.6078    2.2762 C   0  0  0  0  0  0  0  0  0  0  0  0
    2.2599    0.6023    3.7299 C   0  0  0  0  0  0  0  0  0  0  0  0
    1.6592    0.9514    4.8534 N   0  0  0  0  0  0  0  0  0  0  0  0
    0.4296    1.3884    4.4970 N   0  0  0  0  0  0  0  0  0  0  0  0
   -0.4787    1.8508    5.4809 C   0  0  0  0  0  0  0  0  0  0  0  0
   -0.1769    1.7254    6.8573 C   0  0  0  0  0  0  0  0  0  0  0  0
   -1.0794    2.1908    7.8288 C   0  0  0  0  0  0  0  0  0  0  0  0
   -2.2879    2.7865    7.4347 C   0  0  0  0  0  0  0  0  0  0  0  0
   -3.3833    3.3441    8.6334 Cl  0  0  0  0  0  0  0  0  0  0  0  0
   -2.5930    2.9169    6.0663 C   0  0  0  0  0  0  0  0  0  0  0  0
   -1.6962    2.4480    5.0919 C   0  0  0  0  0  0  0  0  0  0  0  0
    0.2599    1.3005    3.1246 C   0  0  0  0  0  0  0  0  0  0  0  0
    1.4092    0.7945    2.5984 C   0  0  0  0  0  0  0  0  0  0  0  0
    1.6722    0.5461    1.2810 O   0  0  0  0  0  0  0  0  0  0  0  0
    3.2701   -0.4716    1.7710 H   0  0  0  0  0  0  0  0  0  0  0  0
    6.0668   -0.7015    2.8045 H   0  0  0  0  0  0  0  0  0  0  0  0
    5.6402    0.4258    0.6233 H   0  0  0  0  0  0  0  0  0  0  0  0
    6.6881   -0.9639    0.5105 H   0  0  0  0  0  0  0  0  0  0  0  0
    3.7113   -0.8829   -0.2264 H   0  0  0  0  0  0  0  0  0  0  0  0
    5.0403   -1.0070   -1.3403 H   0  0  0  0  0  0  0  0  0  0  0  0
    3.9637   -3.2345   -0.9110 H   0  0  0  0  0  0  0  0  0  0  0  0
    5.6495   -3.2350   -0.4469 H   0  0  0  0  0  0  0  0  0  0  0  0
    3.2563   -2.9460    1.4324 H   0  0  0  0  0  0  0  0  0  0  0  0
    4.3122   -4.3289    1.3186 H   0  0  0  0  0  0  0  0  0  0  0  0
    6.2243   -3.0176    2.1498 H   0  0  0  0  0  0  0  0  0  0  0  0
    4.9109   -2.8911    3.2832 H   0  0  0  0  0  0  0  0  0  0  0  0
    0.7528    1.2784    7.1838 H   0  0  0  0  0  0  0  0  0  0  0  0
   -0.8391    2.0948    8.8779 H   0  0  0  0  0  0  0  0  0  0  0  0
   -3.5267    3.3505    5.7459 H   0  0  0  0  0  0  0  0  0  0  0  0
   -1.9592    2.5505    4.0491 H   0  0  0  0  0  0  0  0  0  0  0  0
   -0.6428    1.5964    2.6138 H   0  0  0  0  0  0  0  0  0  0  0  0
    0.9256    0.4830    0.6832 H   0  0  0  0  0  0  0  0  0  0  0  0
  1  2  2  0
  2  3  1  0
  2 10  1  0
  3  4  1  0
  3 23  1  0
  4  9  1  0
  4  5  1  0
  4 24  1  0
  5  6  1  0
  5 25  1  0
  5 26  1  0
  6  7  1  0
  6 27  1  0
  6 28  1  0
  7  8  1  0
  7 29  1  0
  7 30  1  0
  8  9  1  0
  8 31  1  0
  8 32  1  0
  9 33  1  0
  9 34  1  0
 10 21  1  0
 10 11  2  0
 11 12  1  0
 12 13  1  0
 12 20  1  0
 13 19  1  0
 13 14  2  0
 14 15  1  0
 14 35  1  0
 15 16  2  0
 15 36  1  0
 16 17  1  0
 16 18  1  0
 18 19  2  0
 18 37  1  0
 19 38  1  0
 20 21  2  0
 20 39  1  0
 21 22  1  0
 22 40  1  0
M  END
>  <i_m_ct_stereo_status>  (48) 
1

>  <s_m_source_file>  (48) 
/var/tmp/pbs.5076255.sched01/tmpvsf1hu0j/0g1dnczxv.sdf

>  <i_m_source_file_index>  (48) 
21

>  <i_lp_mmshare_version>  (48) 
48012

>  <i_f3d_flags>  (48) 
0

>  <s_epik_input>  (48) 
W0NIMl0xW0NIMl1bQ0gyXVtDSDJdW0NIMl1bQ0hdMVtOSF1DKD1PKWMybm4oW2NIXWMyW09IXSktYzNbY0hdW2NIXWMoQ2wpW2NIXVtjSF0z

>  <s_epik_cmdline>  (48) 
J2VwaWtfcHl0aG9uJywgJy1waHQnLCAnMi4wJywgJy1waCcsICc3LjAnLCAnLXRuJywgJzgnLCAnLW1hJywgJzIwMCcsICctaW1hZScsICc8aW5maWxlLm1hZT4nLCAnLW9tYWUnLCAnPG91dGZpbGUubWFlPic=

>  <r_lp_tautomer_probability>  (48) 
1

>  <r_epik_Ionization_Penalty>  (48) 
0.512504

>  <r_epik_Ionization_Penalty_Charging>  (48) 
0

>  <r_epik_Ionization_Penalty_Neutral>  (48) 
0.512504

>  <r_epik_State_Penalty>  (48) 
0.519864

>  <r_epik_Charging_Adjusted_Penalty>  (48) 
0.519864

>  <i_epik_Tot_Q>  (48) 
0

>  <i_epik_Tot_abs_Q>  (48) 
0

>  <s_lp_Force_Field>  (48) 
OPLS3e

>  <r_lp_Energy>  (48) 
25.4399

>  <b_lp_Chiralities_Consistent>  (48) 
1

>  <s_lp_Variant>  (48) 
16:0-2

>  <s_i_glide_gridfile>  (48) 
pfpi4k_grid

>  <i_i_glide_lignum>  (48) 
21

>  <i_i_glide_rotatable_bonds>  (48) 
5

>  <r_i_docking_score>  (48) 
-3.35673

>  <r_i_glide_ligand_efficiency>  (48) 
-0.152579

>  <r_i_glide_ligand_efficiency_sa>  (48) 
-0.427531

>  <r_i_glide_ligand_efficiency_ln>  (48) 
-0.820507

>  <r_i_glide_gscore>  (48) 
-3.35673

>  <r_i_glide_lipo>  (48) 
-0.533881

>  <r_i_glide_hbond>  (48) 
-0.0796076

>  <r_i_glide_metal>  (48) 
-0

>  <r_i_glide_rewards>  (48) 
-1.72873

>  <r_i_glide_evdw>  (48) 
-25.388

>  <r_i_glide_ecoul>  (48) 
-3.10181

>  <r_i_glide_erotb>  (48) 
0.730028

>  <r_i_glide_esite>  (48) 
-0.00985878

>  <r_i_glide_emodel>  (48) 
-40.3821

>  <r_i_glide_energy>  (48) 
-28.4899

>  <r_i_glide_einternal>  (48) 
0.719343

>  <r_i_glide_intrahb_reward>  (48) 
-0.5

>  <i_i_glide_confnum>  (48) 
1

>  <i_i_glide_posenum>  (48) 
13

>  <r_i_glide_eff_state_penalty>  (48) 
0

>  <ligand_id>  (48) 
16

>  <original_smiles>  (48) 
O=C(NC1CCCCC1)c1nn(-c2ccc(Cl)cc2)cc1O

>  <smiles>  (48) 
[H]Oc1c(C(=O)N([H])C2([H])C([H])([H])C([H])([H])C([H])([H])C([H])([H])C2([H])[H])nn(-c2c([H])c([H])c(Cl)c([H])c2[H])c1[H]

$$$$
17:0:0
     RDKit          3D

 50 55  0  0  1  0  0  0  0  0999 V2000
    8.6127   -3.9323    0.8667 C   0  0  0  0  0  0  0  0  0  0  0  0
    7.5583   -3.1463    0.0606 C   0  0  0  0  0  0  0  0  0  0  0  0
    7.9436   -2.2761   -0.7261 O   0  0  0  0  0  0  0  0  0  0  0  0
    6.0264   -3.4368    0.2510 C   0  0  1  0  0  0  0  0  0  0  0  0
    5.9077   -4.7153    1.1382 C   0  0  0  0  0  0  0  0  0  0  0  0
    6.2109   -6.1031    0.6193 C   0  0  0  0  0  0  0  0  0  0  0  0
    5.5346   -4.4632    2.4284 C   0  0  0  0  0  0  0  0  0  0  0  0
    5.0592   -2.9900    2.6910 C   0  0  2  0  0  0  0  0  0  0  0  0
    3.6447   -2.1606    2.2359 C   0  0  1  0  0  0  0  0  0  0  0  0
    2.5529   -2.1954    3.1281 O   0  0  0  0  0  0  0  0  0  0  0  0
    3.7192   -0.7947    1.3999 C   0  0  0  0  0  0  0  0  0  0  0  0
    4.8742   -0.1821    1.5420 C   0  0  0  0  0  0  0  0  0  0  0  0
    5.9757   -1.1665    1.4600 C   0  0  0  0  0  0  0  0  0  0  0  0
    5.3301   -2.6344    1.2892 C   0  0  1  0  0  0  0  0  0  0  0  0
    3.6980   -3.1720    1.2487 C   0  0  2  0  0  0  0  0  0  0  0  0
    2.8431   -3.4766    0.0176 C   0  0  0  0  0  0  0  0  0  0  0  0
    3.8143   -3.9049   -1.0440 C   0  0  0  0  0  0  0  0  0  0  0  0
    5.0512   -2.9919   -1.0171 C   0  0  2  0  0  0  0  0  0  0  0  0
    5.7365   -3.2873   -2.3760 C   0  0  0  0  0  0  0  0  0  0  0  0
    4.4611   -1.4272   -1.0172 C   0  0  1  0  0  0  0  0  0  0  0  0
    3.9076   -1.0340   -2.3819 C   0  0  0  0  0  0  0  0  0  0  0  0
    2.8859   -1.6375   -3.1778 C   0  0  0  0  0  0  0  0  0  0  0  0
    2.7551   -0.8869   -4.3068 C   0  0  0  0  0  0  0  0  0  0  0  0
    3.5687    0.1776   -4.2932 O   0  0  0  0  0  0  0  0  0  0  0  0
    4.2063    0.0951   -3.1131 C   0  0  0  0  0  0  0  0  0  0  0  0
    3.4506   -0.9484    0.0176 O   0  0  0  0  0  0  0  0  0  0  0  0
    8.3323   -4.0244    1.9164 H   0  0  0  0  0  0  0  0  0  0  0  0
    9.5853   -3.4463    0.8232 H   0  0  0  0  0  0  0  0  0  0  0  0
    8.7625   -4.9429    0.4888 H   0  0  0  0  0  0  0  0  0  0  0  0
    7.1564   -6.1613    0.0882 H   0  0  0  0  0  0  0  0  0  0  0  0
    5.4383   -6.4039   -0.0830 H   0  0  0  0  0  0  0  0  0  0  0  0
    6.2480   -6.8248    1.4380 H   0  0  0  0  0  0  0  0  0  0  0  0
    5.4458   -5.2309    3.1872 H   0  0  0  0  0  0  0  0  0  0  0  0
    5.6279   -2.4932    3.4752 H   0  0  0  0  0  0  0  0  0  0  0  0
    1.7830   -2.1764    2.5827 H   0  0  0  0  0  0  0  0  0  0  0  0
    5.0687    0.6277    0.8629 H   0  0  0  0  0  0  0  0  0  0  0  0
    6.6008   -0.8040    0.6448 H   0  0  0  0  0  0  0  0  0  0  0  0
    6.6133   -1.0635    2.3408 H   0  0  0  0  0  0  0  0  0  0  0  0
    3.3604   -4.0598    1.8079 H   0  0  0  0  0  0  0  0  0  0  0  0
    2.1434   -4.2861    0.2180 H   0  0  0  0  0  0  0  0  0  0  0  0
    2.1946   -2.6748   -0.3186 H   0  0  0  0  0  0  0  0  0  0  0  0
    4.1079   -4.9291   -0.8351 H   0  0  0  0  0  0  0  0  0  0  0  0
    3.3168   -3.9605   -2.0097 H   0  0  0  0  0  0  0  0  0  0  0  0
    5.0293   -3.3410   -3.2024 H   0  0  0  0  0  0  0  0  0  0  0  0
    6.2087   -4.2460   -2.3555 H   0  0  0  0  0  0  0  0  0  0  0  0
    6.4738   -2.5332   -2.6464 H   0  0  0  0  0  0  0  0  0  0  0  0
    5.3276   -0.7652   -0.9842 H   0  0  0  0  0  0  0  0  0  0  0  0
    2.2345   -2.4664   -2.9506 H   0  0  0  0  0  0  0  0  0  0  0  0
    2.0612   -0.9030   -5.1212 H   0  0  0  0  0  0  0  0  0  0  0  0
    4.8485    0.9335   -2.9471 H   0  0  0  0  0  0  0  0  0  0  0  0
  1  2  1  0
  1 27  1  0
  1 28  1  0
  1 29  1  0
  2  3  2  0
  4  2  1  6
  4 14  1  0
  4 18  1  0
  4  5  1  0
  5  6  1  0
  5  7  2  0
  6 30  1  0
  6 31  1  0
  6 32  1  0
  7  8  1  0
  7 33  1  0
  8 14  1  0
  8  9  1  0
  8 34  1  1
  9 15  1  0
  9 10  1  1
  9 11  1  0
 10 35  1  0
 11 26  1  0
 11 12  2  0
 12 13  1  0
 12 36  1  0
 14 13  1  1
 13 37  1  0
 13 38  1  0
 14 15  1  0
 15 16  1  0
 15 39  1  1
 16 17  1  0
 16 40  1  0
 16 41  1  0
 17 18  1  0
 17 42  1  0
 17 43  1  0
 18 19  1  6
 18 20  1  0
 19 44  1  0
 19 45  1  0
 19 46  1  0
 20 21  1  0
 20 26  1  0
 20 47  1  1
 21 25  2  0
 21 22  1  0
 22 23  2  0
 22 48  1  0
 23 24  1  0
 23 49  1  0
 24 25  1  0
 25 50  1  0
M  END
>  <i_m_ct_stereo_status>  (49) 
1

>  <s_m_source_file>  (49) 
/var/tmp/pbs.5076255.sched01/tmpvsf1hu0j/0g1dnczxv.sdf

>  <i_m_source_file_index>  (49) 
22

>  <i_lp_mmshare_version>  (49) 
48012

>  <i_f3d_flags>  (49) 
1

>  <s_epik_input>  (49) 
W0NIM11DKD1PKVtDQEBdMShbQ0BAXTIzNClbQ0BAXTUoW0NIM10pW0NIMl1bQ0gyXVtDQEBIXTRbQ0BAXShbT0hdKShbQ0BIXTJbQ0hdPUMxW0NIM10pQyg9W0NIXVtDSDJdMylPW0NAQEhdNWM2W2NIXVtjSF1vW2NIXTY=

>  <s_epik_cmdline>  (49) 
J2VwaWtfcHl0aG9uJywgJy1waHQnLCAnMi4wJywgJy1waCcsICc3LjAnLCAnLXRuJywgJzgnLCAnLW1hJywgJzIwMCcsICctaW1hZScsICc8aW5maWxlLm1hZT4nLCAnLW9tYWUnLCAnPG91dGZpbGUubWFlPic=

>  <r_lp_tautomer_probability>  (49) 
1

>  <r_epik_Ionization_Penalty>  (49) 
6.21265e-08

>  <r_epik_Ionization_Penalty_Charging>  (49) 
0

>  <r_epik_Ionization_Penalty_Neutral>  (49) 
6.21265e-08

>  <r_epik_State_Penalty>  (49) 
-0

>  <r_epik_Charging_Adjusted_Penalty>  (49) 
0

>  <i_epik_Tot_Q>  (49) 
0

>  <i_epik_Tot_abs_Q>  (49) 
0

>  <s_lp_Force_Field>  (49) 
OPLS3e

>  <r_lp_Energy>  (49) 
285.078

>  <b_lp_Chiralities_Consistent>  (49) 
1

>  <s_lp_Variant>  (49) 
17:0-1

>  <s_i_glide_gridfile>  (49) 
pfpi4k_grid

>  <i_i_glide_lignum>  (49) 
22

>  <i_i_glide_rotatable_bonds>  (49) 
3

>  <r_i_docking_score>  (49) 
-3.93825

>  <r_i_glide_ligand_efficiency>  (49) 
-0.151471

>  <r_i_glide_ligand_efficiency_sa>  (49) 
-0.448733

>  <r_i_glide_ligand_efficiency_ln>  (49) 
-0.924886

>  <r_i_glide_gscore>  (49) 
-3.93825

>  <r_i_glide_lipo>  (49) 
-1.0816

>  <r_i_glide_hbond>  (49) 
-0.16

>  <r_i_glide_metal>  (49) 
-0

>  <r_i_glide_rewards>  (49) 
-1.23136

>  <r_i_glide_evdw>  (49) 
-22.3101

>  <r_i_glide_ecoul>  (49) 
-3.35626

>  <r_i_glide_erotb>  (49) 
0.153658

>  <r_i_glide_esite>  (49) 
0

>  <r_i_glide_emodel>  (49) 
-30.458

>  <r_i_glide_energy>  (49) 
-25.6664

>  <r_i_glide_einternal>  (49) 
3.64008

>  <r_i_glide_intrahb_reward>  (49) 
-0

>  <i_i_glide_confnum>  (49) 
3

>  <i_i_glide_posenum>  (49) 
15

>  <r_i_glide_eff_state_penalty>  (49) 
0

>  <ligand_id>  (49) 
17

>  <original_smiles>  (49) 
CC(=O)C12C(C)=CC3C4(O)C5=CCC31C4CCC2(C)C(c1ccoc1)O5

>  <smiles>  (49) 
[H]OC12C3=C([H])C([H])([H])C45C1([H])C([H])=C(C([H])([H])[H])C4(C(=O)C([H])([H])[H])C(C([H])([H])[H])(C([H])(c1c([H])oc([H])c1[H])O3)C([H])([H])C([H])([H])C25[H]

$$$$
17:0:1
     RDKit          3D

 50 55  0  0  1  0  0  0  0  0999 V2000
    4.9029   -0.3951    4.0216 C   0  0  0  0  0  0  0  0  0  0  0  0
    4.6458   -1.8839    3.7758 C   0  0  0  0  0  0  0  0  0  0  0  0
    5.0211   -2.6728    4.6390 O   0  0  0  0  0  0  0  0  0  0  0  0
    3.9587   -2.3474    2.4431 C   0  0  1  0  0  0  0  0  0  0  0  0
    2.7858   -1.3485    2.2371 C   0  0  0  0  0  0  0  0  0  0  0  0
    1.5317   -1.3800    3.0928 C   0  0  0  0  0  0  0  0  0  0  0  0
    3.0213   -0.4139    1.2661 C   0  0  0  0  0  0  0  0  0  0  0  0
    4.3152   -0.6697    0.4100 C   0  0  2  0  0  0  0  0  0  0  0  0
    4.6636   -1.8330   -0.7842 C   0  0  1  0  0  0  0  0  0  0  0  0
    4.4129   -1.4770   -2.1249 O   0  0  0  0  0  0  0  0  0  0  0  0
    5.9220   -2.8210   -0.6351 C   0  0  0  0  0  0  0  0  0  0  0  0
    6.8658   -2.3452    0.1572 C   0  0  0  0  0  0  0  0  0  0  0  0
    6.2098   -1.7688    1.3574 C   0  0  0  0  0  0  0  0  0  0  0  0
    4.6071   -1.8800    1.1952 C   0  0  1  0  0  0  0  0  0  0  0  0
    3.6229   -2.4828   -0.0713 C   0  0  2  0  0  0  0  0  0  0  0  0
    2.9728   -3.8686   -0.1943 C   0  0  0  0  0  0  0  0  0  0  0  0
    2.7153   -4.3213    1.2248 C   0  0  0  0  0  0  0  0  0  0  0  0
    3.9596   -3.9765    2.0849 C   0  0  2  0  0  0  0  0  0  0  0  0
    3.7514   -4.8360    3.3621 C   0  0  0  0  0  0  0  0  0  0  0  0
    5.2980   -4.5310    1.2321 C   0  0  1  0  0  0  0  0  0  0  0  0
    5.4352   -6.0546    1.2771 C   0  0  0  0  0  0  0  0  0  0  0  0
    4.5037   -7.0437    0.8185 C   0  0  0  0  0  0  0  0  0  0  0  0
    5.0494   -8.2626    1.0710 C   0  0  0  0  0  0  0  0  0  0  0  0
    6.2952   -8.1271    1.5916 O   0  0  0  0  0  0  0  0  0  0  0  0
    6.5103   -6.7854    1.6983 C   0  0  0  0  0  0  0  0  0  0  0  0
    5.5726   -4.1289   -0.2135 O   0  0  0  0  0  0  0  0  0  0  0  0
    5.3979    0.0784    3.1759 H   0  0  0  0  0  0  0  0  0  0  0  0
    5.5513   -0.2871    4.8917 H   0  0  0  0  0  0  0  0  0  0  0  0
    3.9720    0.1334    4.2232 H   0  0  0  0  0  0  0  0  0  0  0  0
    1.7852   -1.3714    4.1536 H   0  0  0  0  0  0  0  0  0  0  0  0
    0.9374   -2.2691    2.8762 H   0  0  0  0  0  0  0  0  0  0  0  0
    0.9044   -0.5072    2.8827 H   0  0  0  0  0  0  0  0  0  0  0  0
    2.3264    0.3810    1.0231 H   0  0  0  0  0  0  0  0  0  0  0  0
    5.0170    0.1621    0.4544 H   0  0  0  0  0  0  0  0  0  0  0  0
    3.4854   -1.3115   -2.1807 H   0  0  0  0  0  0  0  0  0  0  0  0
    7.6752   -2.9971    0.4442 H   0  0  0  0  0  0  0  0  0  0  0  0
    6.6107   -2.2997    2.2135 H   0  0  0  0  0  0  0  0  0  0  0  0
    6.5777   -0.7508    1.4851 H   0  0  0  0  0  0  0  0  0  0  0  0
    2.7235   -1.9396   -0.4000 H   0  0  0  0  0  0  0  0  0  0  0  0
    2.0292   -3.8124   -0.7333 H   0  0  0  0  0  0  0  0  0  0  0  0
    3.5197   -4.5966   -0.7830 H   0  0  0  0  0  0  0  0  0  0  0  0
    1.8470   -3.8031    1.6165 H   0  0  0  0  0  0  0  0  0  0  0  0
    2.4276   -5.3717    1.2537 H   0  0  0  0  0  0  0  0  0  0  0  0
    3.4117   -5.8464    3.1387 H   0  0  0  0  0  0  0  0  0  0  0  0
    2.9999   -4.3957    4.0174 H   0  0  0  0  0  0  0  0  0  0  0  0
    4.6773   -4.9629    3.9220 H   0  0  0  0  0  0  0  0  0  0  0  0
    6.1743   -4.2742    1.8286 H   0  0  0  0  0  0  0  0  0  0  0  0
    3.5412   -6.9175    0.3530 H   0  0  0  0  0  0  0  0  0  0  0  0
    4.7047   -9.2732    0.8995 H   0  0  0  0  0  0  0  0  0  0  0  0
    7.4954   -6.5375    2.0835 H   0  0  0  0  0  0  0  0  0  0  0  0
  1  2  1  0
  1 27  1  0
  1 28  1  0
  1 29  1  0
  2  3  2  0
  4  2  1  1
  4 14  1  0
  4 18  1  0
  4  5  1  0
  5  6  1  0
  5  7  2  0
  6 30  1  0
  6 31  1  0
  6 32  1  0
  7  8  1  0
  7 33  1  0
  8 14  1  0
  8  9  1  0
  8 34  1  1
  9 15  1  0
  9 10  1  6
  9 11  1  0
 10 35  1  0
 11 26  1  0
 11 12  2  0
 12 13  1  0
 12 36  1  0
 14 13  1  6
 13 37  1  0
 13 38  1  0
 14 15  1  0
 15 16  1  0
 15 39  1  1
 16 17  1  0
 16 40  1  0
 16 41  1  0
 17 18  1  0
 17 42  1  0
 17 43  1  0
 18 19  1  1
 18 20  1  0
 19 44  1  0
 19 45  1  0
 19 46  1  0
 20 21  1  0
 20 26  1  0
 20 47  1  1
 21 25  2  0
 21 22  1  0
 22 23  2  0
 22 48  1  0
 23 24  1  0
 23 49  1  0
 24 25  1  0
 25 50  1  0
M  END
>  <i_m_ct_stereo_status>  (50) 
1

>  <s_m_source_file>  (50) 
/var/tmp/pbs.5076255.sched01/tmpvsf1hu0j/0g1dnczxv.sdf

>  <i_m_source_file_index>  (50) 
22

>  <i_lp_mmshare_version>  (50) 
48012

>  <i_f3d_flags>  (50) 
1

>  <s_epik_input>  (50) 
W0NIM11DKD1PKVtDQEBdMShbQ0BAXTIzNClbQ0BAXTUoW0NIM10pW0NIMl1bQ0gyXVtDQEBIXTRbQ0BAXShbT0hdKShbQ0BIXTJbQ0hdPUMxW0NIM10pQyg9W0NIXVtDSDJdMylPW0NAQEhdNWM2W2NIXVtjSF1vW2NIXTY=

>  <s_epik_cmdline>  (50) 
J2VwaWtfcHl0aG9uJywgJy1waHQnLCAnMi4wJywgJy1waCcsICc3LjAnLCAnLXRuJywgJzgnLCAnLW1hJywgJzIwMCcsICctaW1hZScsICc8aW5maWxlLm1hZT4nLCAnLW9tYWUnLCAnPG91dGZpbGUubWFlPic=

>  <r_lp_tautomer_probability>  (50) 
1

>  <r_epik_Ionization_Penalty>  (50) 
6.21265e-08

>  <r_epik_Ionization_Penalty_Charging>  (50) 
0

>  <r_epik_Ionization_Penalty_Neutral>  (50) 
6.21265e-08

>  <r_epik_State_Penalty>  (50) 
-0

>  <r_epik_Charging_Adjusted_Penalty>  (50) 
0

>  <i_epik_Tot_Q>  (50) 
0

>  <i_epik_Tot_abs_Q>  (50) 
0

>  <s_lp_Force_Field>  (50) 
OPLS3e

>  <r_lp_Energy>  (50) 
285.078

>  <b_lp_Chiralities_Consistent>  (50) 
1

>  <s_lp_Variant>  (50) 
17:0-1

>  <s_i_glide_gridfile>  (50) 
pfpi4k_grid

>  <i_i_glide_lignum>  (50) 
22

>  <i_i_glide_rotatable_bonds>  (50) 
3

>  <r_i_docking_score>  (50) 
-3.42112

>  <r_i_glide_ligand_efficiency>  (50) 
-0.131582

>  <r_i_glide_ligand_efficiency_sa>  (50) 
-0.38981

>  <r_i_glide_ligand_efficiency_ln>  (50) 
-0.803439

>  <r_i_glide_gscore>  (50) 
-3.42112

>  <r_i_glide_lipo>  (50) 
-0.762215

>  <r_i_glide_hbond>  (50) 
0

>  <r_i_glide_metal>  (50) 
-0

>  <r_i_glide_rewards>  (50) 
-1.05451

>  <r_i_glide_evdw>  (50) 
-27.8174

>  <r_i_glide_ecoul>  (50) 
-2.44793

>  <r_i_glide_erotb>  (50) 
0.153658

>  <r_i_glide_esite>  (50) 
0

>  <r_i_glide_emodel>  (50) 
-35.9714

>  <r_i_glide_energy>  (50) 
-30.2653

>  <r_i_glide_einternal>  (50) 
0.900884

>  <r_i_glide_intrahb_reward>  (50) 
-0

>  <i_i_glide_confnum>  (50) 
1

>  <i_i_glide_posenum>  (50) 
35

>  <r_i_glide_eff_state_penalty>  (50) 
0

>  <ligand_id>  (50) 
17

>  <original_smiles>  (50) 
CC(=O)C12C(C)=CC3C4(O)C5=CCC31C4CCC2(C)C(c1ccoc1)O5

>  <smiles>  (50) 
[H]OC12C3=C([H])C([H])([H])C45C1([H])C([H])=C(C([H])([H])[H])C4(C(=O)C([H])([H])[H])C(C([H])([H])[H])(C([H])(c1c([H])oc([H])c1[H])O3)C([H])([H])C([H])([H])C25[H]

$$$$
17:0:2
     RDKit          3D

 50 55  0  0  1  0  0  0  0  0999 V2000
    4.4608   -2.6088    5.1030 C   0  0  0  0  0  0  0  0  0  0  0  0
    4.6775   -1.8855    3.7660 C   0  0  0  0  0  0  0  0  0  0  0  0
    5.3200   -0.8255    3.7934 O   0  0  0  0  0  0  0  0  0  0  0  0
    3.9712   -2.3652    2.4390 C   0  0  1  0  0  0  0  0  0  0  0  0
    2.8027   -1.3534    2.2518 C   0  0  0  0  0  0  0  0  0  0  0  0
    1.5713   -1.3740    3.1250 C   0  0  0  0  0  0  0  0  0  0  0  0
    3.0364   -0.4106    1.2938 C   0  0  0  0  0  0  0  0  0  0  0  0
    4.3082   -0.6674    0.4000 C   0  0  2  0  0  0  0  0  0  0  0  0
    4.6229   -1.8275   -0.8231 C   0  0  1  0  0  0  0  0  0  0  0  0
    4.3340   -1.4560   -2.1569 O   0  0  0  0  0  0  0  0  0  0  0  0
    5.8773   -2.8227   -0.7124 C   0  0  0  0  0  0  0  0  0  0  0  0
    6.8382   -2.3483    0.0622 C   0  0  0  0  0  0  0  0  0  0  0  0
    6.2086   -1.7819    1.2841 C   0  0  0  0  0  0  0  0  0  0  0  0
    4.5949   -1.8936    1.1610 C   0  0  1  0  0  0  0  0  0  0  0  0
    3.5872   -2.4712   -0.0934 C   0  0  2  0  0  0  0  0  0  0  0  0
    2.9298   -3.8535   -0.2166 C   0  0  0  0  0  0  0  0  0  0  0  0
    2.7177   -4.3339    1.2028 C   0  0  0  0  0  0  0  0  0  0  0  0
    3.9769   -3.9966    2.0466 C   0  0  2  0  0  0  0  0  0  0  0  0
    3.7713   -4.9238    3.2746 C   0  0  0  0  0  0  0  0  0  0  0  0
    5.2943   -4.5298    1.1572 C   0  0  1  0  0  0  0  0  0  0  0  0
    5.4229   -6.0468    1.1927 C   0  0  0  0  0  0  0  0  0  0  0  0
    4.5245   -7.0086    0.6330 C   0  0  0  0  0  0  0  0  0  0  0  0
    5.0282   -8.2376    0.9188 C   0  0  0  0  0  0  0  0  0  0  0  0
    6.2117   -8.1302    1.5813 O   0  0  0  0  0  0  0  0  0  0  0  0
    6.4259   -6.7953    1.7391 C   0  0  0  0  0  0  0  0  0  0  0  0
    5.5341   -4.1328   -0.2883 O   0  0  0  0  0  0  0  0  0  0  0  0
    3.3920   -2.7758    5.2754 H   0  0  0  0  0  0  0  0  0  0  0  0
    4.8313   -1.9921    5.9350 H   0  0  0  0  0  0  0  0  0  0  0  0
    5.0010   -3.5580    5.1205 H   0  0  0  0  0  0  0  0  0  0  0  0
    1.8409   -1.3580    4.1779 H   0  0  0  0  0  0  0  0  0  0  0  0
    0.9808   -2.2565    2.9057 H   0  0  0  0  0  0  0  0  0  0  0  0
    0.9594   -0.4987    2.9135 H   0  0  0  0  0  0  0  0  0  0  0  0
    2.3246    0.3705    1.0592 H   0  0  0  0  0  0  0  0  0  0  0  0
    5.0123    0.1642    0.4164 H   0  0  0  0  0  0  0  0  0  0  0  0
    3.4132   -1.2778   -2.1790 H   0  0  0  0  0  0  0  0  0  0  0  0
    7.6494   -3.0019    0.3323 H   0  0  0  0  0  0  0  0  0  0  0  0
    6.6323   -2.3319    2.1171 H   0  0  0  0  0  0  0  0  0  0  0  0
    6.5814   -0.7623    1.4165 H   0  0  0  0  0  0  0  0  0  0  0  0
    2.6831   -1.9219   -0.4037 H   0  0  0  0  0  0  0  0  0  0  0  0
    1.9671   -3.7782   -0.7277 H   0  0  0  0  0  0  0  0  0  0  0  0
    3.4641   -4.5686   -0.8315 H   0  0  0  0  0  0  0  0  0  0  0  0
    1.8485   -3.8372    1.6196 H   0  0  0  0  0  0  0  0  0  0  0  0
    2.4478   -5.3936    1.1947 H   0  0  0  0  0  0  0  0  0  0  0  0
    3.3857   -5.9157    3.0031 H   0  0  0  0  0  0  0  0  0  0  0  0
    3.0212   -4.5164    3.9467 H   0  0  0  0  0  0  0  0  0  0  0  0
    4.7203   -5.0782    3.7906 H   0  0  0  0  0  0  0  0  0  0  0  0
    6.1762   -4.2843    1.7454 H   0  0  0  0  0  0  0  0  0  0  0  0
    3.6194   -6.8338    0.0737 H   0  0  0  0  0  0  0  0  0  0  0  0
    4.7032   -9.2438    0.6907 H   0  0  0  0  0  0  0  0  0  0  0  0
    7.3588   -6.5629    2.2424 H   0  0  0  0  0  0  0  0  0  0  0  0
  1  2  1  0
  1 27  1  0
  1 28  1  0
  1 29  1  0
  2  3  2  0
  4  2  1  1
  4 14  1  0
  4 18  1  0
  4  5  1  0
  5  6  1  0
  5  7  2  0
  6 30  1  0
  6 31  1  0
  6 32  1  0
  7  8  1  0
  7 33  1  0
  8 14  1  0
  8  9  1  0
  8 34  1  1
  9 15  1  0
  9 10  1  6
  9 11  1  0
 10 35  1  0
 11 26  1  0
 11 12  2  0
 12 13  1  0
 12 36  1  0
 14 13  1  6
 13 37  1  0
 13 38  1  0
 14 15  1  0
 15 16  1  0
 15 39  1  1
 16 17  1  0
 16 40  1  0
 16 41  1  0
 17 18  1  0
 17 42  1  0
 17 43  1  0
 18 19  1  1
 18 20  1  0
 19 44  1  0
 19 45  1  0
 19 46  1  0
 20 21  1  0
 20 26  1  0
 20 47  1  1
 21 25  2  0
 21 22  1  0
 22 23  2  0
 22 48  1  0
 23 24  1  0
 23 49  1  0
 24 25  1  0
 25 50  1  0
M  END
>  <i_m_ct_stereo_status>  (51) 
1

>  <s_m_source_file>  (51) 
/var/tmp/pbs.5076255.sched01/tmpvsf1hu0j/0g1dnczxv.sdf

>  <i_m_source_file_index>  (51) 
22

>  <i_lp_mmshare_version>  (51) 
48012

>  <i_f3d_flags>  (51) 
1

>  <s_epik_input>  (51) 
W0NIM11DKD1PKVtDQEBdMShbQ0BAXTIzNClbQ0BAXTUoW0NIM10pW0NIMl1bQ0gyXVtDQEBIXTRbQ0BAXShbT0hdKShbQ0BIXTJbQ0hdPUMxW0NIM10pQyg9W0NIXVtDSDJdMylPW0NAQEhdNWM2W2NIXVtjSF1vW2NIXTY=

>  <s_epik_cmdline>  (51) 
J2VwaWtfcHl0aG9uJywgJy1waHQnLCAnMi4wJywgJy1waCcsICc3LjAnLCAnLXRuJywgJzgnLCAnLW1hJywgJzIwMCcsICctaW1hZScsICc8aW5maWxlLm1hZT4nLCAnLW9tYWUnLCAnPG91dGZpbGUubWFlPic=

>  <r_lp_tautomer_probability>  (51) 
1

>  <r_epik_Ionization_Penalty>  (51) 
6.21265e-08

>  <r_epik_Ionization_Penalty_Charging>  (51) 
0

>  <r_epik_Ionization_Penalty_Neutral>  (51) 
6.21265e-08

>  <r_epik_State_Penalty>  (51) 
-0

>  <r_epik_Charging_Adjusted_Penalty>  (51) 
0

>  <i_epik_Tot_Q>  (51) 
0

>  <i_epik_Tot_abs_Q>  (51) 
0

>  <s_lp_Force_Field>  (51) 
OPLS3e

>  <r_lp_Energy>  (51) 
285.078

>  <b_lp_Chiralities_Consistent>  (51) 
1

>  <s_lp_Variant>  (51) 
17:0-1

>  <s_i_glide_gridfile>  (51) 
pfpi4k_grid

>  <i_i_glide_lignum>  (51) 
22

>  <i_i_glide_rotatable_bonds>  (51) 
3

>  <r_i_docking_score>  (51) 
-3.26873

>  <r_i_glide_ligand_efficiency>  (51) 
-0.12572

>  <r_i_glide_ligand_efficiency_sa>  (51) 
-0.372446

>  <r_i_glide_ligand_efficiency_ln>  (51) 
-0.767651

>  <r_i_glide_gscore>  (51) 
-3.26873

>  <r_i_glide_lipo>  (51) 
-0.647015

>  <r_i_glide_hbond>  (51) 
0

>  <r_i_glide_metal>  (51) 
-0

>  <r_i_glide_rewards>  (51) 
-1.05756

>  <r_i_glide_evdw>  (51) 
-27.3629

>  <r_i_glide_ecoul>  (51) 
-2.33113

>  <r_i_glide_erotb>  (51) 
0.153658

>  <r_i_glide_esite>  (51) 
0

>  <r_i_glide_emodel>  (51) 
-33.9621

>  <r_i_glide_energy>  (51) 
-29.694

>  <r_i_glide_einternal>  (51) 
2.58966

>  <r_i_glide_intrahb_reward>  (51) 
-0

>  <i_i_glide_confnum>  (51) 
1

>  <i_i_glide_posenum>  (51) 
1

>  <r_i_glide_eff_state_penalty>  (51) 
0

>  <ligand_id>  (51) 
17

>  <original_smiles>  (51) 
CC(=O)C12C(C)=CC3C4(O)C5=CCC31C4CCC2(C)C(c1ccoc1)O5

>  <smiles>  (51) 
[H]OC12C3=C([H])C([H])([H])C45C1([H])C([H])=C(C([H])([H])[H])C4(C(=O)C([H])([H])[H])C(C([H])([H])[H])(C([H])(c1c([H])oc([H])c1[H])O3)C([H])([H])C([H])([H])C25[H]

$$$$
18:0:0
     RDKit          3D

 41 44  0  0  1  0  0  0  0  0999 V2000
    3.7409   -1.6962    0.7188 C   0  0  0  0  0  0  0  0  0  0  0  0
    2.6379   -0.8817    1.2786 N   0  0  1  0  0  0  0  0  0  0  0  0
    2.1471   -1.4478    2.5592 C   0  0  0  0  0  0  0  0  0  0  0  0
    0.9650   -0.6370    3.1057 C   0  0  0  0  0  0  0  0  0  0  0  0
    1.3039    0.8589    3.2533 C   0  0  2  0  0  0  0  0  0  0  0  0
    1.8692    1.4000    1.9211 C   0  0  0  0  0  0  0  0  0  0  0  0
    3.0438    0.5385    1.4331 C   0  0  0  0  0  0  0  0  0  0  0  0
    2.2938    1.0900    4.4387 C   0  0  0  0  0  0  0  0  0  0  0  0
    1.5066    1.7409    5.6028 C   0  0  1  0  0  0  0  0  0  0  0  0
    2.2234    2.9103    6.2042 C   0  0  0  0  0  0  0  0  0  0  0  0
    2.6055    2.9978    7.5754 C   0  0  0  0  0  0  0  0  0  0  0  0
    3.2438    4.1670    7.8822 C   0  0  0  0  0  0  0  0  0  0  0  0
    3.4062    5.1988    6.4863 S   0  0  0  0  0  0  0  0  0  0  0  0
    2.5927    4.0254    5.4924 C   0  0  0  0  0  0  0  0  0  0  0  0
    0.1912    2.1138    4.9795 C   0  0  0  0  0  0  0  0  0  0  0  0
   -0.8664    2.8409    5.5539 C   0  0  0  0  0  0  0  0  0  0  0  0
   -1.9988    3.0618    4.7416 C   0  0  0  0  0  0  0  0  0  0  0  0
   -2.0077    2.5388    3.4218 C   0  0  0  0  0  0  0  0  0  0  0  0
   -1.0004    1.8058    2.8984 N   0  0  0  0  0  0  0  0  0  0  0  0
    0.0820    1.6373    3.6814 C   0  0  0  0  0  0  0  0  0  0  0  0
    4.5939   -1.7024    1.4058 H   0  0  0  0  0  0  0  0  0  0  0  0
    4.0809   -1.2959   -0.2410 H   0  0  0  0  0  0  0  0  0  0  0  0
    3.4240   -2.7308    0.5630 H   0  0  0  0  0  0  0  0  0  0  0  0
    1.8502   -2.4877    2.4317 H   0  0  0  0  0  0  0  0  0  0  0  0
    2.9625   -1.4518    3.2810 H   0  0  0  0  0  0  0  0  0  0  0  0
    0.1366   -0.7343    2.4118 H   0  0  0  0  0  0  0  0  0  0  0  0
    0.6161   -1.0504    4.0556 H   0  0  0  0  0  0  0  0  0  0  0  0
    1.0845    1.3962    1.1633 H   0  0  0  0  0  0  0  0  0  0  0  0
    2.1685    2.4460    2.0253 H   0  0  0  0  0  0  0  0  0  0  0  0
    3.8691    0.6155    2.1406 H   0  0  0  0  0  0  0  0  0  0  0  0
    3.4372    0.9180    0.4928 H   0  0  0  0  0  0  0  0  0  0  0  0
    2.8130    0.1980    4.7895 H   0  0  0  0  0  0  0  0  0  0  0  0
    3.0838    1.7687    4.1057 H   0  0  0  0  0  0  0  0  0  0  0  0
    1.3051    0.9791    6.3593 H   0  0  0  0  0  0  0  0  0  0  0  0
    2.3945    2.2080    8.2818 H   0  0  0  0  0  0  0  0  0  0  0  0
    3.6253    4.4909    8.8377 H   0  0  0  0  0  0  0  0  0  0  0  0
    2.4254    4.2153    4.4424 H   0  0  0  0  0  0  0  0  0  0  0  0
   -0.8123    3.2023    6.5717 H   0  0  0  0  0  0  0  0  0  0  0  0
   -2.8425    3.6187    5.1151 H   0  0  0  0  0  0  0  0  0  0  0  0
   -2.8550    2.7033    2.7742 H   0  0  0  0  0  0  0  0  0  0  0  0
    1.8728   -0.9004    0.6000 H   0  0  0  0  0  0  0  0  0  0  0  0
  1  2  1  0
  1 21  1  0
  1 22  1  0
  1 23  1  0
  2  7  1  0
  2  3  1  0
  2 41  1  6
  3  4  1  0
  3 24  1  0
  3 25  1  0
  5  4  1  6
  4 26  1  0
  4 27  1  0
  5 20  1  0
  5  6  1  0
  5  8  1  0
  6  7  1  0
  6 28  1  0
  6 29  1  0
  7 30  1  0
  7 31  1  0
  8  9  1  0
  8 32  1  0
  8 33  1  0
  9 10  1  0
  9 15  1  0
  9 34  1  1
 10 14  2  0
 10 11  1  0
 11 12  2  0
 11 35  1  0
 12 13  1  0
 12 36  1  0
 13 14  1  0
 14 37  1  0
 15 20  2  0
 15 16  1  0
 16 17  2  0
 16 38  1  0
 17 18  1  0
 17 39  1  0
 18 19  2  0
 18 40  1  0
 19 20  1  0
M  CHG  1   2   1
M  END
>  <i_m_ct_stereo_status>  (52) 
1

>  <s_m_source_file>  (52) 
/var/tmp/pbs.5076255.sched01/tmpvsf1hu0j/0g1dnczxv.sdf

>  <i_m_source_file_index>  (52) 
23

>  <i_lp_mmshare_version>  (52) 
48012

>  <i_f3d_flags>  (52) 
0

>  <s_epik_input>  (52) 
W0NIMl0xW0NIMl1OKFtDSDNdKVtDSDJdW0NIMl1DMTJjM2MoW2NIXVtjSF1bY0hdbjMpW0NAQEhdKFtDSDJdMiljNFtjSF1bY0hdc1tjSF00

>  <s_epik_cmdline>  (52) 
J2VwaWtfcHl0aG9uJywgJy1waHQnLCAnMi4wJywgJy1waCcsICc3LjAnLCAnLXRuJywgJzgnLCAnLW1hJywgJzIwMCcsICctaW1hZScsICc8aW5maWxlLm1hZT4nLCAnLW9tYWUnLCAnPG91dGZpbGUubWFlPic=

>  <r_epik_Ionization_Penalty>  (52) 
0.00740548

>  <r_epik_Ionization_Penalty_Charging>  (52) 
0.00186668

>  <r_epik_Ionization_Penalty_Neutral>  (52) 
0.0055388

>  <r_epik_State_Penalty>  (52) 
0.0115441

>  <r_epik_Charging_Adjusted_Penalty>  (52) 
0.0134108

>  <i_epik_Tot_Q>  (52) 
1

>  <i_epik_Tot_abs_Q>  (52) 
1

>  <s_lp_Force_Field>  (52) 
OPLS3e

>  <r_lp_Energy>  (52) 
54.5594

>  <b_lp_Chiralities_Consistent>  (52) 
1

>  <s_lp_Variant>  (52) 
18:0-1

>  <s_i_glide_gridfile>  (52) 
pfpi4k_grid

>  <i_i_glide_lignum>  (52) 
23

>  <i_i_glide_rotatable_bonds>  (52) 
1

>  <r_i_docking_score>  (52) 
-3.08338

>  <r_i_glide_ligand_efficiency>  (52) 
-0.154169

>  <r_i_glide_ligand_efficiency_sa>  (52) 
-0.418479

>  <r_i_glide_ligand_efficiency_ln>  (52) 
-0.771668

>  <r_i_glide_gscore>  (52) 
-3.08338

>  <r_i_glide_lipo>  (52) 
-0.145561

>  <r_i_glide_hbond>  (52) 
-0.2

>  <r_i_glide_metal>  (52) 
-0

>  <r_i_glide_rewards>  (52) 
-1.46299

>  <r_i_glide_evdw>  (52) 
-15.2661

>  <r_i_glide_ecoul>  (52) 
-4.45149

>  <r_i_glide_erotb>  (52) 
0.222703

>  <r_i_glide_esite>  (52) 
-0.0665012

>  <r_i_glide_emodel>  (52) 
-24.4207

>  <r_i_glide_energy>  (52) 
-19.7176

>  <r_i_glide_einternal>  (52) 
0.0291994

>  <r_i_glide_intrahb_reward>  (52) 
-0

>  <i_i_glide_confnum>  (52) 
4

>  <i_i_glide_posenum>  (52) 
40

>  <r_i_glide_eff_state_penalty>  (52) 
0

>  <ligand_id>  (52) 
18

>  <original_smiles>  (52) 
CN1CCC2(CC1)CC(c1ccsc1)c1cccnc12

>  <smiles>  (52) 
[H]c1nc2c(c([H])c1[H])C([H])(c1c([H])sc([H])c1[H])C([H])([H])C21C([H])([H])C([H])([H])[N+]([H])(C([H])([H])[H])C([H])([H])C1([H])[H]

$$$$
18:0:1
     RDKit          3D

 41 44  0  0  1  0  0  0  0  0999 V2000
    3.7143    8.0902    4.5997 C   0  0  0  0  0  0  0  0  0  0  0  0
    2.5043    7.2849    4.3035 N   0  0  1  0  0  0  0  0  0  0  0  0
    2.8448    5.8527    4.0901 C   0  0  0  0  0  0  0  0  0  0  0  0
    1.6010    5.0338    3.7061 C   0  0  0  0  0  0  0  0  0  0  0  0
    0.4745    5.1973    4.7534 C   0  0  2  0  0  0  0  0  0  0  0  0
    0.1931    6.6949    4.9932 C   0  0  0  0  0  0  0  0  0  0  0  0
    1.4659    7.4620    5.3521 C   0  0  0  0  0  0  0  0  0  0  0  0
    0.8209    4.4544    6.0914 C   0  0  0  0  0  0  0  0  0  0  0  0
   -0.0406    3.1725    6.1797 C   0  0  1  0  0  0  0  0  0  0  0  0
   -0.6835    3.0006    7.5293 C   0  0  0  0  0  0  0  0  0  0  0  0
   -0.0993    2.2685    8.6056 C   0  0  0  0  0  0  0  0  0  0  0  0
   -0.8795    2.2534    9.7336 C   0  0  0  0  0  0  0  0  0  0  0  0
   -2.3576    3.1461    9.5083 S   0  0  0  0  0  0  0  0  0  0  0  0
   -1.8969    3.5415    7.8781 C   0  0  0  0  0  0  0  0  0  0  0  0
   -1.0372    3.3540    5.0643 C   0  0  0  0  0  0  0  0  0  0  0  0
   -2.1317    2.5346    4.7516 C   0  0  0  0  0  0  0  0  0  0  0  0
   -2.9299    2.9453    3.6636 C   0  0  0  0  0  0  0  0  0  0  0  0
   -2.5754    4.1055    2.9443 C   0  0  0  0  0  0  0  0  0  0  0  0
   -1.5321    4.8989    3.2758 N   0  0  0  0  0  0  0  0  0  0  0  0
   -0.7761    4.4816    4.3090 C   0  0  0  0  0  0  0  0  0  0  0  0
    4.1794    7.7536    5.5314 H   0  0  0  0  0  0  0  0  0  0  0  0
    3.4655    9.1461    4.7116 H   0  0  0  0  0  0  0  0  0  0  0  0
    4.4548    8.0009    3.8025 H   0  0  0  0  0  0  0  0  0  0  0  0
    3.6058    5.7464    3.3166 H   0  0  0  0  0  0  0  0  0  0  0  0
    3.2901    5.4553    5.0031 H   0  0  0  0  0  0  0  0  0  0  0  0
    1.2568    5.3625    2.7237 H   0  0  0  0  0  0  0  0  0  0  0  0
    1.8633    3.9798    3.5767 H   0  0  0  0  0  0  0  0  0  0  0  0
   -0.2061    7.1401    4.0826 H   0  0  0  0  0  0  0  0  0  0  0  0
   -0.5692    6.8220    5.7665 H   0  0  0  0  0  0  0  0  0  0  0  0
    1.8360    7.1209    6.3195 H   0  0  0  0  0  0  0  0  0  0  0  0
    1.2194    8.5179    5.4647 H   0  0  0  0  0  0  0  0  0  0  0  0
    1.8729    4.2030    6.2256 H   0  0  0  0  0  0  0  0  0  0  0  0
    0.5656    5.1064    6.9332 H   0  0  0  0  0  0  0  0  0  0  0  0
    0.5800    2.3075    5.9316 H   0  0  0  0  0  0  0  0  0  0  0  0
    0.8644    1.7884    8.5137 H   0  0  0  0  0  0  0  0  0  0  0  0
   -0.6880    1.7848   10.6905 H   0  0  0  0  0  0  0  0  0  0  0  0
   -2.5485    4.1374    7.2609 H   0  0  0  0  0  0  0  0  0  0  0  0
   -2.3580    1.6550    5.3381 H   0  0  0  0  0  0  0  0  0  0  0  0
   -3.7947    2.3720    3.3789 H   0  0  0  0  0  0  0  0  0  0  0  0
   -3.1771    4.4233    2.1059 H   0  0  0  0  0  0  0  0  0  0  0  0
    2.0860    7.6242    3.4431 H   0  0  0  0  0  0  0  0  0  0  0  0
  1  2  1  0
  1 21  1  0
  1 22  1  0
  1 23  1  0
  2  7  1  0
  2  3  1  0
  2 41  1  6
  3  4  1  0
  3 24  1  0
  3 25  1  0
  5  4  1  6
  4 26  1  0
  4 27  1  0
  5 20  1  0
  5  6  1  0
  5  8  1  0
  6  7  1  0
  6 28  1  0
  6 29  1  0
  7 30  1  0
  7 31  1  0
  8  9  1  0
  8 32  1  0
  8 33  1  0
  9 10  1  0
  9 15  1  0
  9 34  1  6
 10 14  2  0
 10 11  1  0
 11 12  2  0
 11 35  1  0
 12 13  1  0
 12 36  1  0
 13 14  1  0
 14 37  1  0
 15 20  2  0
 15 16  1  0
 16 17  2  0
 16 38  1  0
 17 18  1  0
 17 39  1  0
 18 19  2  0
 18 40  1  0
 19 20  1  0
M  CHG  1   2   1
M  END
>  <i_m_ct_stereo_status>  (53) 
1

>  <s_m_source_file>  (53) 
/var/tmp/pbs.5076255.sched01/tmpvsf1hu0j/0g1dnczxv.sdf

>  <i_m_source_file_index>  (53) 
23

>  <i_lp_mmshare_version>  (53) 
48012

>  <i_f3d_flags>  (53) 
0

>  <s_epik_input>  (53) 
W0NIMl0xW0NIMl1OKFtDSDNdKVtDSDJdW0NIMl1DMTJjM2MoW2NIXVtjSF1bY0hdbjMpW0NAQEhdKFtDSDJdMiljNFtjSF1bY0hdc1tjSF00

>  <s_epik_cmdline>  (53) 
J2VwaWtfcHl0aG9uJywgJy1waHQnLCAnMi4wJywgJy1waCcsICc3LjAnLCAnLXRuJywgJzgnLCAnLW1hJywgJzIwMCcsICctaW1hZScsICc8aW5maWxlLm1hZT4nLCAnLW9tYWUnLCAnPG91dGZpbGUubWFlPic=

>  <r_epik_Ionization_Penalty>  (53) 
0.00740548

>  <r_epik_Ionization_Penalty_Charging>  (53) 
0.00186668

>  <r_epik_Ionization_Penalty_Neutral>  (53) 
0.0055388

>  <r_epik_State_Penalty>  (53) 
0.0115441

>  <r_epik_Charging_Adjusted_Penalty>  (53) 
0.0134108

>  <i_epik_Tot_Q>  (53) 
1

>  <i_epik_Tot_abs_Q>  (53) 
1

>  <s_lp_Force_Field>  (53) 
OPLS3e

>  <r_lp_Energy>  (53) 
54.5594

>  <b_lp_Chiralities_Consistent>  (53) 
1

>  <s_lp_Variant>  (53) 
18:0-1

>  <s_i_glide_gridfile>  (53) 
pfpi4k_grid

>  <i_i_glide_lignum>  (53) 
23

>  <i_i_glide_rotatable_bonds>  (53) 
1

>  <r_i_docking_score>  (53) 
-2.98004

>  <r_i_glide_ligand_efficiency>  (53) 
-0.149002

>  <r_i_glide_ligand_efficiency_sa>  (53) 
-0.404453

>  <r_i_glide_ligand_efficiency_ln>  (53) 
-0.745805

>  <r_i_glide_gscore>  (53) 
-2.98004

>  <r_i_glide_lipo>  (53) 
-0.0309766

>  <r_i_glide_hbond>  (53) 
-0.16

>  <r_i_glide_metal>  (53) 
-0

>  <r_i_glide_rewards>  (53) 
-1.46299

>  <r_i_glide_evdw>  (53) 
-17.0169

>  <r_i_glide_ecoul>  (53) 
-4.44212

>  <r_i_glide_erotb>  (53) 
0.222703

>  <r_i_glide_esite>  (53) 
-0.0316104

>  <r_i_glide_emodel>  (53) 
-25.7879

>  <r_i_glide_energy>  (53) 
-21.459

>  <r_i_glide_einternal>  (53) 
0.349626

>  <r_i_glide_intrahb_reward>  (53) 
-0

>  <i_i_glide_confnum>  (53) 
4

>  <i_i_glide_posenum>  (53) 
12

>  <r_i_glide_eff_state_penalty>  (53) 
0

>  <ligand_id>  (53) 
18

>  <original_smiles>  (53) 
CN1CCC2(CC1)CC(c1ccsc1)c1cccnc12

>  <smiles>  (53) 
[H]c1nc2c(c([H])c1[H])C([H])(c1c([H])sc([H])c1[H])C([H])([H])C21C([H])([H])C([H])([H])[N+]([H])(C([H])([H])[H])C([H])([H])C1([H])[H]

$$$$
18:0:2
     RDKit          3D

 41 44  0  0  1  0  0  0  0  0999 V2000
    4.1097   -2.0887    0.1602 C   0  0  0  0  0  0  0  0  0  0  0  0
    3.0402   -1.2851    0.7985 N   0  0  1  0  0  0  0  0  0  0  0  0
    2.5196   -1.9546    2.0167 C   0  0  0  0  0  0  0  0  0  0  0  0
    1.3540   -1.1604    2.6252 C   0  0  0  0  0  0  0  0  0  0  0  0
    1.7502    0.2978    2.9254 C   0  0  2  0  0  0  0  0  0  0  0  0
    2.3574    0.9430    1.6573 C   0  0  0  0  0  0  0  0  0  0  0  0
    3.5073    0.0915    1.0963 C   0  0  0  0  0  0  0  0  0  0  0  0
    2.7405    0.3660    4.1270 C   0  0  0  0  0  0  0  0  0  0  0  0
    2.0009    0.9598    5.3621 C   0  0  1  0  0  0  0  0  0  0  0  0
    2.7994    2.0222    6.1020 C   0  0  0  0  0  0  0  0  0  0  0  0
    2.2533    2.9122    7.0854 C   0  0  0  0  0  0  0  0  0  0  0  0
    3.1383    3.8334    7.5593 C   0  0  0  0  0  0  0  0  0  0  0  0
    4.7279    3.6057    6.8763 S   0  0  0  0  0  0  0  0  0  0  0  0
    4.1528    2.2511    5.9420 C   0  0  0  0  0  0  0  0  0  0  0  0
    0.6804    1.4320    4.7683 C   0  0  0  0  0  0  0  0  0  0  0  0
   -0.3907    2.1020    5.3987 C   0  0  0  0  0  0  0  0  0  0  0  0
   -1.4804    2.4719    4.5804 C   0  0  0  0  0  0  0  0  0  0  0  0
   -1.4811    2.1064    3.2169 C   0  0  0  0  0  0  0  0  0  0  0  0
   -0.4934    1.3845    2.6396 N   0  0  0  0  0  0  0  0  0  0  0  0
    0.5647    1.0924    3.4233 C   0  0  0  0  0  0  0  0  0  0  0  0
    4.9548   -2.1958    0.8488 H   0  0  0  0  0  0  0  0  0  0  0  0
    4.4655   -1.6040   -0.7501 H   0  0  0  0  0  0  0  0  0  0  0  0
    3.7430   -3.0833   -0.0944 H   0  0  0  0  0  0  0  0  0  0  0  0
    2.1839   -2.9637    1.7823 H   0  0  0  0  0  0  0  0  0  0  0  0
    3.3274   -2.0618    2.7420 H   0  0  0  0  0  0  0  0  0  0  0  0
    0.5301   -1.1655    1.9179 H   0  0  0  0  0  0  0  0  0  0  0  0
    0.9862   -1.6465    3.5311 H   0  0  0  0  0  0  0  0  0  0  0  0
    1.5876    1.0490    0.8918 H   0  0  0  0  0  0  0  0  0  0  0  0
    2.6947    1.9585    1.8751 H   0  0  0  0  0  0  0  0  0  0  0  0
    4.3370    0.0703    1.8043 H   0  0  0  0  0  0  0  0  0  0  0  0
    3.9127    0.5412    0.1931 H   0  0  0  0  0  0  0  0  0  0  0  0
    3.2327   -0.5764    4.3763 H   0  0  0  0  0  0  0  0  0  0  0  0
    3.5369    1.0352    3.8036 H   0  0  0  0  0  0  0  0  0  0  0  0
    1.7628    0.1361    6.0390 H   0  0  0  0  0  0  0  0  0  0  0  0
    1.2235    2.8760    7.4070 H   0  0  0  0  0  0  0  0  0  0  0  0
    2.9600    4.6277    8.2588 H   0  0  0  0  0  0  0  0  0  0  0  0
    4.8573    1.7282    5.3145 H   0  0  0  0  0  0  0  0  0  0  0  0
   -0.4112    2.3172    6.4578 H   0  0  0  0  0  0  0  0  0  0  0  0
   -2.2999    3.0301    5.0016 H   0  0  0  0  0  0  0  0  0  0  0  0
   -2.3104    2.3785    2.5755 H   0  0  0  0  0  0  0  0  0  0  0  0
    2.2603   -1.1902    0.1455 H   0  0  0  0  0  0  0  0  0  0  0  0
  1  2  1  0
  1 21  1  0
  1 22  1  0
  1 23  1  0
  2  7  1  0
  2  3  1  0
  2 41  1  6
  3  4  1  0
  3 24  1  0
  3 25  1  0
  5  4  1  6
  4 26  1  0
  4 27  1  0
  5 20  1  0
  5  6  1  0
  5  8  1  0
  6  7  1  0
  6 28  1  0
  6 29  1  0
  7 30  1  0
  7 31  1  0
  8  9  1  0
  8 32  1  0
  8 33  1  0
  9 10  1  0
  9 15  1  0
  9 34  1  1
 10 14  2  0
 10 11  1  0
 11 12  2  0
 11 35  1  0
 12 13  1  0
 12 36  1  0
 13 14  1  0
 14 37  1  0
 15 20  2  0
 15 16  1  0
 16 17  2  0
 16 38  1  0
 17 18  1  0
 17 39  1  0
 18 19  2  0
 18 40  1  0
 19 20  1  0
M  CHG  1   2   1
M  END
>  <i_m_ct_stereo_status>  (54) 
1

>  <s_m_source_file>  (54) 
/var/tmp/pbs.5076255.sched01/tmpvsf1hu0j/0g1dnczxv.sdf

>  <i_m_source_file_index>  (54) 
23

>  <i_lp_mmshare_version>  (54) 
48012

>  <i_f3d_flags>  (54) 
0

>  <s_epik_input>  (54) 
W0NIMl0xW0NIMl1OKFtDSDNdKVtDSDJdW0NIMl1DMTJjM2MoW2NIXVtjSF1bY0hdbjMpW0NAQEhdKFtDSDJdMiljNFtjSF1bY0hdc1tjSF00

>  <s_epik_cmdline>  (54) 
J2VwaWtfcHl0aG9uJywgJy1waHQnLCAnMi4wJywgJy1waCcsICc3LjAnLCAnLXRuJywgJzgnLCAnLW1hJywgJzIwMCcsICctaW1hZScsICc8aW5maWxlLm1hZT4nLCAnLW9tYWUnLCAnPG91dGZpbGUubWFlPic=

>  <r_epik_Ionization_Penalty>  (54) 
0.00740548

>  <r_epik_Ionization_Penalty_Charging>  (54) 
0.00186668

>  <r_epik_Ionization_Penalty_Neutral>  (54) 
0.0055388

>  <r_epik_State_Penalty>  (54) 
0.0115441

>  <r_epik_Charging_Adjusted_Penalty>  (54) 
0.0134108

>  <i_epik_Tot_Q>  (54) 
1

>  <i_epik_Tot_abs_Q>  (54) 
1

>  <s_lp_Force_Field>  (54) 
OPLS3e

>  <r_lp_Energy>  (54) 
54.5594

>  <b_lp_Chiralities_Consistent>  (54) 
1

>  <s_lp_Variant>  (54) 
18:0-1

>  <s_i_glide_gridfile>  (54) 
pfpi4k_grid

>  <i_i_glide_lignum>  (54) 
23

>  <i_i_glide_rotatable_bonds>  (54) 
1

>  <r_i_docking_score>  (54) 
-2.8927

>  <r_i_glide_ligand_efficiency>  (54) 
-0.144635

>  <r_i_glide_ligand_efficiency_sa>  (54) 
-0.3926

>  <r_i_glide_ligand_efficiency_ln>  (54) 
-0.723949

>  <r_i_glide_gscore>  (54) 
-2.8927

>  <r_i_glide_lipo>  (54) 
-0.00543594

>  <r_i_glide_hbond>  (54) 
-0.2

>  <r_i_glide_metal>  (54) 
-0

>  <r_i_glide_rewards>  (54) 
-1.46299

>  <r_i_glide_evdw>  (54) 
-15.517

>  <r_i_glide_ecoul>  (54) 
-4.01146

>  <r_i_glide_erotb>  (54) 
0.222703

>  <r_i_glide_esite>  (54) 
-0.0694126

>  <r_i_glide_emodel>  (54) 
-22.3588

>  <r_i_glide_energy>  (54) 
-19.5285

>  <r_i_glide_einternal>  (54) 
2.9155

>  <r_i_glide_intrahb_reward>  (54) 
-0

>  <i_i_glide_confnum>  (54) 
4

>  <i_i_glide_posenum>  (54) 
1

>  <r_i_glide_eff_state_penalty>  (54) 
0

>  <ligand_id>  (54) 
18

>  <original_smiles>  (54) 
CN1CCC2(CC1)CC(c1ccsc1)c1cccnc12

>  <smiles>  (54) 
[H]c1nc2c(c([H])c1[H])C([H])(c1c([H])sc([H])c1[H])C([H])([H])C21C([H])([H])C([H])([H])[N+]([H])(C([H])([H])[H])C([H])([H])C1([H])[H]

$$$$
18:1:0
     RDKit          3D

 42 45  0  0  1  0  0  0  0  0999 V2000
   -1.3047   -9.1708    2.6952 C   0  0  0  0  0  0  0  0  0  0  0  0
   -0.2296   -9.8361    3.4484 N   0  0  1  0  0  0  0  0  0  0  0  0
    0.5290  -10.7696    2.5792 C   0  0  0  0  0  0  0  0  0  0  0  0
    1.6130  -11.5133    3.3838 C   0  0  0  0  0  0  0  0  0  0  0  0
    2.5470  -10.5055    4.0836 C   0  0  2  0  0  0  0  0  0  0  0  0
    1.7274   -9.5376    4.9626 C   0  0  0  0  0  0  0  0  0  0  0  0
    0.6428   -8.8449    4.1324 C   0  0  0  0  0  0  0  0  0  0  0  0
    3.4024   -9.7508    3.0022 C   0  0  0  0  0  0  0  0  0  0  0  0
    4.8318  -10.3165    3.0215 C   0  0  1  0  0  0  0  0  0  0  0  0
    5.8558   -9.2263    2.9520 C   0  0  0  0  0  0  0  0  0  0  0  0
    6.6097   -8.9256    1.7780 C   0  0  0  0  0  0  0  0  0  0  0  0
    7.4737   -7.8771    1.9547 C   0  0  0  0  0  0  0  0  0  0  0  0
    7.3752   -7.2266    3.5666 S   0  0  0  0  0  0  0  0  0  0  0  0
    6.1454   -8.3834    3.9964 C   0  0  0  0  0  0  0  0  0  0  0  0
    4.8707  -11.1165    4.2999 C   0  0  0  0  0  0  0  0  0  0  0  0
    5.9903  -11.7393    4.8721 C   0  0  0  0  0  0  0  0  0  0  0  0
    5.7999  -12.4158    6.0896 C   0  0  0  0  0  0  0  0  0  0  0  0
    4.5123  -12.4626    6.6850 C   0  0  0  0  0  0  0  0  0  0  0  0
    3.4651  -11.8586    6.0602 N   0  0  0  0  0  0  0  0  0  0  0  0
    3.6290  -11.1983    4.8917 C   0  0  0  0  0  0  0  0  0  0  0  0
   -0.8807   -8.5129    1.9362 H   0  0  0  0  0  0  0  0  0  0  0  0
   -1.9313   -8.5797    3.3629 H   0  0  0  0  0  0  0  0  0  0  0  0
   -1.9336   -9.8999    2.1876 H   0  0  0  0  0  0  0  0  0  0  0  0
   -0.1332  -11.4764    2.0824 H   0  0  0  0  0  0  0  0  0  0  0  0
    0.9406  -10.1776    1.7585 H   0  0  0  0  0  0  0  0  0  0  0  0
    1.1339  -12.1798    4.1092 H   0  0  0  0  0  0  0  0  0  0  0  0
    2.1933  -12.1594    2.7235 H   0  0  0  0  0  0  0  0  0  0  0  0
    1.2409  -10.0775    5.7812 H   0  0  0  0  0  0  0  0  0  0  0  0
    2.3720   -8.7943    5.4392 H   0  0  0  0  0  0  0  0  0  0  0  0
    1.1118   -8.2022    3.3847 H   0  0  0  0  0  0  0  0  0  0  0  0
    0.0446   -8.1861    4.7665 H   0  0  0  0  0  0  0  0  0  0  0  0
    3.0548   -9.8192    1.9686 H   0  0  0  0  0  0  0  0  0  0  0  0
    3.4138   -8.6819    3.2422 H   0  0  0  0  0  0  0  0  0  0  0  0
    4.9424  -11.0155    2.1953 H   0  0  0  0  0  0  0  0  0  0  0  0
    6.4959   -9.4942    0.8591 H   0  0  0  0  0  0  0  0  0  0  0  0
    8.1859   -7.4642    1.2498 H   0  0  0  0  0  0  0  0  0  0  0  0
    5.7153   -8.3751    4.9898 H   0  0  0  0  0  0  0  0  0  0  0  0
    6.9476  -11.6734    4.3932 H   0  0  0  0  0  0  0  0  0  0  0  0
    6.6355  -12.8964    6.5774 H   0  0  0  0  0  0  0  0  0  0  0  0
    4.2609  -12.9667    7.6055 H   0  0  0  0  0  0  0  0  0  0  0  0
   -0.6943  -10.3909    4.1692 H   0  0  0  0  0  0  0  0  0  0  0  0
    2.5386  -11.9369    6.5227 H   0  0  0  0  0  0  0  0  0  0  0  0
  1  2  1  0
  1 21  1  0
  1 22  1  0
  1 23  1  0
  2  7  1  0
  2  3  1  0
  2 41  1  1
  3  4  1  0
  3 24  1  0
  3 25  1  0
  5  4  1  6
  4 26  1  0
  4 27  1  0
  5 20  1  0
  5  6  1  0
  5  8  1  0
  6  7  1  0
  6 28  1  0
  6 29  1  0
  7 30  1  0
  7 31  1  0
  8  9  1  0
  8 32  1  0
  8 33  1  0
  9 10  1  0
  9 15  1  0
  9 34  1  6
 10 14  2  0
 10 11  1  0
 11 12  2  0
 11 35  1  0
 12 13  1  0
 12 36  1  0
 13 14  1  0
 14 37  1  0
 15 20  2  0
 15 16  1  0
 16 17  2  0
 16 38  1  0
 17 18  1  0
 17 39  1  0
 18 19  2  0
 18 40  1  0
 19 20  1  0
 19 42  1  0
M  CHG  2   2   1  19   1
M  END
>  <i_m_ct_stereo_status>  (55) 
1

>  <s_m_source_file>  (55) 
/var/tmp/pbs.5076255.sched01/tmpvsf1hu0j/0g1dnczxv.sdf

>  <i_m_source_file_index>  (55) 
24

>  <i_lp_mmshare_version>  (55) 
48012

>  <i_f3d_flags>  (55) 
0

>  <s_epik_input>  (55) 
W0NIMl0xW0NIMl1OKFtDSDNdKVtDSDJdW0NIMl1DMTJjM2MoW2NIXVtjSF1bY0hdbjMpW0NAQEhdKFtDSDJdMiljNFtjSF1bY0hdc1tjSF00

>  <s_epik_cmdline>  (55) 
J2VwaWtfcHl0aG9uJywgJy1waHQnLCAnMi4wJywgJy1waCcsICc3LjAnLCAnLXRuJywgJzgnLCAnLW1hJywgJzIwMCcsICctaW1hZScsICc8aW5maWxlLm1hZT4nLCAnLW9tYWUnLCAnPG91dGZpbGUubWFlPic=

>  <r_epik_Ionization_Penalty>  (55) 
2.77823

>  <r_epik_Ionization_Penalty_Charging>  (55) 
2.77823

>  <r_epik_Ionization_Penalty_Neutral>  (55) 
0

>  <r_epik_State_Penalty>  (55) 
2.37759

>  <r_epik_Charging_Adjusted_Penalty>  (55) 
5.15582

>  <i_epik_Tot_Q>  (55) 
2

>  <i_epik_Tot_abs_Q>  (55) 
2

>  <s_lp_Force_Field>  (55) 
OPLS3e

>  <r_lp_Energy>  (55) 
61.8112

>  <b_lp_Chiralities_Consistent>  (55) 
1

>  <s_lp_Variant>  (55) 
18:0-2

>  <s_i_glide_gridfile>  (55) 
pfpi4k_grid

>  <i_i_glide_lignum>  (55) 
24

>  <i_i_glide_rotatable_bonds>  (55) 
1

>  <r_i_docking_score>  (55) 
-5.06509

>  <r_i_glide_ligand_efficiency>  (55) 
-0.253255

>  <r_i_glide_ligand_efficiency_sa>  (55) 
-0.687439

>  <r_i_glide_ligand_efficiency_ln>  (55) 
-1.26763

>  <r_i_glide_gscore>  (55) 
-5.06509

>  <r_i_glide_lipo>  (55) 
-0.40249

>  <r_i_glide_hbond>  (55) 
-0.4

>  <r_i_glide_metal>  (55) 
-0

>  <r_i_glide_rewards>  (55) 
-1.98612

>  <r_i_glide_evdw>  (55) 
-16.5034

>  <r_i_glide_ecoul>  (55) 
-9.66621

>  <r_i_glide_erotb>  (55) 
0.154938

>  <r_i_glide_esite>  (55) 
-0.15632

>  <r_i_glide_emodel>  (55) 
-41.79

>  <r_i_glide_energy>  (55) 
-26.1696

>  <r_i_glide_einternal>  (55) 
0.0474949

>  <r_i_glide_intrahb_reward>  (55) 
-0

>  <i_i_glide_confnum>  (55) 
1

>  <i_i_glide_posenum>  (55) 
23

>  <r_i_glide_eff_state_penalty>  (55) 
0

>  <ligand_id>  (55) 
18

>  <original_smiles>  (55) 
CN1CCC2(CC1)CC(c1ccsc1)c1cccnc12

>  <smiles>  (55) 
[H]c1sc([H])c(C2([H])c3c([H])c([H])c([H])[n+]([H])c3C3(C2([H])[H])C([H])([H])C([H])([H])[N+]([H])(C([H])([H])[H])C([H])([H])C3([H])[H])c1[H]

$$$$
18:1:1
     RDKit          3D

 42 45  0  0  1  0  0  0  0  0999 V2000
   -1.6964   -8.1424    3.6365 C   0  0  0  0  0  0  0  0  0  0  0  0
   -0.6075   -9.0466    4.0548 N   0  0  1  0  0  0  0  0  0  0  0  0
   -0.0988   -9.8264    2.8991 C   0  0  0  0  0  0  0  0  0  0  0  0
    0.9985  -10.8095    3.3533 C   0  0  0  0  0  0  0  0  0  0  0  0
    2.1400  -10.0614    4.0665 C   0  0  2  0  0  0  0  0  0  0  0  0
    1.5794   -9.2276    5.2390 C   0  0  0  0  0  0  0  0  0  0  0  0
    0.4682   -8.2916    4.7540 C   0  0  0  0  0  0  0  0  0  0  0  0
    2.8814   -9.1693    3.0116 C   0  0  0  0  0  0  0  0  0  0  0  0
    4.2390   -9.8326    2.6935 C   0  0  1  0  0  0  0  0  0  0  0  0
    5.3743   -8.8456    2.6609 C   0  0  0  0  0  0  0  0  0  0  0  0
    6.3903   -8.8427    1.6584 C   0  0  0  0  0  0  0  0  0  0  0  0
    7.3162   -7.8458    1.8360 C   0  0  0  0  0  0  0  0  0  0  0  0
    6.9569   -6.8669    3.2295 S   0  0  0  0  0  0  0  0  0  0  0  0
    5.5548   -7.8400    3.5814 C   0  0  0  0  0  0  0  0  0  0  0  0
    4.3890  -10.8835    3.7629 C   0  0  0  0  0  0  0  0  0  0  0  0
    5.4998  -11.7047    3.9994 C   0  0  0  0  0  0  0  0  0  0  0  0
    5.4189  -12.6111    5.0740 C   0  0  0  0  0  0  0  0  0  0  0  0
    4.2368  -12.6625    5.8546 C   0  0  0  0  0  0  0  0  0  0  0  0
    3.1897  -11.8636    5.5630 N   0  0  0  0  0  0  0  0  0  0  0  0
    3.2366  -10.9922    4.5301 C   0  0  0  0  0  0  0  0  0  0  0  0
   -1.3067   -7.3808    2.9578 H   0  0  0  0  0  0  0  0  0  0  0  0
   -2.1359   -7.6415    4.4993 H   0  0  0  0  0  0  0  0  0  0  0  0
   -2.4752   -8.7011    3.1171 H   0  0  0  0  0  0  0  0  0  0  0  0
   -0.9138  -10.3551    2.4012 H   0  0  0  0  0  0  0  0  0  0  0  0
    0.2686   -9.1171    2.1526 H   0  0  0  0  0  0  0  0  0  0  0  0
    0.5644  -11.5698    4.0022 H   0  0  0  0  0  0  0  0  0  0  0  0
    1.3884  -11.3430    2.4895 H   0  0  0  0  0  0  0  0  0  0  0  0
    1.1688   -9.8823    6.0093 H   0  0  0  0  0  0  0  0  0  0  0  0
    2.3717   -8.6572    5.7280 H   0  0  0  0  0  0  0  0  0  0  0  0
    0.8923   -7.5470    4.0775 H   0  0  0  0  0  0  0  0  0  0  0  0
    0.0615   -7.7282    5.5949 H   0  0  0  0  0  0  0  0  0  0  0  0
    2.3635   -9.0003    2.0621 H   0  0  0  0  0  0  0  0  0  0  0  0
    3.0207   -8.1733    3.4431 H   0  0  0  0  0  0  0  0  0  0  0  0
    4.1512  -10.3316    1.7268 H   0  0  0  0  0  0  0  0  0  0  0  0
    6.4026   -9.5702    0.8529 H   0  0  0  0  0  0  0  0  0  0  0  0
    8.1915   -7.6273    1.2386 H   0  0  0  0  0  0  0  0  0  0  0  0
    4.9377   -7.6020    4.4367 H   0  0  0  0  0  0  0  0  0  0  0  0
    6.3779  -11.6319    3.3818 H   0  0  0  0  0  0  0  0  0  0  0  0
    6.2482  -13.2531    5.3130 H   0  0  0  0  0  0  0  0  0  0  0  0
    4.0713  -13.3242    6.6958 H   0  0  0  0  0  0  0  0  0  0  0  0
   -1.0114   -9.7293    4.7007 H   0  0  0  0  0  0  0  0  0  0  0  0
    2.3444  -11.9315    6.1603 H   0  0  0  0  0  0  0  0  0  0  0  0
  1  2  1  0
  1 21  1  0
  1 22  1  0
  1 23  1  0
  2  7  1  0
  2  3  1  0
  2 41  1  1
  3  4  1  0
  3 24  1  0
  3 25  1  0
  5  4  1  6
  4 26  1  0
  4 27  1  0
  5 20  1  0
  5  6  1  0
  5  8  1  0
  6  7  1  0
  6 28  1  0
  6 29  1  0
  7 30  1  0
  7 31  1  0
  8  9  1  0
  8 32  1  0
  8 33  1  0
  9 10  1  0
  9 15  1  0
  9 34  1  6
 10 14  2  0
 10 11  1  0
 11 12  2  0
 11 35  1  0
 12 13  1  0
 12 36  1  0
 13 14  1  0
 14 37  1  0
 15 20  2  0
 15 16  1  0
 16 17  2  0
 16 38  1  0
 17 18  1  0
 17 39  1  0
 18 19  2  0
 18 40  1  0
 19 20  1  0
 19 42  1  0
M  CHG  2   2   1  19   1
M  END
>  <i_m_ct_stereo_status>  (56) 
1

>  <s_m_source_file>  (56) 
/var/tmp/pbs.5076255.sched01/tmpvsf1hu0j/0g1dnczxv.sdf

>  <i_m_source_file_index>  (56) 
24

>  <i_lp_mmshare_version>  (56) 
48012

>  <i_f3d_flags>  (56) 
0

>  <s_epik_input>  (56) 
W0NIMl0xW0NIMl1OKFtDSDNdKVtDSDJdW0NIMl1DMTJjM2MoW2NIXVtjSF1bY0hdbjMpW0NAQEhdKFtDSDJdMiljNFtjSF1bY0hdc1tjSF00

>  <s_epik_cmdline>  (56) 
J2VwaWtfcHl0aG9uJywgJy1waHQnLCAnMi4wJywgJy1waCcsICc3LjAnLCAnLXRuJywgJzgnLCAnLW1hJywgJzIwMCcsICctaW1hZScsICc8aW5maWxlLm1hZT4nLCAnLW9tYWUnLCAnPG91dGZpbGUubWFlPic=

>  <r_epik_Ionization_Penalty>  (56) 
2.77823

>  <r_epik_Ionization_Penalty_Charging>  (56) 
2.77823

>  <r_epik_Ionization_Penalty_Neutral>  (56) 
0

>  <r_epik_State_Penalty>  (56) 
2.37759

>  <r_epik_Charging_Adjusted_Penalty>  (56) 
5.15582

>  <i_epik_Tot_Q>  (56) 
2

>  <i_epik_Tot_abs_Q>  (56) 
2

>  <s_lp_Force_Field>  (56) 
OPLS3e

>  <r_lp_Energy>  (56) 
61.8112

>  <b_lp_Chiralities_Consistent>  (56) 
1

>  <s_lp_Variant>  (56) 
18:0-2

>  <s_i_glide_gridfile>  (56) 
pfpi4k_grid

>  <i_i_glide_lignum>  (56) 
24

>  <i_i_glide_rotatable_bonds>  (56) 
1

>  <r_i_docking_score>  (56) 
-4.90397

>  <r_i_glide_ligand_efficiency>  (56) 
-0.245198

>  <r_i_glide_ligand_efficiency_sa>  (56) 
-0.665571

>  <r_i_glide_ligand_efficiency_ln>  (56) 
-1.2273

>  <r_i_glide_gscore>  (56) 
-4.90397

>  <r_i_glide_lipo>  (56) 
-0.30479

>  <r_i_glide_hbond>  (56) 
-0.4

>  <r_i_glide_metal>  (56) 
-0

>  <r_i_glide_rewards>  (56) 
-1.98612

>  <r_i_glide_evdw>  (56) 
-17.4217

>  <r_i_glide_ecoul>  (56) 
-8.71814

>  <r_i_glide_erotb>  (56) 
0.154938

>  <r_i_glide_esite>  (56) 
-0.189191

>  <r_i_glide_emodel>  (56) 
-40.9418

>  <r_i_glide_energy>  (56) 
-26.1399

>  <r_i_glide_einternal>  (56) 
0.407729

>  <r_i_glide_intrahb_reward>  (56) 
-0

>  <i_i_glide_confnum>  (56) 
4

>  <i_i_glide_posenum>  (56) 
28

>  <r_i_glide_eff_state_penalty>  (56) 
0

>  <ligand_id>  (56) 
18

>  <original_smiles>  (56) 
CN1CCC2(CC1)CC(c1ccsc1)c1cccnc12

>  <smiles>  (56) 
[H]c1sc([H])c(C2([H])c3c([H])c([H])c([H])[n+]([H])c3C3(C2([H])[H])C([H])([H])C([H])([H])[N+]([H])(C([H])([H])[H])C([H])([H])C3([H])[H])c1[H]

$$$$
18:1:2
     RDKit          3D

 42 45  0  0  1  0  0  0  0  0999 V2000
   -1.8673   -7.9847    3.9129 C   0  0  0  0  0  0  0  0  0  0  0  0
   -0.7787   -8.9267    4.1969 N   0  0  1  0  0  0  0  0  0  0  0  0
   -0.3941   -9.6763    2.9794 C   0  0  0  0  0  0  0  0  0  0  0  0
    0.7128  -10.6896    3.3164 C   0  0  0  0  0  0  0  0  0  0  0  0
    1.9353   -9.9956    3.9433 C   0  0  2  0  0  0  0  0  0  0  0  0
    1.4962   -9.1977    5.1874 C   0  0  0  0  0  0  0  0  0  0  0  0
    0.3684   -8.2237    4.8337 C   0  0  0  0  0  0  0  0  0  0  0  0
    2.6139   -9.0778    2.8603 C   0  0  0  0  0  0  0  0  0  0  0  0
    3.9083   -9.7709    2.3877 C   0  0  1  0  0  0  0  0  0  0  0  0
    5.0514   -8.7885    2.2919 C   0  0  0  0  0  0  0  0  0  0  0  0
    5.1600   -7.8081    1.2589 C   0  0  0  0  0  0  0  0  0  0  0  0
    6.2714   -7.0135    1.3838 C   0  0  0  0  0  0  0  0  0  0  0  0
    7.2256   -7.4465    2.7719 S   0  0  0  0  0  0  0  0  0  0  0  0
    6.0841   -8.6934    3.1965 C   0  0  0  0  0  0  0  0  0  0  0  0
    4.1095  -10.8769    3.3962 C   0  0  0  0  0  0  0  0  0  0  0  0
    5.2135  -11.7293    3.4975 C   0  0  0  0  0  0  0  0  0  0  0  0
    5.2184  -12.6609    4.5556 C   0  0  0  0  0  0  0  0  0  0  0  0
    4.1149  -12.7137    5.4409 C   0  0  0  0  0  0  0  0  0  0  0  0
    3.0586  -11.8888    5.2698 N   0  0  0  0  0  0  0  0  0  0  0  0
    3.0368  -10.9785    4.2675 C   0  0  0  0  0  0  0  0  0  0  0  0
   -1.5339   -7.2036    3.2263 H   0  0  0  0  0  0  0  0  0  0  0  0
   -2.1787   -7.5133    4.8435 H   0  0  0  0  0  0  0  0  0  0  0  0
   -2.6979   -8.5183    3.4535 H   0  0  0  0  0  0  0  0  0  0  0  0
   -1.2600  -10.1892    2.5498 H   0  0  0  0  0  0  0  0  0  0  0  0
   -0.0802   -8.9499    2.2249 H   0  0  0  0  0  0  0  0  0  0  0  0
    0.3167  -11.4675    3.9703 H   0  0  0  0  0  0  0  0  0  0  0  0
    1.0103  -11.1990    2.4109 H   0  0  0  0  0  0  0  0  0  0  0  0
    1.1352   -9.8760    5.9629 H   0  0  0  0  0  0  0  0  0  0  0  0
    2.3402   -8.6620    5.6277 H   0  0  0  0  0  0  0  0  0  0  0  0
    0.7491   -7.4596    4.1525 H   0  0  0  0  0  0  0  0  0  0  0  0
    0.0445   -7.6887    5.7288 H   0  0  0  0  0  0  0  0  0  0  0  0
    2.0122   -8.8533    1.9739 H   0  0  0  0  0  0  0  0  0  0  0  0
    2.8629   -8.1101    3.3158 H   0  0  0  0  0  0  0  0  0  0  0  0
    3.7229  -10.2341    1.4156 H   0  0  0  0  0  0  0  0  0  0  0  0
    4.4268   -7.7205    0.4613 H   0  0  0  0  0  0  0  0  0  0  0  0
    6.5985   -6.2116    0.7391 H   0  0  0  0  0  0  0  0  0  0  0  0
    6.2482   -9.2843    4.0845 H   0  0  0  0  0  0  0  0  0  0  0  0
    6.0396  -11.6424    2.8066 H   0  0  0  0  0  0  0  0  0  0  0  0
    6.0651  -13.3110    4.6999 H   0  0  0  0  0  0  0  0  0  0  0  0
    4.0148  -13.3964    6.2689 H   0  0  0  0  0  0  0  0  0  0  0  0
   -1.1420   -9.6363    4.8422 H   0  0  0  0  0  0  0  0  0  0  0  0
    2.2601  -11.9545    5.9207 H   0  0  0  0  0  0  0  0  0  0  0  0
  1  2  1  0
  1 21  1  0
  1 22  1  0
  1 23  1  0
  2  7  1  0
  2  3  1  0
  2 41  1  1
  3  4  1  0
  3 24  1  0
  3 25  1  0
  5  4  1  6
  4 26  1  0
  4 27  1  0
  5 20  1  0
  5  6  1  0
  5  8  1  0
  6  7  1  0
  6 28  1  0
  6 29  1  0
  7 30  1  0
  7 31  1  0
  8  9  1  0
  8 32  1  0
  8 33  1  0
  9 10  1  0
  9 15  1  0
  9 34  1  6
 10 14  2  0
 10 11  1  0
 11 12  2  0
 11 35  1  0
 12 13  1  0
 12 36  1  0
 13 14  1  0
 14 37  1  0
 15 20  2  0
 15 16  1  0
 16 17  2  0
 16 38  1  0
 17 18  1  0
 17 39  1  0
 18 19  2  0
 18 40  1  0
 19 20  1  0
 19 42  1  0
M  CHG  2   2   1  19   1
M  END
>  <i_m_ct_stereo_status>  (57) 
1

>  <s_m_source_file>  (57) 
/var/tmp/pbs.5076255.sched01/tmpvsf1hu0j/0g1dnczxv.sdf

>  <i_m_source_file_index>  (57) 
24

>  <i_lp_mmshare_version>  (57) 
48012

>  <i_f3d_flags>  (57) 
0

>  <s_epik_input>  (57) 
W0NIMl0xW0NIMl1OKFtDSDNdKVtDSDJdW0NIMl1DMTJjM2MoW2NIXVtjSF1bY0hdbjMpW0NAQEhdKFtDSDJdMiljNFtjSF1bY0hdc1tjSF00

>  <s_epik_cmdline>  (57) 
J2VwaWtfcHl0aG9uJywgJy1waHQnLCAnMi4wJywgJy1waCcsICc3LjAnLCAnLXRuJywgJzgnLCAnLW1hJywgJzIwMCcsICctaW1hZScsICc8aW5maWxlLm1hZT4nLCAnLW9tYWUnLCAnPG91dGZpbGUubWFlPic=

>  <r_epik_Ionization_Penalty>  (57) 
2.77823

>  <r_epik_Ionization_Penalty_Charging>  (57) 
2.77823

>  <r_epik_Ionization_Penalty_Neutral>  (57) 
0

>  <r_epik_State_Penalty>  (57) 
2.37759

>  <r_epik_Charging_Adjusted_Penalty>  (57) 
5.15582

>  <i_epik_Tot_Q>  (57) 
2

>  <i_epik_Tot_abs_Q>  (57) 
2

>  <s_lp_Force_Field>  (57) 
OPLS3e

>  <r_lp_Energy>  (57) 
61.8112

>  <b_lp_Chiralities_Consistent>  (57) 
1

>  <s_lp_Variant>  (57) 
18:0-2

>  <s_i_glide_gridfile>  (57) 
pfpi4k_grid

>  <i_i_glide_lignum>  (57) 
24

>  <i_i_glide_rotatable_bonds>  (57) 
1

>  <r_i_docking_score>  (57) 
-4.78054

>  <r_i_glide_ligand_efficiency>  (57) 
-0.239027

>  <r_i_glide_ligand_efficiency_sa>  (57) 
-0.648819

>  <r_i_glide_ligand_efficiency_ln>  (57) 
-1.19641

>  <r_i_glide_gscore>  (57) 
-4.78054

>  <r_i_glide_lipo>  (57) 
-0.257867

>  <r_i_glide_hbond>  (57) 
-0.396225

>  <r_i_glide_metal>  (57) 
-0

>  <r_i_glide_rewards>  (57) 
-1.98612

>  <r_i_glide_evdw>  (57) 
-17.5328

>  <r_i_glide_ecoul>  (57) 
-8.22432

>  <r_i_glide_erotb>  (57) 
0.154938

>  <r_i_glide_esite>  (57) 
-0.184981

>  <r_i_glide_emodel>  (57) 
-40.0238

>  <r_i_glide_energy>  (57) 
-25.7571

>  <r_i_glide_einternal>  (57) 
0.937456

>  <r_i_glide_intrahb_reward>  (57) 
-0

>  <i_i_glide_confnum>  (57) 
4

>  <i_i_glide_posenum>  (57) 
32

>  <r_i_glide_eff_state_penalty>  (57) 
0

>  <ligand_id>  (57) 
18

>  <original_smiles>  (57) 
CN1CCC2(CC1)CC(c1ccsc1)c1cccnc12

>  <smiles>  (57) 
[H]c1sc([H])c(C2([H])c3c([H])c([H])c([H])[n+]([H])c3C3(C2([H])[H])C([H])([H])C([H])([H])[N+]([H])(C([H])([H])[H])C([H])([H])C3([H])[H])c1[H]

$$$$
19:0:0
     RDKit          3D

 33 36  0  0  1  0  0  0  0  0999 V2000
  -10.1185   -8.2430  -10.4301 C   0  0  0  0  0  0  0  0  0  0  0  0
   -8.5937   -8.1734  -10.2089 C   0  0  2  0  0  0  0  0  0  0  0  0
   -8.2489   -8.6983   -8.7993 C   0  0  0  0  0  0  0  0  0  0  0  0
   -8.9575   -7.8269   -7.7400 C   0  0  2  0  0  0  0  0  0  0  0  0
  -10.4947   -7.9075   -7.9685 C   0  0  0  0  0  0  0  0  0  0  0  0
  -10.8389   -7.3827   -9.3696 C   0  0  1  0  0  0  0  0  0  0  0  0
  -10.3678   -5.9188   -9.4909 C   0  0  0  0  0  0  0  0  0  0  0  0
   -8.8366   -5.8418   -9.2725 C   0  0  2  0  0  0  0  0  0  0  0  0
   -8.1271   -6.7071  -10.3405 C   0  0  0  0  0  0  0  0  0  0  0  0
   -8.4531   -6.3646   -7.8714 C   0  0  1  0  0  0  0  0  0  0  0  0
   -8.9181   -5.4504   -6.7408 C   0  0  0  0  0  0  0  0  0  0  0  0
   -8.2265   -4.1435   -6.4700 C   0  0  0  0  0  0  0  0  0  0  0  0
   -8.0729   -5.2928   -5.4958 C   0  0  0  0  0  0  0  0  0  0  0  0
  -10.4618   -9.2769  -10.3629 H   0  0  0  0  0  0  0  0  0  0  0  0
  -10.3706   -7.8851  -11.4295 H   0  0  0  0  0  0  0  0  0  0  0  0
   -8.0893   -8.7916  -10.9498 H   0  0  0  0  0  0  0  0  0  0  0  0
   -8.5643   -9.7389   -8.6904 H   0  0  0  0  0  0  0  0  0  0  0  0
   -7.1694   -8.6819   -8.6372 H   0  0  0  0  0  0  0  0  0  0  0  0
   -8.6835   -8.2074   -6.7562 H   0  0  0  0  0  0  0  0  0  0  0  0
  -10.8384   -8.9366   -7.8480 H   0  0  0  0  0  0  0  0  0  0  0  0
  -11.0564   -7.3169   -7.2471 H   0  0  0  0  0  0  0  0  0  0  0  0
  -11.9198   -7.4339   -9.5162 H   0  0  0  0  0  0  0  0  0  0  0  0
  -10.6317   -5.5288  -10.4743 H   0  0  0  0  0  0  0  0  0  0  0  0
  -10.8994   -5.2980   -8.7685 H   0  0  0  0  0  0  0  0  0  0  0  0
   -8.5020   -4.8115   -9.3623 H   0  0  0  0  0  0  0  0  0  0  0  0
   -7.0453   -6.6527  -10.2186 H   0  0  0  0  0  0  0  0  0  0  0  0
   -8.3385   -6.3279  -11.3405 H   0  0  0  0  0  0  0  0  0  0  0  0
   -7.3664   -6.3861   -7.8193 H   0  0  0  0  0  0  0  0  0  0  0  0
   -9.9957   -5.4281   -6.5941 H   0  0  0  0  0  0  0  0  0  0  0  0
   -7.3819   -3.8826   -7.1014 H   0  0  0  0  0  0  0  0  0  0  0  0
   -8.8400   -3.3052   -6.1579 H   0  0  0  0  0  0  0  0  0  0  0  0
   -8.5834   -5.1894   -4.5426 H   0  0  0  0  0  0  0  0  0  0  0  0
   -7.1274   -5.8286   -5.4640 H   0  0  0  0  0  0  0  0  0  0  0  0
  1  6  1  0
  1  2  1  0
  1 14  1  0
  1 15  1  0
  2  9  1  0
  2  3  1  0
  2 16  1  6
  3  4  1  0
  3 17  1  0
  3 18  1  0
  4 10  1  0
  4  5  1  0
  4 19  1  1
  5  6  1  0
  5 20  1  0
  5 21  1  0
  6  7  1  0
  6 22  1  6
  7  8  1  0
  7 23  1  0
  7 24  1  0
  8  9  1  0
  8 10  1  0
  8 25  1  1
  9 26  1  0
  9 27  1  0
 10 11  1  0
 10 28  1  6
 11 13  1  0
 11 12  1  0
 11 29  1  0
 12 13  1  0
 12 30  1  0
 12 31  1  0
 13 32  1  0
 13 33  1  0
M  END
>  <i_m_ct_stereo_status>  (58) 
1

>  <s_m_source_file>  (58) 
/var/tmp/pbs.5076255.sched01/tmpvsf1hu0j/0g1dnczxv.sdf

>  <i_m_source_file_index>  (58) 
25

>  <i_lp_mmshare_version>  (58) 
48012

>  <i_f3d_flags>  (58) 
0

>  <s_epik_input>  (58) 
W0NAQEhdMTJbQ0gyXVtDQEhdM1tDSDJdW0NAQEhdKFtDSDJdMSlbQ0BASF0oW0NASF0oW0NIMl0zKVtDSDJdMilbQ0hdNFtDSDJdW0NIMl00

>  <s_epik_cmdline>  (58) 
J2VwaWtfcHl0aG9uJywgJy1waHQnLCAnMi4wJywgJy1waCcsICc3LjAnLCAnLXRuJywgJzgnLCAnLW1hJywgJzIwMCcsICctaW1hZScsICc8aW5maWxlLm1hZT4nLCAnLW9tYWUnLCAnPG91dGZpbGUubWFlPic=

>  <r_lp_tautomer_probability>  (58) 
1

>  <r_epik_Ionization_Penalty>  (58) 
0

>  <r_epik_Ionization_Penalty_Charging>  (58) 
0

>  <r_epik_Ionization_Penalty_Neutral>  (58) 
0

>  <r_epik_State_Penalty>  (58) 
-0

>  <r_epik_Charging_Adjusted_Penalty>  (58) 
0

>  <i_epik_Tot_Q>  (58) 
0

>  <i_epik_Tot_abs_Q>  (58) 
0

>  <s_lp_Force_Field>  (58) 
OPLS3e

>  <r_lp_Energy>  (58) 
7.19469

>  <b_lp_Chiralities_Consistent>  (58) 
1

>  <s_lp_Variant>  (58) 
19:0-1

>  <s_i_glide_gridfile>  (58) 
pfpi4k_grid

>  <i_i_glide_lignum>  (58) 
25

>  <i_i_glide_rotatable_bonds>  (58) 
1

>  <r_i_docking_score>  (58) 
-4.4358

>  <r_i_glide_ligand_efficiency>  (58) 
-0.341215

>  <r_i_glide_ligand_efficiency_sa>  (58) 
-0.802311

>  <r_i_glide_ligand_efficiency_ln>  (58) 
-1.24428

>  <r_i_glide_gscore>  (58) 
-4.4358

>  <r_i_glide_lipo>  (58) 
-1.67999

>  <r_i_glide_hbond>  (58) 
0

>  <r_i_glide_metal>  (58) 
-0

>  <r_i_glide_rewards>  (58) 
-2.52699

>  <r_i_glide_evdw>  (58) 
-15.3639

>  <r_i_glide_ecoul>  (58) 
0.24269

>  <r_i_glide_erotb>  (58) 
0.502969

>  <r_i_glide_esite>  (58) 
0

>  <r_i_glide_emodel>  (58) 
-21.0031

>  <r_i_glide_energy>  (58) 
-15.1213

>  <r_i_glide_einternal>  (58) 
0.222431

>  <r_i_glide_intrahb_reward>  (58) 
-0

>  <i_i_glide_confnum>  (58) 
6

>  <i_i_glide_posenum>  (58) 
26

>  <r_i_glide_eff_state_penalty>  (58) 
0

>  <ligand_id>  (58) 
19

>  <original_smiles>  (58) 
C1C2CC3CC1CC(C2)C3C1CC1

>  <smiles>  (58) 
[H]C1([H])C2([H])C([H])([H])C3([H])C([H])([H])C1([H])C([H])([H])C([H])(C2([H])[H])C3([H])C1([H])C([H])([H])C1([H])[H]

$$$$
19:0:1
     RDKit          3D

 33 36  0  0  1  0  0  0  0  0999 V2000
  -10.5984   -6.6131  -10.2560 C   0  0  0  0  0  0  0  0  0  0  0  0
  -10.8853   -6.7251   -8.7445 C   0  0  2  0  0  0  0  0  0  0  0  0
   -9.9095   -5.8135   -7.9645 C   0  0  0  0  0  0  0  0  0  0  0  0
   -8.4561   -6.2687   -8.2351 C   0  0  2  0  0  0  0  0  0  0  0  0
   -8.1768   -6.1561   -9.7551 C   0  0  0  0  0  0  0  0  0  0  0  0
   -9.1477   -7.0623  -10.5373 C   0  0  1  0  0  0  0  0  0  0  0  0
   -8.9652   -8.5275  -10.0845 C   0  0  0  0  0  0  0  0  0  0  0  0
   -9.2484   -8.6427   -8.5655 C   0  0  2  0  0  0  0  0  0  0  0  0
  -10.7102   -8.1951   -8.3075 C   0  0  0  0  0  0  0  0  0  0  0  0
   -8.2835   -7.7339   -7.7580 C   0  0  1  0  0  0  0  0  0  0  0  0
   -6.8434   -8.2203   -7.7538 C   0  0  0  0  0  0  0  0  0  0  0  0
   -6.3991   -9.3016   -6.8044 C   0  0  0  0  0  0  0  0  0  0  0  0
   -5.9271   -7.8756   -6.6072 C   0  0  0  0  0  0  0  0  0  0  0  0
  -10.7519   -5.5856  -10.5882 H   0  0  0  0  0  0  0  0  0  0  0  0
  -11.2979   -7.2387  -10.8139 H   0  0  0  0  0  0  0  0  0  0  0  0
  -11.9076   -6.4090   -8.5446 H   0  0  0  0  0  0  0  0  0  0  0  0
  -10.0415   -4.7760   -8.2642 H   0  0  0  0  0  0  0  0  0  0  0  0
  -10.1287   -5.8439   -6.8957 H   0  0  0  0  0  0  0  0  0  0  0  0
   -7.7737   -5.6216   -7.6786 H   0  0  0  0  0  0  0  0  0  0  0  0
   -8.2778   -5.1194  -10.0767 H   0  0  0  0  0  0  0  0  0  0  0  0
   -7.1533   -6.4509   -9.9822 H   0  0  0  0  0  0  0  0  0  0  0  0
   -8.9366   -6.9774  -11.6054 H   0  0  0  0  0  0  0  0  0  0  0  0
   -9.6434   -9.1749  -10.6405 H   0  0  0  0  0  0  0  0  0  0  0  0
   -7.9617   -8.8761  -10.3189 H   0  0  0  0  0  0  0  0  0  0  0  0
   -9.1265   -9.6799   -8.2505 H   0  0  0  0  0  0  0  0  0  0  0  0
  -10.9678   -8.2994   -7.2544 H   0  0  0  0  0  0  0  0  0  0  0  0
  -11.4135   -8.8358   -8.8426 H   0  0  0  0  0  0  0  0  0  0  0  0
   -8.5904   -7.7660   -6.7159 H   0  0  0  0  0  0  0  0  0  0  0  0
   -6.3762   -8.2462   -8.7368 H   0  0  0  0  0  0  0  0  0  0  0  0
   -7.1320   -9.7045   -6.1061 H   0  0  0  0  0  0  0  0  0  0  0  0
   -5.6777  -10.0230   -7.1779 H   0  0  0  0  0  0  0  0  0  0  0  0
   -4.8935   -7.6432   -6.8539 H   0  0  0  0  0  0  0  0  0  0  0  0
   -6.3426   -7.3021   -5.7778 H   0  0  0  0  0  0  0  0  0  0  0  0
  1  6  1  0
  1  2  1  0
  1 14  1  0
  1 15  1  0
  2  9  1  0
  2  3  1  0
  2 16  1  6
  3  4  1  0
  3 17  1  0
  3 18  1  0
  4 10  1  0
  4  5  1  0
  4 19  1  1
  5  6  1  0
  5 20  1  0
  5 21  1  0
  6  7  1  0
  6 22  1  6
  7  8  1  0
  7 23  1  0
  7 24  1  0
  8  9  1  0
  8 10  1  0
  8 25  1  1
  9 26  1  0
  9 27  1  0
 10 11  1  0
 10 28  1  1
 11 13  1  0
 11 12  1  0
 11 29  1  0
 12 13  1  0
 12 30  1  0
 12 31  1  0
 13 32  1  0
 13 33  1  0
M  END
>  <i_m_ct_stereo_status>  (59) 
1

>  <s_m_source_file>  (59) 
/var/tmp/pbs.5076255.sched01/tmpvsf1hu0j/0g1dnczxv.sdf

>  <i_m_source_file_index>  (59) 
25

>  <i_lp_mmshare_version>  (59) 
48012

>  <i_f3d_flags>  (59) 
0

>  <s_epik_input>  (59) 
W0NAQEhdMTJbQ0gyXVtDQEhdM1tDSDJdW0NAQEhdKFtDSDJdMSlbQ0BASF0oW0NASF0oW0NIMl0zKVtDSDJdMilbQ0hdNFtDSDJdW0NIMl00

>  <s_epik_cmdline>  (59) 
J2VwaWtfcHl0aG9uJywgJy1waHQnLCAnMi4wJywgJy1waCcsICc3LjAnLCAnLXRuJywgJzgnLCAnLW1hJywgJzIwMCcsICctaW1hZScsICc8aW5maWxlLm1hZT4nLCAnLW9tYWUnLCAnPG91dGZpbGUubWFlPic=

>  <r_lp_tautomer_probability>  (59) 
1

>  <r_epik_Ionization_Penalty>  (59) 
0

>  <r_epik_Ionization_Penalty_Charging>  (59) 
0

>  <r_epik_Ionization_Penalty_Neutral>  (59) 
0

>  <r_epik_State_Penalty>  (59) 
-0

>  <r_epik_Charging_Adjusted_Penalty>  (59) 
0

>  <i_epik_Tot_Q>  (59) 
0

>  <i_epik_Tot_abs_Q>  (59) 
0

>  <s_lp_Force_Field>  (59) 
OPLS3e

>  <r_lp_Energy>  (59) 
7.19469

>  <b_lp_Chiralities_Consistent>  (59) 
1

>  <s_lp_Variant>  (59) 
19:0-1

>  <s_i_glide_gridfile>  (59) 
pfpi4k_grid

>  <i_i_glide_lignum>  (59) 
25

>  <i_i_glide_rotatable_bonds>  (59) 
1

>  <r_i_docking_score>  (59) 
-4.34928

>  <r_i_glide_ligand_efficiency>  (59) 
-0.33456

>  <r_i_glide_ligand_efficiency_sa>  (59) 
-0.786662

>  <r_i_glide_ligand_efficiency_ln>  (59) 
-1.22001

>  <r_i_glide_gscore>  (59) 
-4.34928

>  <r_i_glide_lipo>  (59) 
-1.39316

>  <r_i_glide_hbond>  (59) 
0

>  <r_i_glide_metal>  (59) 
-0

>  <r_i_glide_rewards>  (59) 
-2.56187

>  <r_i_glide_evdw>  (59) 
-17.5123

>  <r_i_glide_ecoul>  (59) 
-0.144007

>  <r_i_glide_erotb>  (59) 
0.502969

>  <r_i_glide_esite>  (59) 
0

>  <r_i_glide_emodel>  (59) 
-23.5599

>  <r_i_glide_energy>  (59) 
-17.6563

>  <r_i_glide_einternal>  (59) 
0.00190308

>  <r_i_glide_intrahb_reward>  (59) 
-0

>  <i_i_glide_confnum>  (59) 
2

>  <i_i_glide_posenum>  (59) 
10

>  <r_i_glide_eff_state_penalty>  (59) 
0

>  <ligand_id>  (59) 
19

>  <original_smiles>  (59) 
C1C2CC3CC1CC(C2)C3C1CC1

>  <smiles>  (59) 
[H]C1([H])C2([H])C([H])([H])C3([H])C([H])([H])C1([H])C([H])([H])C([H])(C2([H])[H])C3([H])C1([H])C([H])([H])C1([H])[H]

$$$$
19:0:2
     RDKit          3D

 33 36  0  0  1  0  0  0  0  0999 V2000
    5.7340   -2.7358    1.5957 C   0  0  0  0  0  0  0  0  0  0  0  0
    6.2340   -3.6943    0.4946 C   0  0  2  0  0  0  0  0  0  0  0  0
    6.7603   -2.8694   -0.7017 C   0  0  0  0  0  0  0  0  0  0  0  0
    5.6129   -2.0006   -1.2682 C   0  0  2  0  0  0  0  0  0  0  0  0
    5.1128   -1.0394   -0.1668 C   0  0  0  0  0  0  0  0  0  0  0  0
    4.5958   -1.8521    1.0378 C   0  0  1  0  0  0  0  0  0  0  0  0
    3.4334   -2.7560    0.5827 C   0  0  0  0  0  0  0  0  0  0  0  0
    3.9245   -3.7148   -0.5264 C   0  0  2  0  0  0  0  0  0  0  0  0
    5.0644   -4.5971    0.0363 C   0  0  0  0  0  0  0  0  0  0  0  0
    4.4702   -2.9285   -1.7440 C   0  0  1  0  0  0  0  0  0  0  0  0
    3.3884   -2.1899   -2.5173 C   0  0  0  0  0  0  0  0  0  0  0  0
    2.6515   -2.8718   -3.6400 C   0  0  0  0  0  0  0  0  0  0  0  0
    3.6364   -1.7560   -3.9341 C   0  0  0  0  0  0  0  0  0  0  0  0
    6.5538   -2.1117    1.9554 H   0  0  0  0  0  0  0  0  0  0  0  0
    5.3725   -3.3070    2.4537 H   0  0  0  0  0  0  0  0  0  0  0  0
    7.0412   -4.3129    0.8918 H   0  0  0  0  0  0  0  0  0  0  0  0
    7.5966   -2.2430   -0.3849 H   0  0  0  0  0  0  0  0  0  0  0  0
    7.1472   -3.5274   -1.4797 H   0  0  0  0  0  0  0  0  0  0  0  0
    5.9821   -1.4273   -2.1181 H   0  0  0  0  0  0  0  0  0  0  0  0
    5.9163   -0.3705    0.1472 H   0  0  0  0  0  0  0  0  0  0  0  0
    4.3214   -0.3946   -0.5509 H   0  0  0  0  0  0  0  0  0  0  0  0
    4.2476   -1.1688    1.8128 H   0  0  0  0  0  0  0  0  0  0  0  0
    3.0442   -3.3228    1.4287 H   0  0  0  0  0  0  0  0  0  0  0  0
    2.6075   -2.1423    0.2288 H   0  0  0  0  0  0  0  0  0  0  0  0
    3.0970   -4.3485   -0.8454 H   0  0  0  0  0  0  0  0  0  0  0  0
    5.4051   -5.3011   -0.7235 H   0  0  0  0  0  0  0  0  0  0  0  0
    4.7010   -5.2026    0.8680 H   0  0  0  0  0  0  0  0  0  0  0  0
    4.9017   -3.6531   -2.4350 H   0  0  0  0  0  0  0  0  0  0  0  0
    2.8019   -1.4912   -1.9253 H   0  0  0  0  0  0  0  0  0  0  0  0
    2.9397   -3.8899   -3.8860 H   0  0  0  0  0  0  0  0  0  0  0  0
    1.5921   -2.6545   -3.7538 H   0  0  0  0  0  0  0  0  0  0  0  0
    3.2286   -0.7967   -4.2478 H   0  0  0  0  0  0  0  0  0  0  0  0
    4.6050   -2.0110   -4.3558 H   0  0  0  0  0  0  0  0  0  0  0  0
  1  6  1  0
  1  2  1  0
  1 14  1  0
  1 15  1  0
  2  9  1  0
  2  3  1  0
  2 16  1  1
  3  4  1  0
  3 17  1  0
  3 18  1  0
  4 10  1  0
  4  5  1  0
  4 19  1  6
  5  6  1  0
  5 20  1  0
  5 21  1  0
  6  7  1  0
  6 22  1  1
  7  8  1  0
  7 23  1  0
  7 24  1  0
  8  9  1  0
  8 10  1  0
  8 25  1  6
  9 26  1  0
  9 27  1  0
 10 11  1  0
 10 28  1  6
 11 13  1  0
 11 12  1  0
 11 29  1  0
 12 13  1  0
 12 30  1  0
 12 31  1  0
 13 32  1  0
 13 33  1  0
M  END
>  <i_m_ct_stereo_status>  (60) 
1

>  <s_m_source_file>  (60) 
/var/tmp/pbs.5076255.sched01/tmpvsf1hu0j/0g1dnczxv.sdf

>  <i_m_source_file_index>  (60) 
25

>  <i_lp_mmshare_version>  (60) 
48012

>  <i_f3d_flags>  (60) 
0

>  <s_epik_input>  (60) 
W0NAQEhdMTJbQ0gyXVtDQEhdM1tDSDJdW0NAQEhdKFtDSDJdMSlbQ0BASF0oW0NASF0oW0NIMl0zKVtDSDJdMilbQ0hdNFtDSDJdW0NIMl00

>  <s_epik_cmdline>  (60) 
J2VwaWtfcHl0aG9uJywgJy1waHQnLCAnMi4wJywgJy1waCcsICc3LjAnLCAnLXRuJywgJzgnLCAnLW1hJywgJzIwMCcsICctaW1hZScsICc8aW5maWxlLm1hZT4nLCAnLW9tYWUnLCAnPG91dGZpbGUubWFlPic=

>  <r_lp_tautomer_probability>  (60) 
1

>  <r_epik_Ionization_Penalty>  (60) 
0

>  <r_epik_Ionization_Penalty_Charging>  (60) 
0

>  <r_epik_Ionization_Penalty_Neutral>  (60) 
0

>  <r_epik_State_Penalty>  (60) 
-0

>  <r_epik_Charging_Adjusted_Penalty>  (60) 
0

>  <i_epik_Tot_Q>  (60) 
0

>  <i_epik_Tot_abs_Q>  (60) 
0

>  <s_lp_Force_Field>  (60) 
OPLS3e

>  <r_lp_Energy>  (60) 
7.19469

>  <b_lp_Chiralities_Consistent>  (60) 
1

>  <s_lp_Variant>  (60) 
19:0-1

>  <s_i_glide_gridfile>  (60) 
pfpi4k_grid

>  <i_i_glide_lignum>  (60) 
25

>  <i_i_glide_rotatable_bonds>  (60) 
1

>  <r_i_docking_score>  (60) 
-3.38937

>  <r_i_glide_ligand_efficiency>  (60) 
-0.26072

>  <r_i_glide_ligand_efficiency_sa>  (60) 
-0.613041

>  <r_i_glide_ligand_efficiency_ln>  (60) 
-0.950747

>  <r_i_glide_gscore>  (60) 
-3.38937

>  <r_i_glide_lipo>  (60) 
-0.549333

>  <r_i_glide_hbond>  (60) 
0

>  <r_i_glide_metal>  (60) 
-0

>  <r_i_glide_rewards>  (60) 
-2.20706

>  <r_i_glide_evdw>  (60) 
-21.8637

>  <r_i_glide_ecoul>  (60) 
-0.285036

>  <r_i_glide_erotb>  (60) 
0.502969

>  <r_i_glide_esite>  (60) 
0

>  <r_i_glide_emodel>  (60) 
-26.6937

>  <r_i_glide_energy>  (60) 
-22.1488

>  <r_i_glide_einternal>  (60) 
0.0776535

>  <r_i_glide_intrahb_reward>  (60) 
-0

>  <i_i_glide_confnum>  (60) 
3

>  <i_i_glide_posenum>  (60) 
36

>  <r_i_glide_eff_state_penalty>  (60) 
0

>  <ligand_id>  (60) 
19

>  <original_smiles>  (60) 
C1C2CC3CC1CC(C2)C3C1CC1

>  <smiles>  (60) 
[H]C1([H])C2([H])C([H])([H])C3([H])C([H])([H])C1([H])C([H])([H])C([H])(C2([H])[H])C3([H])C1([H])C([H])([H])C1([H])[H]

$$$$
20:0:0
     RDKit          3D

 19 20  0  0  1  0  0  0  0  0999 V2000
   -9.5602   -3.4645   -5.7082 C   0  0  0  0  0  0  0  0  0  0  0  0
   -8.6972   -4.6593   -6.0497 C   0  0  0  0  0  0  0  0  0  0  0  0
   -8.9873   -5.4438   -7.1822 C   0  0  0  0  0  0  0  0  0  0  0  0
   -8.1830   -6.5569   -7.4891 C   0  0  0  0  0  0  0  0  0  0  0  0
   -7.0840   -6.9067   -6.6752 C   0  0  0  0  0  0  0  0  0  0  0  0
   -6.3215   -7.9795   -6.9960 N   0  0  0  0  0  0  0  0  0  0  0  0
   -5.2810   -8.2670   -6.1871 C   0  0  0  0  0  0  0  0  0  0  0  0
   -4.9852   -7.4811   -5.0586 C   0  0  0  0  0  0  0  0  0  0  0  0
   -5.7301   -6.4064   -4.7262 N   0  0  0  0  0  0  0  0  0  0  0  0
   -6.7858   -6.1086   -5.5230 C   0  0  0  0  0  0  0  0  0  0  0  0
   -7.6011   -4.9948   -5.2300 C   0  0  0  0  0  0  0  0  0  0  0  0
  -10.3702   -3.3293   -6.4270 H   0  0  0  0  0  0  0  0  0  0  0  0
   -8.9568   -2.5579   -5.7000 H   0  0  0  0  0  0  0  0  0  0  0  0
  -10.0007   -3.5915   -4.7209 H   0  0  0  0  0  0  0  0  0  0  0  0
   -9.8314   -5.2011   -7.8121 H   0  0  0  0  0  0  0  0  0  0  0  0
   -8.4177   -7.1524   -8.3593 H   0  0  0  0  0  0  0  0  0  0  0  0
   -4.6743   -9.1224   -6.4401 H   0  0  0  0  0  0  0  0  0  0  0  0
   -4.1513   -7.7246   -4.4175 H   0  0  0  0  0  0  0  0  0  0  0  0
   -7.3835   -4.3891   -4.3619 H   0  0  0  0  0  0  0  0  0  0  0  0
  1  2  1  0
  1 12  1  0
  1 13  1  0
  1 14  1  0
  2 11  2  0
  2  3  1  0
  3  4  2  0
  3 15  1  0
  4  5  1  0
  4 16  1  0
  5 10  2  0
  5  6  1  0
  6  7  2  0
  7  8  1  0
  7 17  1  0
  8  9  2  0
  8 18  1  0
  9 10  1  0
 10 11  1  0
 11 19  1  0
M  END
>  <i_m_ct_stereo_status>  (61) 
1

>  <s_m_source_file>  (61) 
/var/tmp/pbs.5076255.sched01/tmpvsf1hu0j/0g1dnczxv.sdf

>  <i_m_source_file_index>  (61) 
26

>  <i_lp_mmshare_version>  (61) 
48012

>  <i_f3d_flags>  (61) 
0

>  <s_epik_input>  (61) 
W2NIXTFbY0hdYyhbQ0gzXSlbY0hdYyhjMTIpbltjSF1bY0hdbjI=

>  <s_epik_cmdline>  (61) 
J2VwaWtfcHl0aG9uJywgJy1waHQnLCAnMi4wJywgJy1waCcsICc3LjAnLCAnLXRuJywgJzgnLCAnLW1hJywgJzIwMCcsICctaW1hZScsICc8aW5maWxlLm1hZT4nLCAnLW9tYWUnLCAnPG91dGZpbGUubWFlPic=

>  <r_lp_tautomer_probability>  (61) 
1

>  <r_epik_Ionization_Penalty>  (61) 
3.4793e-06

>  <r_epik_Ionization_Penalty_Charging>  (61) 
0

>  <r_epik_Ionization_Penalty_Neutral>  (61) 
3.4793e-06

>  <r_epik_State_Penalty>  (61) 
-0

>  <r_epik_Charging_Adjusted_Penalty>  (61) 
0

>  <i_epik_Tot_Q>  (61) 
0

>  <i_epik_Tot_abs_Q>  (61) 
0

>  <s_lp_Force_Field>  (61) 
OPLS3e

>  <r_lp_Energy>  (61) 
19.7797

>  <b_lp_Chiralities_Consistent>  (61) 
1

>  <s_lp_Variant>  (61) 
20:0-1

>  <s_i_glide_gridfile>  (61) 
pfpi4k_grid

>  <i_i_glide_lignum>  (61) 
26

>  <i_i_glide_rotatable_bonds>  (61) 
0

>  <r_i_docking_score>  (61) 
-6.48509

>  <r_i_glide_ligand_efficiency>  (61) 
-0.589554

>  <r_i_glide_ligand_efficiency_sa>  (61) 
-1.31116

>  <r_i_glide_ligand_efficiency_ln>  (61) 
-1.90856

>  <r_i_glide_gscore>  (61) 
-6.48509

>  <r_i_glide_lipo>  (61) 
-2.47889

>  <r_i_glide_hbond>  (61) 
0

>  <r_i_glide_metal>  (61) 
-0

>  <r_i_glide_rewards>  (61) 
-2.80796

>  <r_i_glide_evdw>  (61) 
-22.3831

>  <r_i_glide_ecoul>  (61) 
-0.527236

>  <r_i_glide_erotb>  (61) 
0

>  <r_i_glide_esite>  (61) 
0

>  <r_i_glide_emodel>  (61) 
-32.0927

>  <r_i_glide_energy>  (61) 
-22.9104

>  <r_i_glide_einternal>  (61) 
0

>  <r_i_glide_intrahb_reward>  (61) 
-0

>  <i_i_glide_confnum>  (61) 
1

>  <i_i_glide_posenum>  (61) 
21

>  <r_i_glide_eff_state_penalty>  (61) 
0

>  <ligand_id>  (61) 
20

>  <original_smiles>  (61) 
Cc1ccc2nccnc2c1

>  <smiles>  (61) 
[H]c1nc2c([H])c([H])c(C([H])([H])[H])c([H])c2nc1[H]

$$$$
20:0:1
     RDKit          3D

 19 20  0  0  1  0  0  0  0  0999 V2000
   -6.6170   -4.7426   -4.1760 C   0  0  0  0  0  0  0  0  0  0  0  0
   -7.5642   -4.9312   -5.3418 C   0  0  0  0  0  0  0  0  0  0  0  0
   -8.6785   -4.0867   -5.5029 C   0  0  0  0  0  0  0  0  0  0  0  0
   -9.5532   -4.2695   -6.5878 C   0  0  0  0  0  0  0  0  0  0  0  0
   -9.3319   -5.2958   -7.5302 C   0  0  0  0  0  0  0  0  0  0  0  0
  -10.1851   -5.4529   -8.5700 N   0  0  0  0  0  0  0  0  0  0  0  0
   -9.9263   -6.4462   -9.4451 C   0  0  0  0  0  0  0  0  0  0  0  0
   -8.8094   -7.2885   -9.2930 C   0  0  0  0  0  0  0  0  0  0  0  0
   -7.9475   -7.1447   -8.2636 N   0  0  0  0  0  0  0  0  0  0  0  0
   -8.1967   -6.1534   -7.3739 C   0  0  0  0  0  0  0  0  0  0  0  0
   -7.3309   -5.9560   -6.2772 C   0  0  0  0  0  0  0  0  0  0  0  0
   -6.9267   -3.9148   -3.5369 H   0  0  0  0  0  0  0  0  0  0  0  0
   -5.6090   -4.5338   -4.5372 H   0  0  0  0  0  0  0  0  0  0  0  0
   -6.5853   -5.6470   -3.5676 H   0  0  0  0  0  0  0  0  0  0  0  0
   -8.8732   -3.3036   -4.7852 H   0  0  0  0  0  0  0  0  0  0  0  0
  -10.4075   -3.6151   -6.6879 H   0  0  0  0  0  0  0  0  0  0  0  0
  -10.6083   -6.5670  -10.2726 H   0  0  0  0  0  0  0  0  0  0  0  0
   -8.6085   -8.0777  -10.0010 H   0  0  0  0  0  0  0  0  0  0  0  0
   -6.4725   -6.5994   -6.1571 H   0  0  0  0  0  0  0  0  0  0  0  0
  1  2  1  0
  1 12  1  0
  1 13  1  0
  1 14  1  0
  2 11  2  0
  2  3  1  0
  3  4  2  0
  3 15  1  0
  4  5  1  0
  4 16  1  0
  5 10  2  0
  5  6  1  0
  6  7  2  0
  7  8  1  0
  7 17  1  0
  8  9  2  0
  8 18  1  0
  9 10  1  0
 10 11  1  0
 11 19  1  0
M  END
>  <i_m_ct_stereo_status>  (62) 
1

>  <s_m_source_file>  (62) 
/var/tmp/pbs.5076255.sched01/tmpvsf1hu0j/0g1dnczxv.sdf

>  <i_m_source_file_index>  (62) 
26

>  <i_lp_mmshare_version>  (62) 
48012

>  <i_f3d_flags>  (62) 
0

>  <s_epik_input>  (62) 
W2NIXTFbY0hdYyhbQ0gzXSlbY0hdYyhjMTIpbltjSF1bY0hdbjI=

>  <s_epik_cmdline>  (62) 
J2VwaWtfcHl0aG9uJywgJy1waHQnLCAnMi4wJywgJy1waCcsICc3LjAnLCAnLXRuJywgJzgnLCAnLW1hJywgJzIwMCcsICctaW1hZScsICc8aW5maWxlLm1hZT4nLCAnLW9tYWUnLCAnPG91dGZpbGUubWFlPic=

>  <r_lp_tautomer_probability>  (62) 
1

>  <r_epik_Ionization_Penalty>  (62) 
3.4793e-06

>  <r_epik_Ionization_Penalty_Charging>  (62) 
0

>  <r_epik_Ionization_Penalty_Neutral>  (62) 
3.4793e-06

>  <r_epik_State_Penalty>  (62) 
-0

>  <r_epik_Charging_Adjusted_Penalty>  (62) 
0

>  <i_epik_Tot_Q>  (62) 
0

>  <i_epik_Tot_abs_Q>  (62) 
0

>  <s_lp_Force_Field>  (62) 
OPLS3e

>  <r_lp_Energy>  (62) 
19.7797

>  <b_lp_Chiralities_Consistent>  (62) 
1

>  <s_lp_Variant>  (62) 
20:0-1

>  <s_i_glide_gridfile>  (62) 
pfpi4k_grid

>  <i_i_glide_lignum>  (62) 
26

>  <i_i_glide_rotatable_bonds>  (62) 
0

>  <r_i_docking_score>  (62) 
-5.62677

>  <r_i_glide_ligand_efficiency>  (62) 
-0.511524

>  <r_i_glide_ligand_efficiency_sa>  (62) 
-1.13762

>  <r_i_glide_ligand_efficiency_ln>  (62) 
-1.65596

>  <r_i_glide_gscore>  (62) 
-5.62677

>  <r_i_glide_lipo>  (62) 
-2.00337

>  <r_i_glide_hbond>  (62) 
0

>  <r_i_glide_metal>  (62) 
-0

>  <r_i_glide_rewards>  (62) 
-2.56593

>  <r_i_glide_evdw>  (62) 
-19.6276

>  <r_i_glide_ecoul>  (62) 
-0.507255

>  <r_i_glide_erotb>  (62) 
0

>  <r_i_glide_esite>  (62) 
0

>  <r_i_glide_emodel>  (62) 
-28.102

>  <r_i_glide_energy>  (62) 
-20.1349

>  <r_i_glide_einternal>  (62) 
0

>  <r_i_glide_intrahb_reward>  (62) 
-0

>  <i_i_glide_confnum>  (62) 
2

>  <i_i_glide_posenum>  (62) 
24

>  <r_i_glide_eff_state_penalty>  (62) 
0

>  <ligand_id>  (62) 
20

>  <original_smiles>  (62) 
Cc1ccc2nccnc2c1

>  <smiles>  (62) 
[H]c1nc2c([H])c([H])c(C([H])([H])[H])c([H])c2nc1[H]

$$$$
20:0:2
     RDKit          3D

 19 20  0  0  1  0  0  0  0  0999 V2000
   -7.4541   -4.1492   -4.7187 C   0  0  0  0  0  0  0  0  0  0  0  0
   -7.0732   -5.4868   -5.3136 C   0  0  0  0  0  0  0  0  0  0  0  0
   -7.7857   -6.0094   -6.4067 C   0  0  0  0  0  0  0  0  0  0  0  0
   -7.4211   -7.2576   -6.9434 C   0  0  0  0  0  0  0  0  0  0  0  0
   -6.3503   -8.0008   -6.4090 C   0  0  0  0  0  0  0  0  0  0  0  0
   -6.0210   -9.2014   -6.9441 N   0  0  0  0  0  0  0  0  0  0  0  0
   -4.9914   -9.8708   -6.3846 C   0  0  0  0  0  0  0  0  0  0  0  0
   -4.2759   -9.3411   -5.2949 C   0  0  0  0  0  0  0  0  0  0  0  0
   -4.5849   -8.1423   -4.7608 N   0  0  0  0  0  0  0  0  0  0  0  0
   -5.6230   -7.4646   -5.3031 C   0  0  0  0  0  0  0  0  0  0  0  0
   -5.9986   -6.2150   -4.7709 C   0  0  0  0  0  0  0  0  0  0  0  0
   -8.2996   -3.7042   -5.2416 H   0  0  0  0  0  0  0  0  0  0  0  0
   -6.6123   -3.4579   -4.7776 H   0  0  0  0  0  0  0  0  0  0  0  0
   -7.7270   -4.2624   -3.6685 H   0  0  0  0  0  0  0  0  0  0  0  0
   -8.6182   -5.4642   -6.8289 H   0  0  0  0  0  0  0  0  0  0  0  0
   -7.9766   -7.6564   -7.7770 H   0  0  0  0  0  0  0  0  0  0  0  0
   -4.7291  -10.8238   -6.8190 H   0  0  0  0  0  0  0  0  0  0  0  0
   -3.4444   -9.8759   -4.8611 H   0  0  0  0  0  0  0  0  0  0  0  0
   -5.4569   -5.8171   -3.9277 H   0  0  0  0  0  0  0  0  0  0  0  0
  1  2  1  0
  1 12  1  0
  1 13  1  0
  1 14  1  0
  2 11  2  0
  2  3  1  0
  3  4  2  0
  3 15  1  0
  4  5  1  0
  4 16  1  0
  5 10  2  0
  5  6  1  0
  6  7  2  0
  7  8  1  0
  7 17  1  0
  8  9  2  0
  8 18  1  0
  9 10  1  0
 10 11  1  0
 11 19  1  0
M  END
>  <i_m_ct_stereo_status>  (63) 
1

>  <s_m_source_file>  (63) 
/var/tmp/pbs.5076255.sched01/tmpvsf1hu0j/0g1dnczxv.sdf

>  <i_m_source_file_index>  (63) 
26

>  <i_lp_mmshare_version>  (63) 
48012

>  <i_f3d_flags>  (63) 
0

>  <s_epik_input>  (63) 
W2NIXTFbY0hdYyhbQ0gzXSlbY0hdYyhjMTIpbltjSF1bY0hdbjI=

>  <s_epik_cmdline>  (63) 
J2VwaWtfcHl0aG9uJywgJy1waHQnLCAnMi4wJywgJy1waCcsICc3LjAnLCAnLXRuJywgJzgnLCAnLW1hJywgJzIwMCcsICctaW1hZScsICc8aW5maWxlLm1hZT4nLCAnLW9tYWUnLCAnPG91dGZpbGUubWFlPic=

>  <r_lp_tautomer_probability>  (63) 
1

>  <r_epik_Ionization_Penalty>  (63) 
3.4793e-06

>  <r_epik_Ionization_Penalty_Charging>  (63) 
0

>  <r_epik_Ionization_Penalty_Neutral>  (63) 
3.4793e-06

>  <r_epik_State_Penalty>  (63) 
-0

>  <r_epik_Charging_Adjusted_Penalty>  (63) 
0

>  <i_epik_Tot_Q>  (63) 
0

>  <i_epik_Tot_abs_Q>  (63) 
0

>  <s_lp_Force_Field>  (63) 
OPLS3e

>  <r_lp_Energy>  (63) 
19.7797

>  <b_lp_Chiralities_Consistent>  (63) 
1

>  <s_lp_Variant>  (63) 
20:0-1

>  <s_i_glide_gridfile>  (63) 
pfpi4k_grid

>  <i_i_glide_lignum>  (63) 
26

>  <i_i_glide_rotatable_bonds>  (63) 
0

>  <r_i_docking_score>  (63) 
-5.60482

>  <r_i_glide_ligand_efficiency>  (63) 
-0.509529

>  <r_i_glide_ligand_efficiency_sa>  (63) 
-1.13318

>  <r_i_glide_ligand_efficiency_ln>  (63) 
-1.6495

>  <r_i_glide_gscore>  (63) 
-5.60482

>  <r_i_glide_lipo>  (63) 
-2.20999

>  <r_i_glide_hbond>  (63) 
0

>  <r_i_glide_metal>  (63) 
-0

>  <r_i_glide_rewards>  (63) 
-2.25

>  <r_i_glide_evdw>  (63) 
-21.2117

>  <r_i_glide_ecoul>  (63) 
-0.561586

>  <r_i_glide_erotb>  (63) 
0

>  <r_i_glide_esite>  (63) 
0

>  <r_i_glide_emodel>  (63) 
-29.7092

>  <r_i_glide_energy>  (63) 
-21.7733

>  <r_i_glide_einternal>  (63) 
0

>  <r_i_glide_intrahb_reward>  (63) 
-0

>  <i_i_glide_confnum>  (63) 
2

>  <i_i_glide_posenum>  (63) 
33

>  <r_i_glide_eff_state_penalty>  (63) 
0

>  <ligand_id>  (63) 
20

>  <original_smiles>  (63) 
Cc1ccc2nccnc2c1

>  <smiles>  (63) 
[H]c1nc2c([H])c([H])c(C([H])([H])[H])c([H])c2nc1[H]

$$$$
21:0:0
     RDKit          3D

 64 70  0  0  1  0  0  0  0  0999 V2000
    2.5729    0.7199    1.8277 C   0  0  0  0  0  0  0  0  0  0  0  0
    2.4848   -0.8199    1.8586 C   0  0  2  0  0  0  0  0  0  0  0  0
    3.0972   -1.4318    3.1065 C   0  0  0  0  0  0  0  0  0  0  0  0
    3.2892   -0.7552    4.1162 O   0  0  0  0  0  0  0  0  0  0  0  0
    3.4644   -2.7364    2.9824 O   0  0  0  0  0  0  0  0  0  0  0  0
    2.9254   -3.7217    2.0562 C   0  0  1  0  0  0  0  0  0  0  0  0
    2.5478   -2.9797    0.6913 C   0  0  2  0  0  0  0  0  0  0  0  0
    2.7099   -3.7249   -0.6997 C   0  0  1  0  0  0  0  0  0  0  0  0
    1.5756   -3.4533   -1.5097 O   0  0  0  0  0  0  0  0  0  0  0  0
    3.9813   -3.4813   -1.6124 C   0  0  1  0  0  0  0  0  0  0  0  0
    3.8550   -2.2649   -2.3292 O   0  0  0  0  0  0  0  0  0  0  0  0
    5.4741   -3.7974   -1.1612 C   0  0  1  0  0  0  0  0  0  0  0  0
    6.5236   -3.1581   -2.1045 C   0  0  0  0  0  0  0  0  0  0  0  0
    5.9314   -3.7293    0.3693 C   0  0  1  0  0  0  0  0  0  0  0  0
    5.6402   -2.3881    1.0708 C   0  0  0  0  0  0  0  0  0  0  0  0
    6.2260   -2.1224    2.1060 O   0  0  0  0  0  0  0  0  0  0  0  0
    4.6770   -1.3031    0.5808 C   0  0  1  0  0  0  0  0  0  0  0  0
    5.1769   -0.6557   -0.5575 O   0  0  0  0  0  0  0  0  0  0  0  0
    3.1177   -1.5262    0.6399 C   0  0  2  0  0  0  0  0  0  0  0  0
    5.7064   -5.0594    1.2392 C   0  0  2  0  0  0  0  0  0  0  0  0
    6.7991   -6.0990    1.0336 C   0  0  0  0  0  0  0  0  0  0  0  0
    4.5076   -5.3194    0.5559 O   0  0  0  0  0  0  0  0  0  0  0  0
    3.7719   -4.9493    1.7107 C   0  0  1  0  0  0  0  0  0  0  0  0
    4.9310   -5.1756    2.6105 C   0  0  2  0  0  0  0  0  0  0  0  0
    5.2168   -4.3318    3.7437 O   0  0  0  0  0  0  0  0  0  0  0  0
    4.3042   -4.9756    4.6521 C   0  0  2  0  0  0  0  0  0  0  0  0
    2.9009   -5.3836    4.1410 C   0  0  1  0  0  0  0  0  0  0  0  0
    2.0578   -6.1742    5.1248 C   0  0  0  0  0  0  0  0  0  0  0  0
    2.0073   -4.4835    3.1383 C   0  0  1  0  0  0  0  0  0  0  0  0
    0.9730   -3.6006    3.8714 C   0  0  0  0  0  0  0  0  0  0  0  0
    4.2094   -6.0246    3.5898 C   0  0  1  0  0  0  0  0  0  0  0  0
    4.5389   -7.5121    3.6651 C   0  0  0  0  0  0  0  0  0  0  0  0
    1.9687    1.1705    2.6194 H   0  0  0  0  0  0  0  0  0  0  0  0
    2.1859    1.1099    0.8857 H   0  0  0  0  0  0  0  0  0  0  0  0
    3.5900    1.0928    1.9546 H   0  0  0  0  0  0  0  0  0  0  0  0
    1.4161   -1.0348    1.8859 H   0  0  0  0  0  0  0  0  0  0  0  0
    1.4923   -2.7786    0.7917 H   0  0  0  0  0  0  0  0  0  0  0  0
    2.5735   -4.7948   -0.5625 H   0  0  0  0  0  0  0  0  0  0  0  0
    1.3630   -2.5310   -1.4425 H   0  0  0  0  0  0  0  0  0  0  0  0
    3.8348   -4.1789   -2.4355 H   0  0  0  0  0  0  0  0  0  0  0  0
    2.9347   -2.0554   -2.3676 H   0  0  0  0  0  0  0  0  0  0  0  0
    5.5613   -4.8493   -1.4241 H   0  0  0  0  0  0  0  0  0  0  0  0
    6.6061   -2.0824   -1.9844 H   0  0  0  0  0  0  0  0  0  0  0  0
    6.2759   -3.3495   -3.1483 H   0  0  0  0  0  0  0  0  0  0  0  0
    7.5206   -3.5655   -1.9387 H   0  0  0  0  0  0  0  0  0  0  0  0
    7.0130   -3.6651    0.2879 H   0  0  0  0  0  0  0  0  0  0  0  0
    4.8543   -0.5155    1.3073 H   0  0  0  0  0  0  0  0  0  0  0  0
    4.6992    0.1641   -0.6831 H   0  0  0  0  0  0  0  0  0  0  0  0
    2.7052   -1.0277   -0.2312 H   0  0  0  0  0  0  0  0  0  0  0  0
    7.7068   -5.7892    1.5534 H   0  0  0  0  0  0  0  0  0  0  0  0
    7.0532   -6.2454   -0.0111 H   0  0  0  0  0  0  0  0  0  0  0  0
    6.5036   -7.0670    1.4440 H   0  0  0  0  0  0  0  0  0  0  0  0
    3.1151   -5.8231    1.6644 H   0  0  0  0  0  0  0  0  0  0  0  0
    4.7298   -5.2377    5.6112 H   0  0  0  0  0  0  0  0  0  0  0  0
    1.4053   -6.8740    4.5925 H   0  0  0  0  0  0  0  0  0  0  0  0
    1.4779   -5.5092    5.7727 H   0  0  0  0  0  0  0  0  0  0  0  0
    2.7137   -6.7511    5.7785 H   0  0  0  0  0  0  0  0  0  0  0  0
    1.3697   -5.1921    2.5974 H   0  0  0  0  0  0  0  0  0  0  0  0
    1.4048   -2.9797    4.6620 H   0  0  0  0  0  0  0  0  0  0  0  0
    0.2030   -4.2218    4.3318 H   0  0  0  0  0  0  0  0  0  0  0  0
    0.4716   -2.9430    3.1619 H   0  0  0  0  0  0  0  0  0  0  0  0
    4.1136   -7.9847    4.5566 H   0  0  0  0  0  0  0  0  0  0  0  0
    5.6168   -7.6966    3.6460 H   0  0  0  0  0  0  0  0  0  0  0  0
    4.0984   -8.0053    2.7939 H   0  0  0  0  0  0  0  0  0  0  0  0
  1  2  1  0
  1 33  1  0
  1 34  1  0
  1 35  1  0
  2 19  1  0
  2  3  1  0
  2 36  1  1
  3  4  2  0
  3  5  1  0
  6  5  1  1
  6 23  1  0
  6 29  1  0
  6  7  1  0
  7 19  1  0
  7  8  1  0
  7 37  1  1
  8  9  1  0
  8 10  1  0
  8 38  1  1
  9 39  1  0
 10 11  1  0
 10 12  1  0
 10 40  1  6
 11 41  1  0
 12 13  1  0
 12 14  1  0
 12 42  1  6
 13 43  1  0
 13 44  1  0
 13 45  1  0
 14 15  1  0
 14 20  1  0
 14 46  1  6
 15 16  2  0
 15 17  1  0
 17 18  1  0
 17 19  1  0
 17 47  1  1
 18 48  1  0
 19 49  1  6
 20 24  1  0
 20 21  1  1
 20 22  1  0
 21 50  1  0
 21 51  1  0
 21 52  1  0
 22 23  1  0
 23 24  1  0
 23 53  1  1
 24 31  1  0
 24 25  1  1
 25 26  1  0
 26 31  1  0
 26 27  1  0
 26 54  1  1
 27 28  1  1
 27 29  1  0
 27 31  1  0
 28 55  1  0
 28 56  1  0
 28 57  1  0
 29 30  1  0
 29 58  1  6
 30 59  1  0
 30 60  1  0
 30 61  1  0
 31 32  1  1
 32 62  1  0
 32 63  1  0
 32 64  1  0
M  END
>  <i_m_ct_stereo_status>  (64) 
1

>  <s_m_source_file>  (64) 
/var/tmp/pbs.5076255.sched01/tmpvsf1hu0j/0g1dnczxv.sdf

>  <i_m_source_file_index>  (64) 
27

>  <i_lp_mmshare_version>  (64) 
48012

>  <i_f3d_flags>  (64) 
0

>  <s_epik_input>  (64) 
Tz1DKE8xKVtDQEBIXShbQ0gzXSlbQ0BIXShbQ0BASF0yW0NAXTEzNClbQ0BIXShbT0hdKUMoPU8pW0NASF0oW0NASF0oW0NIM10pW0NASF0oW09IXSlbQ0BASF0yW09IXSlbQ0BAXTUoW0NIM10pW0NAQF02KFtDQEBIXTNPNSlbQ0BAXTcoW0NIM10pW0NAQEhdKE82KVtDQEBdNyhbQ0gzXSlbQ0BIXTRbQ0gzXQ==

>  <s_epik_cmdline>  (64) 
J2VwaWtfcHl0aG9uJywgJy1waHQnLCAnMi4wJywgJy1waCcsICc3LjAnLCAnLXRuJywgJzgnLCAnLW1hJywgJzIwMCcsICctaW1hZScsICc8aW5maWxlLm1hZT4nLCAnLW9tYWUnLCAnPG91dGZpbGUubWFlPic=

>  <r_lp_tautomer_probability>  (64) 
1

>  <r_epik_Ionization_Penalty>  (64) 
1.04253e-06

>  <r_epik_Ionization_Penalty_Charging>  (64) 
0

>  <r_epik_Ionization_Penalty_Neutral>  (64) 
1.04253e-06

>  <r_epik_State_Penalty>  (64) 
-0

>  <r_epik_Charging_Adjusted_Penalty>  (64) 
0

>  <i_epik_Tot_Q>  (64) 
0

>  <i_epik_Tot_abs_Q>  (64) 
0

>  <s_epik_Chemistry_Notes>  (64) 
This compound has an ester and may undergo hydrolysis at high or low pH.

>  <s_lp_Force_Field>  (64) 
OPLS3e

>  <r_lp_Energy>  (64) 
189.21

>  <b_lp_Chiralities_Consistent>  (64) 
1

>  <s_lp_Variant>  (64) 
21:0-1

>  <s_i_glide_gridfile>  (64) 
pfpi4k_grid

>  <i_i_glide_lignum>  (64) 
27

>  <i_i_glide_rotatable_bonds>  (64) 
3

>  <r_i_docking_score>  (64) 
-2.78893

>  <r_i_glide_ligand_efficiency>  (64) 
-0.087154

>  <r_i_glide_ligand_efficiency_sa>  (64) 
-0.276697

>  <r_i_glide_ligand_efficiency_ln>  (64) 
-0.624517

>  <r_i_glide_gscore>  (64) 
-2.78893

>  <r_i_glide_lipo>  (64) 
-0.393425

>  <r_i_glide_hbond>  (64) 
0

>  <r_i_glide_metal>  (64) 
-0

>  <r_i_glide_rewards>  (64) 
-0.448044

>  <r_i_glide_evdw>  (64) 
-17.8239

>  <r_i_glide_ecoul>  (64) 
-7.03457

>  <r_i_glide_erotb>  (64) 
0

>  <r_i_glide_esite>  (64) 
-0.00108168

>  <r_i_glide_emodel>  (64) 
-27.0744

>  <r_i_glide_energy>  (64) 
-24.8584

>  <r_i_glide_einternal>  (64) 
1.24828

>  <r_i_glide_intrahb_reward>  (64) 
-0

>  <i_i_glide_confnum>  (64) 
1

>  <i_i_glide_posenum>  (64) 
14

>  <r_i_glide_eff_state_penalty>  (64) 
0

>  <ligand_id>  (64) 
21

>  <original_smiles>  (64) 
CC1C(=O)OC23C4C(O)C(O)C(C)C(C(=O)C(O)C14)C1(C)OC2C12OC1C(C)(C3C)C12C

>  <smiles>  (64) 
[H]OC1([H])C(=O)C2([H])C([H])(C([H])([H])[H])C([H])(O[H])C([H])(O[H])C3([H])C1([H])C([H])(C([H])([H])[H])C(=O)OC31C3([H])OC2(C([H])([H])[H])C32OC3([H])C(C([H])([H])[H])(C1([H])C([H])([H])[H])C32C([H])([H])[H]

$$$$
21:0:1
     RDKit          3D

 64 70  0  0  1  0  0  0  0  0999 V2000
    4.1346   -1.3357    7.7915 C   0  0  0  0  0  0  0  0  0  0  0  0
    3.7444   -2.1769    6.5463 C   0  0  2  0  0  0  0  0  0  0  0  0
    4.9538   -2.6949    5.7931 C   0  0  0  0  0  0  0  0  0  0  0  0
    6.0560   -2.7672    6.3227 O   0  0  0  0  0  0  0  0  0  0  0  0
    4.6874   -3.0157    4.4809 O   0  0  0  0  0  0  0  0  0  0  0  0
    3.4062   -3.3854    3.8966 C   0  0  1  0  0  0  0  0  0  0  0  0
    2.2529   -2.5908    4.6464 C   0  0  2  0  0  0  0  0  0  0  0  0
    0.9816   -2.0868    3.8505 C   0  0  1  0  0  0  0  0  0  0  0  0
   -0.1405   -2.2968    4.6901 O   0  0  0  0  0  0  0  0  0  0  0  0
    0.8752   -0.6009    3.3033 C   0  0  1  0  0  0  0  0  0  0  0  0
    0.5973    0.3269    4.3377 O   0  0  0  0  0  0  0  0  0  0  0  0
    1.8740    0.0503    2.2457 C   0  0  1  0  0  0  0  0  0  0  0  0
    1.7201    1.5894    2.1671 C   0  0  0  0  0  0  0  0  0  0  0  0
    3.4014   -0.3943    2.1457 C   0  0  1  0  0  0  0  0  0  0  0  0
    4.2282   -0.2896    3.4434 C   0  0  0  0  0  0  0  0  0  0  0  0
    5.4548   -0.2083    3.3456 O   0  0  0  0  0  0  0  0  0  0  0  0
    3.6097   -0.2195    4.8678 C   0  0  1  0  0  0  0  0  0  0  0  0
    3.0361    1.0423    5.1191 O   0  0  0  0  0  0  0  0  0  0  0  0
    2.8380   -1.4440    5.5488 C   0  0  2  0  0  0  0  0  0  0  0  0
    3.7022   -1.6553    1.2156 C   0  0  2  0  0  0  0  0  0  0  0  0
    3.7785   -1.3050   -0.2548 C   0  0  0  0  0  0  0  0  0  0  0  0
    2.5045   -2.2726    1.6256 O   0  0  0  0  0  0  0  0  0  0  0  0
    3.2287   -3.1997    2.3949 C   0  0  1  0  0  0  0  0  0  0  0  0
    4.4670   -2.9630    1.6218 C   0  0  2  0  0  0  0  0  0  0  0  0
    5.7627   -2.9678    2.2474 O   0  0  0  0  0  0  0  0  0  0  0  0
    5.9411   -4.3926    2.2431 C   0  0  2  0  0  0  0  0  0  0  0  0
    4.7520   -5.2927    2.6464 C   0  0  1  0  0  0  0  0  0  0  0  0
    4.9710   -6.8014    2.5060 C   0  0  0  0  0  0  0  0  0  0  0  0
    3.6832   -4.9702    3.8230 C   0  0  1  0  0  0  0  0  0  0  0  0
    4.0481   -5.6476    5.1562 C   0  0  0  0  0  0  0  0  0  0  0  0
    4.7401   -4.4072    1.3657 C   0  0  1  0  0  0  0  0  0  0  0  0
    4.6077   -4.9407   -0.0471 C   0  0  0  0  0  0  0  0  0  0  0  0
    4.6340   -1.9648    8.5280 H   0  0  0  0  0  0  0  0  0  0  0  0
    3.2560   -0.9108    8.2747 H   0  0  0  0  0  0  0  0  0  0  0  0
    4.8215   -0.5182    7.5562 H   0  0  0  0  0  0  0  0  0  0  0  0
    3.2113   -3.0422    6.9372 H   0  0  0  0  0  0  0  0  0  0  0  0
    1.8650   -3.3451    5.3281 H   0  0  0  0  0  0  0  0  0  0  0  0
    0.7530   -2.7776    3.0421 H   0  0  0  0  0  0  0  0  0  0  0  0
   -0.1837   -3.2140    4.9088 H   0  0  0  0  0  0  0  0  0  0  0  0
   -0.0775   -0.5953    2.7729 H   0  0  0  0  0  0  0  0  0  0  0  0
    0.2103    1.0931    3.9376 H   0  0  0  0  0  0  0  0  0  0  0  0
    1.4398   -0.2312    1.2835 H   0  0  0  0  0  0  0  0  0  0  0  0
    2.1368    2.1208    3.0249 H   0  0  0  0  0  0  0  0  0  0  0  0
    0.6694    1.8800    2.0788 H   0  0  0  0  0  0  0  0  0  0  0  0
    2.2158    1.9732    1.2814 H   0  0  0  0  0  0  0  0  0  0  0  0
    3.8540    0.4297    1.5984 H   0  0  0  0  0  0  0  0  0  0  0  0
    4.4993   -0.0996    5.4783 H   0  0  0  0  0  0  0  0  0  0  0  0
    2.1787    1.0430    4.6997 H   0  0  0  0  0  0  0  0  0  0  0  0
    2.0036   -1.0399    6.1233 H   0  0  0  0  0  0  0  0  0  0  0  0
    4.7121   -0.7829   -0.4641 H   0  0  0  0  0  0  0  0  0  0  0  0
    2.9680   -0.6583   -0.5643 H   0  0  0  0  0  0  0  0  0  0  0  0
    3.7421   -2.1838   -0.8951 H   0  0  0  0  0  0  0  0  0  0  0  0
    2.6459   -4.0510    2.0110 H   0  0  0  0  0  0  0  0  0  0  0  0
    6.8705   -4.7396    1.7869 H   0  0  0  0  0  0  0  0  0  0  0  0
    4.0498   -7.3258    2.2437 H   0  0  0  0  0  0  0  0  0  0  0  0
    5.4142   -7.2215    3.4102 H   0  0  0  0  0  0  0  0  0  0  0  0
    5.6994   -6.9620    1.7043 H   0  0  0  0  0  0  0  0  0  0  0  0
    2.7480   -5.4631    3.5419 H   0  0  0  0  0  0  0  0  0  0  0  0
    5.0759   -5.4520    5.4748 H   0  0  0  0  0  0  0  0  0  0  0  0
    3.9358   -6.7298    5.0919 H   0  0  0  0  0  0  0  0  0  0  0  0
    3.3769   -5.3036    5.9474 H   0  0  0  0  0  0  0  0  0  0  0  0
    5.0567   -5.9329   -0.1659 H   0  0  0  0  0  0  0  0  0  0  0  0
    5.0646   -4.2510   -0.7521 H   0  0  0  0  0  0  0  0  0  0  0  0
    3.5473   -5.0191   -0.2859 H   0  0  0  0  0  0  0  0  0  0  0  0
  1  2  1  0
  1 33  1  0
  1 34  1  0
  1 35  1  0
  2 19  1  0
  2  3  1  0
  2 36  1  1
  3  4  2  0
  3  5  1  0
  6  5  1  1
  6 23  1  0
  6 29  1  0
  6  7  1  0
  7 19  1  0
  7  8  1  0
  7 37  1  1
  8  9  1  0
  8 10  1  0
  8 38  1  6
  9 39  1  0
 10 11  1  0
 10 12  1  0
 10 40  1  6
 11 41  1  0
 12 13  1  0
 12 14  1  0
 12 42  1  6
 13 43  1  0
 13 44  1  0
 13 45  1  0
 14 15  1  0
 14 20  1  0
 14 46  1  6
 15 16  2  0
 15 17  1  0
 17 18  1  0
 17 19  1  0
 17 47  1  1
 18 48  1  0
 19 49  1  1
 20 24  1  0
 20 21  1  6
 20 22  1  0
 21 50  1  0
 21 51  1  0
 21 52  1  0
 22 23  1  0
 23 24  1  0
 23 53  1  6
 24 31  1  0
 24 25  1  1
 25 26  1  0
 26 31  1  0
 26 27  1  0
 26 54  1  6
 27 28  1  6
 27 29  1  0
 27 31  1  0
 28 55  1  0
 28 56  1  0
 28 57  1  0
 29 30  1  0
 29 58  1  6
 30 59  1  0
 30 60  1  0
 30 61  1  0
 31 32  1  6
 32 62  1  0
 32 63  1  0
 32 64  1  0
M  END
>  <i_m_ct_stereo_status>  (65) 
1

>  <s_m_source_file>  (65) 
/var/tmp/pbs.5076255.sched01/tmpvsf1hu0j/0g1dnczxv.sdf

>  <i_m_source_file_index>  (65) 
27

>  <i_lp_mmshare_version>  (65) 
48012

>  <i_f3d_flags>  (65) 
0

>  <s_epik_input>  (65) 
Tz1DKE8xKVtDQEBIXShbQ0gzXSlbQ0BIXShbQ0BASF0yW0NAXTEzNClbQ0BIXShbT0hdKUMoPU8pW0NASF0oW0NASF0oW0NIM10pW0NASF0oW09IXSlbQ0BASF0yW09IXSlbQ0BAXTUoW0NIM10pW0NAQF02KFtDQEBIXTNPNSlbQ0BAXTcoW0NIM10pW0NAQEhdKE82KVtDQEBdNyhbQ0gzXSlbQ0BIXTRbQ0gzXQ==

>  <s_epik_cmdline>  (65) 
J2VwaWtfcHl0aG9uJywgJy1waHQnLCAnMi4wJywgJy1waCcsICc3LjAnLCAnLXRuJywgJzgnLCAnLW1hJywgJzIwMCcsICctaW1hZScsICc8aW5maWxlLm1hZT4nLCAnLW9tYWUnLCAnPG91dGZpbGUubWFlPic=

>  <r_lp_tautomer_probability>  (65) 
1

>  <r_epik_Ionization_Penalty>  (65) 
1.04253e-06

>  <r_epik_Ionization_Penalty_Charging>  (65) 
0

>  <r_epik_Ionization_Penalty_Neutral>  (65) 
1.04253e-06

>  <r_epik_State_Penalty>  (65) 
-0

>  <r_epik_Charging_Adjusted_Penalty>  (65) 
0

>  <i_epik_Tot_Q>  (65) 
0

>  <i_epik_Tot_abs_Q>  (65) 
0

>  <s_epik_Chemistry_Notes>  (65) 
This compound has an ester and may undergo hydrolysis at high or low pH.

>  <s_lp_Force_Field>  (65) 
OPLS3e

>  <r_lp_Energy>  (65) 
189.21

>  <b_lp_Chiralities_Consistent>  (65) 
1

>  <s_lp_Variant>  (65) 
21:0-1

>  <s_i_glide_gridfile>  (65) 
pfpi4k_grid

>  <i_i_glide_lignum>  (65) 
27

>  <i_i_glide_rotatable_bonds>  (65) 
3

>  <r_i_docking_score>  (65) 
-2.36116

>  <r_i_glide_ligand_efficiency>  (65) 
-0.0737861

>  <r_i_glide_ligand_efficiency_sa>  (65) 
-0.234256

>  <r_i_glide_ligand_efficiency_ln>  (65) 
-0.528727

>  <r_i_glide_gscore>  (65) 
-2.36116

>  <r_i_glide_lipo>  (65) 
-0.100909

>  <r_i_glide_hbond>  (65) 
0

>  <r_i_glide_metal>  (65) 
-0

>  <r_i_glide_rewards>  (65) 
-0.917758

>  <r_i_glide_evdw>  (65) 
-18.8163

>  <r_i_glide_ecoul>  (65) 
-2.67783

>  <r_i_glide_erotb>  (65) 
0

>  <r_i_glide_esite>  (65) 
0

>  <r_i_glide_emodel>  (65) 
-28.4013

>  <r_i_glide_energy>  (65) 
-21.4941

>  <r_i_glide_einternal>  (65) 
1.93879

>  <r_i_glide_intrahb_reward>  (65) 
-0.5

>  <i_i_glide_confnum>  (65) 
1

>  <i_i_glide_posenum>  (65) 
16

>  <r_i_glide_eff_state_penalty>  (65) 
0

>  <ligand_id>  (65) 
21

>  <original_smiles>  (65) 
CC1C(=O)OC23C4C(O)C(O)C(C)C(C(=O)C(O)C14)C1(C)OC2C12OC1C(C)(C3C)C12C

>  <smiles>  (65) 
[H]OC1([H])C(=O)C2([H])C([H])(C([H])([H])[H])C([H])(O[H])C([H])(O[H])C3([H])C1([H])C([H])(C([H])([H])[H])C(=O)OC31C3([H])OC2(C([H])([H])[H])C32OC3([H])C(C([H])([H])[H])(C1([H])C([H])([H])[H])C32C([H])([H])[H]

$$$$
21:0:2
     RDKit          3D

 64 70  0  0  1  0  0  0  0  0999 V2000
    4.3382    0.7776    7.6049 C   0  0  0  0  0  0  0  0  0  0  0  0
    3.7588   -0.5254    6.9904 C   0  0  2  0  0  0  0  0  0  0  0  0
    4.8358   -1.4622    6.5089 C   0  0  0  0  0  0  0  0  0  0  0  0
    6.0047   -1.3719    6.8911 O   0  0  0  0  0  0  0  0  0  0  0  0
    4.4085   -2.3704    5.5682 O   0  0  0  0  0  0  0  0  0  0  0  0
    3.0456   -2.8500    5.3584 C   0  0  1  0  0  0  0  0  0  0  0  0
    2.0268   -1.6757    5.6938 C   0  0  2  0  0  0  0  0  0  0  0  0
    0.6959   -1.5125    4.8550 C   0  0  1  0  0  0  0  0  0  0  0  0
   -0.3462   -1.1686    5.7564 O   0  0  0  0  0  0  0  0  0  0  0  0
    0.5974   -0.4878    3.6483 C   0  0  1  0  0  0  0  0  0  0  0  0
    0.4645    0.8483    4.0994 O   0  0  0  0  0  0  0  0  0  0  0  0
    1.4971   -0.5442    2.3409 C   0  0  1  0  0  0  0  0  0  0  0  0
    1.4140    0.7479    1.5055 C   0  0  0  0  0  0  0  0  0  0  0  0
    2.9749   -1.1350    2.3447 C   0  0  1  0  0  0  0  0  0  0  0  0
    3.9579   -0.4790    3.3338 C   0  0  0  0  0  0  0  0  0  0  0  0
    5.1691   -0.5593    3.0947 O   0  0  0  0  0  0  0  0  0  0  0  0
    3.5149    0.3393    4.5766 C   0  0  1  0  0  0  0  0  0  0  0  0
    3.0265    1.6106    4.2151 O   0  0  0  0  0  0  0  0  0  0  0  0
    2.7729   -0.3005    5.8382 C   0  0  2  0  0  0  0  0  0  0  0  0
    3.0940   -2.7120    2.1493 C   0  0  2  0  0  0  0  0  0  0  0  0
    2.9773   -3.1332    0.6924 C   0  0  0  0  0  0  0  0  0  0  0  0
    1.9203   -2.9271    2.9069 O   0  0  0  0  0  0  0  0  0  0  0  0
    2.6975   -3.4130    3.9827 C   0  0  1  0  0  0  0  0  0  0  0  0
    3.8438   -3.7098    3.1010 C   0  0  2  0  0  0  0  0  0  0  0  0
    5.2081   -3.5306    3.5368 O   0  0  0  0  0  0  0  0  0  0  0  0
    5.2993   -4.7908    4.2407 C   0  0  2  0  0  0  0  0  0  0  0  0
    4.1303   -5.2486    5.1369 C   0  0  1  0  0  0  0  0  0  0  0  0
    4.2559   -6.6365    5.7705 C   0  0  0  0  0  0  0  0  0  0  0  0
    3.2229   -4.2763    6.0760 C   0  0  1  0  0  0  0  0  0  0  0  0
    3.7238   -4.2377    7.5285 C   0  0  0  0  0  0  0  0  0  0  0  0
    4.0096   -5.1172    3.5928 C   0  0  1  0  0  0  0  0  0  0  0  0
    3.6915   -6.2625    2.6559 C   0  0  0  0  0  0  0  0  0  0  0  0
    4.8909    0.5493    8.5156 H   0  0  0  0  0  0  0  0  0  0  0  0
    3.5438    1.4704    7.8762 H   0  0  0  0  0  0  0  0  0  0  0  0
    5.0301    1.2964    6.9357 H   0  0  0  0  0  0  0  0  0  0  0  0
    3.2388   -1.0274    7.8063 H   0  0  0  0  0  0  0  0  0  0  0  0
    1.6786   -1.9418    6.6899 H   0  0  0  0  0  0  0  0  0  0  0  0
    0.3449   -2.4863    4.5218 H   0  0  0  0  0  0  0  0  0  0  0  0
   -1.1002   -0.9227    5.2425 H   0  0  0  0  0  0  0  0  0  0  0  0
   -0.4077   -0.6599    3.2618 H   0  0  0  0  0  0  0  0  0  0  0  0
    0.1159    1.3641    3.3817 H   0  0  0  0  0  0  0  0  0  0  0  0
    0.9417   -1.2203    1.6849 H   0  0  0  0  0  0  0  0  0  0  0  0
    1.9585    1.5949    1.9255 H   0  0  0  0  0  0  0  0  0  0  0  0
    0.3795    1.0607    1.3513 H   0  0  0  0  0  0  0  0  0  0  0  0
    1.8270    0.5379    0.5222 H   0  0  0  0  0  0  0  0  0  0  0  0
    3.3970   -0.7488    1.4227 H   0  0  0  0  0  0  0  0  0  0  0  0
    4.4755    0.6573    4.9661 H   0  0  0  0  0  0  0  0  0  0  0  0
    2.1230    1.4972    3.9295 H   0  0  0  0  0  0  0  0  0  0  0  0
    2.0390    0.4200    6.1987 H   0  0  0  0  0  0  0  0  0  0  0  0
    3.9073   -2.8907    0.1791 H   0  0  0  0  0  0  0  0  0  0  0  0
    2.1766   -2.6254    0.1665 H   0  0  0  0  0  0  0  0  0  0  0  0
    2.8312   -4.2078    0.5836 H   0  0  0  0  0  0  0  0  0  0  0  0
    2.0342   -4.2771    4.1210 H   0  0  0  0  0  0  0  0  0  0  0  0
    6.1428   -5.4118    3.9218 H   0  0  0  0  0  0  0  0  0  0  0  0
    3.2864   -7.1266    5.8797 H   0  0  0  0  0  0  0  0  0  0  0  0
    4.7890   -6.5943    6.7213 H   0  0  0  0  0  0  0  0  0  0  0  0
    4.8765   -7.2393    5.0969 H   0  0  0  0  0  0  0  0  0  0  0  0
    2.2362   -4.7483    6.1547 H   0  0  0  0  0  0  0  0  0  0  0  0
    4.7931   -4.0156    7.6143 H   0  0  0  0  0  0  0  0  0  0  0  0
    3.5574   -5.1905    8.0295 H   0  0  0  0  0  0  0  0  0  0  0  0
    3.1739   -3.4769    8.0902 H   0  0  0  0  0  0  0  0  0  0  0  0
    4.0819   -7.2167    3.0245 H   0  0  0  0  0  0  0  0  0  0  0  0
    4.1014   -6.0440    1.6737 H   0  0  0  0  0  0  0  0  0  0  0  0
    2.6095   -6.3303    2.5779 H   0  0  0  0  0  0  0  0  0  0  0  0
  1  2  1  0
  1 33  1  0
  1 34  1  0
  1 35  1  0
  2 19  1  0
  2  3  1  0
  2 36  1  1
  3  4  2  0
  3  5  1  0
  6  5  1  6
  6 23  1  0
  6 29  1  0
  6  7  1  0
  7 19  1  0
  7  8  1  0
  7 37  1  1
  8  9  1  0
  8 10  1  0
  8 38  1  6
  9 39  1  0
 10 11  1  0
 10 12  1  0
 10 40  1  6
 11 41  1  0
 12 13  1  0
 12 14  1  0
 12 42  1  6
 13 43  1  0
 13 44  1  0
 13 45  1  0
 14 15  1  0
 14 20  1  0
 14 46  1  6
 15 16  2  0
 15 17  1  0
 17 18  1  0
 17 19  1  0
 17 47  1  1
 18 48  1  0
 19 49  1  1
 20 24  1  0
 20 21  1  6
 20 22  1  0
 21 50  1  0
 21 51  1  0
 21 52  1  0
 22 23  1  0
 23 24  1  0
 23 53  1  1
 24 31  1  0
 24 25  1  1
 25 26  1  0
 26 31  1  0
 26 27  1  0
 26 54  1  6
 27 28  1  6
 27 29  1  0
 27 31  1  0
 28 55  1  0
 28 56  1  0
 28 57  1  0
 29 30  1  0
 29 58  1  1
 30 59  1  0
 30 60  1  0
 30 61  1  0
 31 32  1  6
 32 62  1  0
 32 63  1  0
 32 64  1  0
M  END
>  <i_m_ct_stereo_status>  (66) 
1

>  <s_m_source_file>  (66) 
/var/tmp/pbs.5076255.sched01/tmpvsf1hu0j/0g1dnczxv.sdf

>  <i_m_source_file_index>  (66) 
27

>  <i_lp_mmshare_version>  (66) 
48012

>  <i_f3d_flags>  (66) 
0

>  <s_epik_input>  (66) 
Tz1DKE8xKVtDQEBIXShbQ0gzXSlbQ0BIXShbQ0BASF0yW0NAXTEzNClbQ0BIXShbT0hdKUMoPU8pW0NASF0oW0NASF0oW0NIM10pW0NASF0oW09IXSlbQ0BASF0yW09IXSlbQ0BAXTUoW0NIM10pW0NAQF02KFtDQEBIXTNPNSlbQ0BAXTcoW0NIM10pW0NAQEhdKE82KVtDQEBdNyhbQ0gzXSlbQ0BIXTRbQ0gzXQ==

>  <s_epik_cmdline>  (66) 
J2VwaWtfcHl0aG9uJywgJy1waHQnLCAnMi4wJywgJy1waCcsICc3LjAnLCAnLXRuJywgJzgnLCAnLW1hJywgJzIwMCcsICctaW1hZScsICc8aW5maWxlLm1hZT4nLCAnLW9tYWUnLCAnPG91dGZpbGUubWFlPic=

>  <r_lp_tautomer_probability>  (66) 
1

>  <r_epik_Ionization_Penalty>  (66) 
1.04253e-06

>  <r_epik_Ionization_Penalty_Charging>  (66) 
0

>  <r_epik_Ionization_Penalty_Neutral>  (66) 
1.04253e-06

>  <r_epik_State_Penalty>  (66) 
-0

>  <r_epik_Charging_Adjusted_Penalty>  (66) 
0

>  <i_epik_Tot_Q>  (66) 
0

>  <i_epik_Tot_abs_Q>  (66) 
0

>  <s_epik_Chemistry_Notes>  (66) 
This compound has an ester and may undergo hydrolysis at high or low pH.

>  <s_lp_Force_Field>  (66) 
OPLS3e

>  <r_lp_Energy>  (66) 
189.21

>  <b_lp_Chiralities_Consistent>  (66) 
1

>  <s_lp_Variant>  (66) 
21:0-1

>  <s_i_glide_gridfile>  (66) 
pfpi4k_grid

>  <i_i_glide_lignum>  (66) 
27

>  <i_i_glide_rotatable_bonds>  (66) 
3

>  <r_i_docking_score>  (66) 
-2.07325

>  <r_i_glide_ligand_efficiency>  (66) 
-0.0647891

>  <r_i_glide_ligand_efficiency_sa>  (66) 
-0.205692

>  <r_i_glide_ligand_efficiency_ln>  (66) 
-0.464257

>  <r_i_glide_gscore>  (66) 
-2.07325

>  <r_i_glide_lipo>  (66) 
-0.00425425

>  <r_i_glide_hbond>  (66) 
0

>  <r_i_glide_metal>  (66) 
-0

>  <r_i_glide_rewards>  (66) 
-0.881875

>  <r_i_glide_evdw>  (66) 
-16.1348

>  <r_i_glide_ecoul>  (66) 
-2.53588

>  <r_i_glide_erotb>  (66) 
0

>  <r_i_glide_esite>  (66) 
0

>  <r_i_glide_emodel>  (66) 
-25.0497

>  <r_i_glide_energy>  (66) 
-18.6706

>  <r_i_glide_einternal>  (66) 
2.0636

>  <r_i_glide_intrahb_reward>  (66) 
-0.5

>  <i_i_glide_confnum>  (66) 
1

>  <i_i_glide_posenum>  (66) 
2

>  <r_i_glide_eff_state_penalty>  (66) 
0

>  <ligand_id>  (66) 
21

>  <original_smiles>  (66) 
CC1C(=O)OC23C4C(O)C(O)C(C)C(C(=O)C(O)C14)C1(C)OC2C12OC1C(C)(C3C)C12C

>  <smiles>  (66) 
[H]OC1([H])C(=O)C2([H])C([H])(C([H])([H])[H])C([H])(O[H])C([H])(O[H])C3([H])C1([H])C([H])(C([H])([H])[H])C(=O)OC31C3([H])OC2(C([H])([H])[H])C32OC3([H])C(C([H])([H])[H])(C1([H])C([H])([H])[H])C32C([H])([H])[H]

$$$$
23:0:0
     RDKit          3D

 18 19  0  0  1  0  0  0  0  0999 V2000
    4.5216   -6.2332    0.1058 C   0  0  0  0  0  0  0  0  0  0  0  0
    3.0726   -5.1358    0.4890 S   0  0  0  0  0  0  0  0  0  0  0  0
    3.4891   -4.2427    1.6574 O   0  0  0  0  0  0  0  0  0  0  0  0
    1.9949   -6.4276    1.2117 C   0  0  0  0  0  0  0  0  0  0  0  0
    0.6358   -6.2792    1.2307 N   0  0  0  0  0  0  0  0  0  0  0  0
    0.2409   -7.4113    1.8173 C   0  0  0  0  0  0  0  0  0  0  0  0
   -0.9954   -7.8244    2.1401 N   0  0  0  0  0  0  0  0  0  0  0  0
   -1.0879   -9.0174    2.7257 C   0  0  0  0  0  0  0  0  0  0  0  0
    0.0199   -9.8422    3.0390 C   0  0  0  0  0  0  0  0  0  0  0  0
    1.2826   -9.4056    2.7152 C   0  0  0  0  0  0  0  0  0  0  0  0
    1.3746   -8.1906    2.1105 N   0  0  0  0  0  0  0  0  0  0  0  0
    2.4946   -7.5472    1.7221 N   0  0  0  0  0  0  0  0  0  0  0  0
    4.2204   -7.0310   -0.5733 H   0  0  0  0  0  0  0  0  0  0  0  0
    4.9152   -6.6825    1.0174 H   0  0  0  0  0  0  0  0  0  0  0  0
    5.3215   -5.6612   -0.3590 H   0  0  0  0  0  0  0  0  0  0  0  0
   -2.0894   -9.3562    2.9727 H   0  0  0  0  0  0  0  0  0  0  0  0
   -0.1224  -10.7968    3.5357 H   0  0  0  0  0  0  0  0  0  0  0  0
    2.2012   -9.9500    2.9154 H   0  0  0  0  0  0  0  0  0  0  0  0
  2  1  1  1
  1 13  1  0
  1 14  1  0
  1 15  1  0
  2  3  2  0
  2  4  1  0
  4 12  2  0
  4  5  1  0
  5  6  2  0
  6 11  1  0
  6  7  1  0
  7  8  2  0
  8  9  1  0
  8 16  1  0
  9 10  2  0
  9 17  1  0
 10 11  1  0
 10 18  1  0
 11 12  1  0
M  END
>  <i_m_ct_stereo_status>  (67) 
1

>  <s_m_source_file>  (67) 
/var/tmp/pbs.5076255.sched01/tmpvsf1hu0j/0g1dnczxv.sdf

>  <i_m_source_file_index>  (67) 
29

>  <i_lp_mmshare_version>  (67) 
48012

>  <i_f3d_flags>  (67) 
0

>  <s_epik_input>  (67) 
W0NIM11bUytdKFtPLV0pYyhuMSlubihjMTIpW2NIXVtjSF1bY0hdbjI=

>  <s_epik_cmdline>  (67) 
J2VwaWtfcHl0aG9uJywgJy1waHQnLCAnMi4wJywgJy1waCcsICc3LjAnLCAnLXRuJywgJzgnLCAnLW1hJywgJzIwMCcsICctaW1hZScsICc8aW5maWxlLm1hZT4nLCAnLW9tYWUnLCAnPG91dGZpbGUubWFlPic=

>  <r_lp_tautomer_probability>  (67) 
1

>  <r_epik_Ionization_Penalty>  (67) 
1.73697e-05

>  <r_epik_Ionization_Penalty_Charging>  (67) 
0

>  <r_epik_Ionization_Penalty_Neutral>  (67) 
1.73697e-05

>  <r_epik_State_Penalty>  (67) 
-0

>  <r_epik_Charging_Adjusted_Penalty>  (67) 
0

>  <i_epik_Tot_Q>  (67) 
0

>  <i_epik_Tot_abs_Q>  (67) 
2

>  <s_lp_Force_Field>  (67) 
OPLS3e

>  <r_lp_Energy>  (67) 
16.9835

>  <b_lp_Chiralities_Consistent>  (67) 
1

>  <s_lp_Variant>  (67) 
23:0-1

>  <s_i_glide_gridfile>  (67) 
pfpi4k_grid

>  <i_i_glide_lignum>  (67) 
29

>  <i_i_glide_rotatable_bonds>  (67) 
1

>  <r_i_docking_score>  (67) 
-4.46427

>  <r_i_glide_ligand_efficiency>  (67) 
-0.372023

>  <r_i_glide_ligand_efficiency_sa>  (67) 
-0.85172

>  <r_i_glide_ligand_efficiency_ln>  (67) 
-1.28103

>  <r_i_glide_gscore>  (67) 
-4.46427

>  <r_i_glide_lipo>  (67) 
-0.134743

>  <r_i_glide_hbond>  (67) 
-0.16

>  <r_i_glide_metal>  (67) 
-0

>  <r_i_glide_rewards>  (67) 
-2.16679

>  <r_i_glide_evdw>  (67) 
-18.8111

>  <r_i_glide_ecoul>  (67) 
-6.01638

>  <r_i_glide_erotb>  (67) 
0

>  <r_i_glide_esite>  (67) 
-0.159732

>  <r_i_glide_emodel>  (67) 
-32.6362

>  <r_i_glide_energy>  (67) 
-24.8274

>  <r_i_glide_einternal>  (67) 
1.0122

>  <r_i_glide_intrahb_reward>  (67) 
-0

>  <i_i_glide_confnum>  (67) 
2

>  <i_i_glide_posenum>  (67) 
11

>  <r_i_glide_eff_state_penalty>  (67) 
0

>  <ligand_id>  (67) 
23

>  <original_smiles>  (67) 
C[S+]([O-])c1nc2ncccn2n1

>  <smiles>  (67) 
[H]c1nc2nc(S(=O)C([H])([H])[H])nn2c([H])c1[H]

$$$$
23:0:1
     RDKit          3D

 18 19  0  0  1  0  0  0  0  0999 V2000
    4.0492   -6.0757    1.0240 C   0  0  0  0  0  0  0  0  0  0  0  0
    2.7864   -4.8010    1.4895 S   0  0  0  0  0  0  0  0  0  0  0  0
    1.4182   -5.4637    1.3447 O   0  0  0  0  0  0  0  0  0  0  0  0
    3.0143   -3.7455    0.0158 C   0  0  0  0  0  0  0  0  0  0  0  0
    4.0120   -2.8195   -0.0499 N   0  0  0  0  0  0  0  0  0  0  0  0
    3.8231   -2.2797   -1.2506 C   0  0  0  0  0  0  0  0  0  0  0  0
    4.5089   -1.3034   -1.8784 N   0  0  0  0  0  0  0  0  0  0  0  0
    4.0906   -0.9839   -3.0981 C   0  0  0  0  0  0  0  0  0  0  0  0
    3.0219   -1.6243   -3.7685 C   0  0  0  0  0  0  0  0  0  0  0  0
    2.3355   -2.6306   -3.1247 C   0  0  0  0  0  0  0  0  0  0  0  0
    2.7393   -2.9392   -1.8663 N   0  0  0  0  0  0  0  0  0  0  0  0
    2.2069   -3.8516   -1.0292 N   0  0  0  0  0  0  0  0  0  0  0  0
    5.0363   -5.6228    0.9331 H   0  0  0  0  0  0  0  0  0  0  0  0
    3.7871   -6.5469    0.0770 H   0  0  0  0  0  0  0  0  0  0  0  0
    4.0926   -6.8469    1.7932 H   0  0  0  0  0  0  0  0  0  0  0  0
    4.6119   -0.1659   -3.5871 H   0  0  0  0  0  0  0  0  0  0  0  0
    2.6838   -1.2814   -4.7328 H   0  0  0  0  0  0  0  0  0  0  0  0
    1.4627   -3.1395   -3.5229 H   0  0  0  0  0  0  0  0  0  0  0  0
  2  1  1  6
  1 13  1  0
  1 14  1  0
  1 15  1  0
  2  3  2  0
  2  4  1  0
  4 12  2  0
  4  5  1  0
  5  6  2  0
  6 11  1  0
  6  7  1  0
  7  8  2  0
  8  9  1  0
  8 16  1  0
  9 10  2  0
  9 17  1  0
 10 11  1  0
 10 18  1  0
 11 12  1  0
M  END
>  <i_m_ct_stereo_status>  (68) 
1

>  <s_m_source_file>  (68) 
/var/tmp/pbs.5076255.sched01/tmpvsf1hu0j/0g1dnczxv.sdf

>  <i_m_source_file_index>  (68) 
29

>  <i_lp_mmshare_version>  (68) 
48012

>  <i_f3d_flags>  (68) 
0

>  <s_epik_input>  (68) 
W0NIM11bUytdKFtPLV0pYyhuMSlubihjMTIpW2NIXVtjSF1bY0hdbjI=

>  <s_epik_cmdline>  (68) 
J2VwaWtfcHl0aG9uJywgJy1waHQnLCAnMi4wJywgJy1waCcsICc3LjAnLCAnLXRuJywgJzgnLCAnLW1hJywgJzIwMCcsICctaW1hZScsICc8aW5maWxlLm1hZT4nLCAnLW9tYWUnLCAnPG91dGZpbGUubWFlPic=

>  <r_lp_tautomer_probability>  (68) 
1

>  <r_epik_Ionization_Penalty>  (68) 
1.73697e-05

>  <r_epik_Ionization_Penalty_Charging>  (68) 
0

>  <r_epik_Ionization_Penalty_Neutral>  (68) 
1.73697e-05

>  <r_epik_State_Penalty>  (68) 
-0

>  <r_epik_Charging_Adjusted_Penalty>  (68) 
0

>  <i_epik_Tot_Q>  (68) 
0

>  <i_epik_Tot_abs_Q>  (68) 
2

>  <s_lp_Force_Field>  (68) 
OPLS3e

>  <r_lp_Energy>  (68) 
16.9835

>  <b_lp_Chiralities_Consistent>  (68) 
1

>  <s_lp_Variant>  (68) 
23:0-1

>  <s_i_glide_gridfile>  (68) 
pfpi4k_grid

>  <i_i_glide_lignum>  (68) 
29

>  <i_i_glide_rotatable_bonds>  (68) 
1

>  <r_i_docking_score>  (68) 
-4.36666

>  <r_i_glide_ligand_efficiency>  (68) 
-0.363889

>  <r_i_glide_ligand_efficiency_sa>  (68) 
-0.833097

>  <r_i_glide_ligand_efficiency_ln>  (68) 
-1.25302

>  <r_i_glide_gscore>  (68) 
-4.36666

>  <r_i_glide_lipo>  (68) 
-0.447326

>  <r_i_glide_hbond>  (68) 
-0.109904

>  <r_i_glide_metal>  (68) 
-0

>  <r_i_glide_rewards>  (68) 
-2.16679

>  <r_i_glide_evdw>  (68) 
-17.9922

>  <r_i_glide_ecoul>  (68) 
-4.43993

>  <r_i_glide_erotb>  (68) 
0

>  <r_i_glide_esite>  (68) 
-0.0770453

>  <r_i_glide_emodel>  (68) 
-30.6055

>  <r_i_glide_energy>  (68) 
-22.4321

>  <r_i_glide_einternal>  (68) 
0.0384009

>  <r_i_glide_intrahb_reward>  (68) 
-0

>  <i_i_glide_confnum>  (68) 
1

>  <i_i_glide_posenum>  (68) 
17

>  <r_i_glide_eff_state_penalty>  (68) 
0

>  <ligand_id>  (68) 
23

>  <original_smiles>  (68) 
C[S+]([O-])c1nc2ncccn2n1

>  <smiles>  (68) 
[H]c1nc2nc(S(=O)C([H])([H])[H])nn2c([H])c1[H]

$$$$
23:0:2
     RDKit          3D

 18 19  0  0  1  0  0  0  0  0999 V2000
   -1.9348    1.9437    4.1521 C   0  0  0  0  0  0  0  0  0  0  0  0
   -1.2342    0.8313    5.4659 S   0  0  0  0  0  0  0  0  0  0  0  0
   -2.1852   -0.3567    5.6427 O   0  0  0  0  0  0  0  0  0  0  0  0
   -1.5539    1.9323    6.8903 C   0  0  0  0  0  0  0  0  0  0  0  0
   -1.6852    3.2828    6.7560 N   0  0  0  0  0  0  0  0  0  0  0  0
   -1.9058    3.6797    8.0055 C   0  0  0  0  0  0  0  0  0  0  0  0
   -2.1144    4.9162    8.4906 N   0  0  0  0  0  0  0  0  0  0  0  0
   -2.3063    5.0147    9.8009 C   0  0  0  0  0  0  0  0  0  0  0  0
   -2.3104    3.9139   10.6911 C   0  0  0  0  0  0  0  0  0  0  0  0
   -2.1001    2.6504   10.1890 C   0  0  0  0  0  0  0  0  0  0  0  0
   -1.9011    2.5462    8.8444 N   0  0  0  0  0  0  0  0  0  0  0  0
   -1.6802    1.4244    8.1107 N   0  0  0  0  0  0  0  0  0  0  0  0
   -1.3926    2.8898    4.1210 H   0  0  0  0  0  0  0  0  0  0  0  0
   -2.9859    2.1539    4.3442 H   0  0  0  0  0  0  0  0  0  0  0  0
   -1.8450    1.4754    3.1729 H   0  0  0  0  0  0  0  0  0  0  0  0
   -2.4778    6.0165   10.1837 H   0  0  0  0  0  0  0  0  0  0  0  0
   -2.4862    4.0396   11.7569 H   0  0  0  0  0  0  0  0  0  0  0  0
   -2.0917    1.7532   10.8039 H   0  0  0  0  0  0  0  0  0  0  0  0
  2  1  1  6
  1 13  1  0
  1 14  1  0
  1 15  1  0
  2  3  2  0
  2  4  1  0
  4 12  2  0
  4  5  1  0
  5  6  2  0
  6 11  1  0
  6  7  1  0
  7  8  2  0
  8  9  1  0
  8 16  1  0
  9 10  2  0
  9 17  1  0
 10 11  1  0
 10 18  1  0
 11 12  1  0
M  END
>  <i_m_ct_stereo_status>  (69) 
1

>  <s_m_source_file>  (69) 
/var/tmp/pbs.5076255.sched01/tmpvsf1hu0j/0g1dnczxv.sdf

>  <i_m_source_file_index>  (69) 
29

>  <i_lp_mmshare_version>  (69) 
48012

>  <i_f3d_flags>  (69) 
0

>  <s_epik_input>  (69) 
W0NIM11bUytdKFtPLV0pYyhuMSlubihjMTIpW2NIXVtjSF1bY0hdbjI=

>  <s_epik_cmdline>  (69) 
J2VwaWtfcHl0aG9uJywgJy1waHQnLCAnMi4wJywgJy1waCcsICc3LjAnLCAnLXRuJywgJzgnLCAnLW1hJywgJzIwMCcsICctaW1hZScsICc8aW5maWxlLm1hZT4nLCAnLW9tYWUnLCAnPG91dGZpbGUubWFlPic=

>  <r_lp_tautomer_probability>  (69) 
1

>  <r_epik_Ionization_Penalty>  (69) 
1.73697e-05

>  <r_epik_Ionization_Penalty_Charging>  (69) 
0

>  <r_epik_Ionization_Penalty_Neutral>  (69) 
1.73697e-05

>  <r_epik_State_Penalty>  (69) 
-0

>  <r_epik_Charging_Adjusted_Penalty>  (69) 
0

>  <i_epik_Tot_Q>  (69) 
0

>  <i_epik_Tot_abs_Q>  (69) 
2

>  <s_lp_Force_Field>  (69) 
OPLS3e

>  <r_lp_Energy>  (69) 
16.9835

>  <b_lp_Chiralities_Consistent>  (69) 
1

>  <s_lp_Variant>  (69) 
23:0-1

>  <s_i_glide_gridfile>  (69) 
pfpi4k_grid

>  <i_i_glide_lignum>  (69) 
29

>  <i_i_glide_rotatable_bonds>  (69) 
1

>  <r_i_docking_score>  (69) 
-4.17567

>  <r_i_glide_ligand_efficiency>  (69) 
-0.347972

>  <r_i_glide_ligand_efficiency_sa>  (69) 
-0.796658

>  <r_i_glide_ligand_efficiency_ln>  (69) 
-1.19822

>  <r_i_glide_gscore>  (69) 
-4.17567

>  <r_i_glide_lipo>  (69) 
0

>  <r_i_glide_hbond>  (69) 
-0.122445

>  <r_i_glide_metal>  (69) 
-0

>  <r_i_glide_rewards>  (69) 
-2.18333

>  <r_i_glide_evdw>  (69) 
-15.2832

>  <r_i_glide_ecoul>  (69) 
-6.85864

>  <r_i_glide_erotb>  (69) 
0

>  <r_i_glide_esite>  (69) 
-0.0769373

>  <r_i_glide_emodel>  (69) 
-29.4611

>  <r_i_glide_energy>  (69) 
-22.1418

>  <r_i_glide_einternal>  (69) 
1.00708

>  <r_i_glide_intrahb_reward>  (69) 
-0

>  <i_i_glide_confnum>  (69) 
1

>  <i_i_glide_posenum>  (69) 
8

>  <r_i_glide_eff_state_penalty>  (69) 
0

>  <ligand_id>  (69) 
23

>  <original_smiles>  (69) 
C[S+]([O-])c1nc2ncccn2n1

>  <smiles>  (69) 
[H]c1nc2nc(S(=O)C([H])([H])[H])nn2c([H])c1[H]

$$$$
24:0:0
     RDKit          3D

 68 76  0  0  1  0  0  0  0  0999 V2000
    1.8109   -3.4632   -2.1880 C   0  0  0  0  0  0  0  0  0  0  0  0
    3.1474   -2.7875   -1.8620 C   0  0  0  0  0  0  0  0  0  0  0  0
    4.3056   -3.3821   -2.6776 C   0  0  0  0  0  0  0  0  0  0  0  0
    3.0173   -1.4419   -2.2663 O   0  0  0  0  0  0  0  0  0  0  0  0
    3.4740   -2.8156   -0.3567 C   0  0  0  0  0  0  0  0  0  0  0  0
    3.2412   -4.1239    0.1643 O   0  0  0  0  0  0  0  0  0  0  0  0
    4.0531   -4.5059    1.2746 C   0  0  2  0  0  0  0  0  0  0  0  0
    5.1162   -5.4428    0.9142 C   0  0  2  0  0  0  0  0  0  0  0  0
    4.3737   -6.2661    0.0615 O   0  0  0  0  0  0  0  0  0  0  0  0
    4.1728   -7.1950    1.1165 C   0  0  1  0  0  0  0  0  0  0  0  0
    4.7090   -8.4320    0.6578 O   0  0  0  0  0  0  0  0  0  0  0  0
    5.1185   -6.4309    2.0707 C   0  0  2  0  0  0  0  0  0  0  0  0
    4.4132   -5.6702    3.2752 C   0  0  2  0  0  0  0  0  0  0  0  0
    3.5694   -6.1805    4.5249 C   0  0  0  0  0  0  0  0  0  0  0  0
    1.9606   -6.5290    4.5373 C   0  0  1  0  0  0  0  0  0  0  0  0
    0.8590   -6.3556    3.3187 C   0  0  1  0  0  0  0  0  0  0  0  0
    1.4182   -6.7623    1.8983 C   0  0  0  0  0  0  0  0  0  0  0  0
    0.7549   -6.7768    0.8592 O   0  0  0  0  0  0  0  0  0  0  0  0
    2.9201   -6.9846    2.0412 C   0  0  1  0  0  0  0  0  0  0  0  0
    2.8969   -8.5213    2.8534 C   0  0  0  0  0  0  0  0  0  0  0  0
    2.6727   -9.7173    1.8260 C   0  0  0  0  0  0  0  0  0  0  0  0
    4.2206   -9.0181    3.5555 C   0  0  0  0  0  0  0  0  0  0  0  0
    1.7500   -8.8755    3.9176 C   0  0  2  0  0  0  0  0  0  0  0  0
    0.3459   -9.3407    3.3247 C   0  0  0  0  0  0  0  0  0  0  0  0
   -0.7860   -8.4459    3.6898 C   0  0  2  0  0  0  0  0  0  0  0  0
   -0.5349   -6.9349    3.6872 C   0  0  1  0  0  0  0  0  0  0  0  0
   -0.6273   -6.9844    5.1842 C   0  0  1  0  0  0  0  0  0  0  0  0
   -0.8169   -8.4510    5.1631 C   0  0  2  0  0  0  0  0  0  0  0  0
    0.3829   -7.8818    5.8704 C   0  0  1  0  0  0  0  0  0  0  0  0
    1.7124   -7.9069    5.1396 C   0  0  2  0  0  0  0  0  0  0  0  0
    3.3093   -5.3267    2.4057 C   0  0  2  0  0  0  0  0  0  0  0  0
    2.4431   -4.0952    2.9028 C   0  0  0  0  0  0  0  0  0  0  0  0
    1.7804   -4.4996   -1.8840 H   0  0  0  0  0  0  0  0  0  0  0  0
    1.6085   -3.4120   -3.2541 H   0  0  0  0  0  0  0  0  0  0  0  0
    0.9559   -3.0518   -1.6634 H   0  0  0  0  0  0  0  0  0  0  0  0
    4.4905   -4.4191   -2.4056 H   0  0  0  0  0  0  0  0  0  0  0  0
    5.2375   -2.8452   -2.4998 H   0  0  0  0  0  0  0  0  0  0  0  0
    4.0995   -3.3425   -3.7472 H   0  0  0  0  0  0  0  0  0  0  0  0
    2.2703   -1.0786   -1.7934 H   0  0  0  0  0  0  0  0  0  0  0  0
    4.5050   -2.4798   -0.2144 H   0  0  0  0  0  0  0  0  0  0  0  0
    2.8420   -2.1208    0.1996 H   0  0  0  0  0  0  0  0  0  0  0  0
    4.5568   -3.6311    1.6972 H   0  0  0  0  0  0  0  0  0  0  0  0
    6.0688   -5.0832    0.5213 H   0  0  0  0  0  0  0  0  0  0  0  0
    4.4422   -9.0852    1.2817 H   0  0  0  0  0  0  0  0  0  0  0  0
    6.1010   -6.8749    2.2323 H   0  0  0  0  0  0  0  0  0  0  0  0
    4.9982   -4.8056    3.5834 H   0  0  0  0  0  0  0  0  0  0  0  0
    4.1478   -6.8351    5.1640 H   0  0  0  0  0  0  0  0  0  0  0  0
    3.5942   -5.3005    5.1729 H   0  0  0  0  0  0  0  0  0  0  0  0
    1.6135   -5.8249    5.2953 H   0  0  0  0  0  0  0  0  0  0  0  0
    0.5807   -5.3180    3.2232 H   0  0  0  0  0  0  0  0  0  0  0  0
    2.1528  -10.5804    2.2448 H   0  0  0  0  0  0  0  0  0  0  0  0
    3.5732  -10.2446    1.5106 H   0  0  0  0  0  0  0  0  0  0  0  0
    2.1412   -9.4121    0.9192 H   0  0  0  0  0  0  0  0  0  0  0  0
    4.2436  -10.1059    3.6249 H   0  0  0  0  0  0  0  0  0  0  0  0
    4.3178   -8.7365    4.5934 H   0  0  0  0  0  0  0  0  0  0  0  0
    5.1538   -8.7586    3.0687 H   0  0  0  0  0  0  0  0  0  0  0  0
    2.0664   -9.8056    4.3971 H   0  0  0  0  0  0  0  0  0  0  0  0
    0.3128   -9.3841    2.2405 H   0  0  0  0  0  0  0  0  0  0  0  0
    0.1270  -10.3576    3.6552 H   0  0  0  0  0  0  0  0  0  0  0  0
   -1.7558   -8.7048    3.2582 H   0  0  0  0  0  0  0  0  0  0  0  0
   -1.3899   -6.4312    3.2464 H   0  0  0  0  0  0  0  0  0  0  0  0
   -1.3113   -6.3240    5.7156 H   0  0  0  0  0  0  0  0  0  0  0  0
   -1.6404   -8.9591    5.6684 H   0  0  0  0  0  0  0  0  0  0  0  0
    0.3919   -7.8618    6.9574 H   0  0  0  0  0  0  0  0  0  0  0  0
    2.4767   -8.1599    5.8724 H   0  0  0  0  0  0  0  0  0  0  0  0
    2.0467   -4.1285    3.9072 H   0  0  0  0  0  0  0  0  0  0  0  0
    1.6398   -3.8761    2.2033 H   0  0  0  0  0  0  0  0  0  0  0  0
    3.0132   -3.1722    2.9542 H   0  0  0  0  0  0  0  0  0  0  0  0
  1  2  1  0
  1 33  1  0
  1 34  1  0
  1 35  1  0
  2  3  1  0
  2  4  1  0
  2  5  1  0
  3 36  1  0
  3 37  1  0
  3 38  1  0
  4 39  1  0
  5  6  1  0
  5 40  1  0
  5 41  1  0
  6  7  1  0
  7 31  1  0
  7  8  1  0
  7 42  1  1
  8 12  1  0
  8  9  1  0
  8 43  1  6
  9 10  1  0
 10 19  1  0
 10 11  1  6
 10 12  1  0
 11 44  1  0
 12 13  1  0
 12 45  1  1
 13 31  1  0
 13 14  1  0
 13 46  1  1
 14 15  1  0
 14 47  1  0
 14 48  1  0
 15 30  1  0
 15 16  1  0
 15 49  1  1
 16 26  1  0
 16 17  1  0
 16 50  1  6
 17 18  2  0
 17 19  1  0
 19 20  1  1
 19 31  1  0
 20 21  1  0
 20 22  1  0
 20 23  1  0
 21 51  1  0
 21 52  1  0
 21 53  1  0
 22 54  1  0
 22 55  1  0
 22 56  1  0
 23 30  1  0
 23 24  1  0
 23 57  1  1
 24 25  1  0
 24 58  1  0
 24 59  1  0
 25 28  1  0
 25 26  1  0
 25 60  1  6
 26 27  1  0
 26 61  1  6
 27 29  1  0
 27 28  1  0
 27 62  1  1
 28 29  1  0
 28 63  1  1
 29 30  1  0
 29 64  1  1
 30 65  1  1
 31 32  1  1
 32 66  1  0
 32 67  1  0
 32 68  1  0
M  END
>  <i_m_ct_stereo_status>  (70) 
1

>  <s_m_source_file>  (70) 
/var/tmp/pbs.5076255.sched01/tmpvsf1hu0j/0g1dnczxv.sdf

>  <i_m_source_file_index>  (70) 
30

>  <i_lp_mmshare_version>  (70) 
48012

>  <i_f3d_flags>  (70) 
0

>  <s_epik_input>  (70) 
W0NIM11DKFtDSDNdKShbT0hdKVtDSDJdT1tDQEhdKFtDQEhdKE8xKVtDQEBIXTJbQ0BdMShDMzQ1KVtPSF0pW0NAXTUoW0NIM10pW0NASF0yW0NIMl1bQ0BIXTZbQ0BASF0oQzM9TylbQ0BIXTdbQ0BASF04W0NAQEhdOVtDQEhdN1tDQEBIXTlbQ0BIXTZbQ0BASF0oW0NIMl04KUM0KFtDSDNdKVtDSDNd

>  <s_epik_cmdline>  (70) 
J2VwaWtfcHl0aG9uJywgJy1waHQnLCAnMi4wJywgJy1waCcsICc3LjAnLCAnLXRuJywgJzgnLCAnLW1hJywgJzIwMCcsICctaW1hZScsICc8aW5maWxlLm1hZT4nLCAnLW9tYWUnLCAnPG91dGZpbGUubWFlPic=

>  <r_lp_tautomer_probability>  (70) 
1

>  <r_epik_Ionization_Penalty>  (70) 
2.97707e-06

>  <r_epik_Ionization_Penalty_Charging>  (70) 
0

>  <r_epik_Ionization_Penalty_Neutral>  (70) 
2.97707e-06

>  <r_epik_State_Penalty>  (70) 
-0

>  <r_epik_Charging_Adjusted_Penalty>  (70) 
0

>  <i_epik_Tot_Q>  (70) 
0

>  <i_epik_Tot_abs_Q>  (70) 
0

>  <s_lp_Force_Field>  (70) 
OPLS3e

>  <r_lp_Energy>  (70) 
286.834

>  <b_lp_Chiralities_Consistent>  (70) 
1

>  <s_lp_Variant>  (70) 
24:0-1

>  <s_i_glide_gridfile>  (70) 
pfpi4k_grid

>  <i_i_glide_lignum>  (70) 
30

>  <i_i_glide_rotatable_bonds>  (70) 
5

>  <r_i_docking_score>  (70) 
-2.79924

>  <r_i_glide_ligand_efficiency>  (70) 
-0.0874761

>  <r_i_glide_ligand_efficiency_sa>  (70) 
-0.277719

>  <r_i_glide_ligand_efficiency_ln>  (70) 
-0.626825

>  <r_i_glide_gscore>  (70) 
-2.79924

>  <r_i_glide_lipo>  (70) 
-0.225186

>  <r_i_glide_hbond>  (70) 
-0.218524

>  <r_i_glide_metal>  (70) 
-0

>  <r_i_glide_rewards>  (70) 
-0.555645

>  <r_i_glide_evdw>  (70) 
-25.4775

>  <r_i_glide_ecoul>  (70) 
-5.27686

>  <r_i_glide_erotb>  (70) 
0.308615

>  <r_i_glide_esite>  (70) 
-0.0430925

>  <r_i_glide_emodel>  (70) 
-33.8746

>  <r_i_glide_energy>  (70) 
-30.7544

>  <r_i_glide_einternal>  (70) 
4.721

>  <r_i_glide_intrahb_reward>  (70) 
-0

>  <i_i_glide_confnum>  (70) 
1

>  <i_i_glide_posenum>  (70) 
20

>  <r_i_glide_eff_state_penalty>  (70) 
0

>  <ligand_id>  (70) 
24

>  <original_smiles>  (70) 
CC(C)(O)COC1C2OC3(O)C2C2CC4C5C(=O)C3(C(C)(C)C3CC6C5C5C6C5C43)C21C

>  <smiles>  (70) 
[H]OC12OC3([H])C([H])(OC([H])([H])C(O[H])(C([H])([H])[H])C([H])([H])[H])C4(C([H])([H])[H])C([H])(C([H])([H])C5([H])C6([H])C(=O)C14C(C([H])([H])[H])(C([H])([H])[H])C1([H])C([H])([H])C4([H])C6([H])C6([H])C4([H])C6([H])C51[H])C32[H]

$$$$
24:0:1
     RDKit          3D

 68 76  0  0  1  0  0  0  0  0999 V2000
    2.0095   -3.2865   -1.9463 C   0  0  0  0  0  0  0  0  0  0  0  0
    3.4551   -2.7972   -1.7569 C   0  0  0  0  0  0  0  0  0  0  0  0
    4.1170   -2.5254   -3.1194 C   0  0  0  0  0  0  0  0  0  0  0  0
    3.4147   -1.5540   -1.0839 O   0  0  0  0  0  0  0  0  0  0  0  0
    4.3080   -3.7632   -0.9079 C   0  0  0  0  0  0  0  0  0  0  0  0
    3.5290   -4.3069    0.1572 O   0  0  0  0  0  0  0  0  0  0  0  0
    4.2653   -4.6985    1.3175 C   0  0  2  0  0  0  0  0  0  0  0  0
    5.3402   -5.6726    1.1098 C   0  0  2  0  0  0  0  0  0  0  0  0
    4.6570   -6.5312    0.2082 O   0  0  0  0  0  0  0  0  0  0  0  0
    4.3455   -7.3909    1.2906 C   0  0  1  0  0  0  0  0  0  0  0  0
    4.9059   -8.6402    0.9413 O   0  0  0  0  0  0  0  0  0  0  0  0
    5.2103   -6.6037    2.3049 C   0  0  2  0  0  0  0  0  0  0  0  0
    4.3813   -5.7890    3.3996 C   0  0  2  0  0  0  0  0  0  0  0  0
    3.4078   -6.2339    4.5848 C   0  0  0  0  0  0  0  0  0  0  0  0
    1.8027   -6.5528    4.4385 C   0  0  1  0  0  0  0  0  0  0  0  0
    0.8368   -6.4100    3.1027 C   0  0  1  0  0  0  0  0  0  0  0  0
    1.5331   -6.8557    1.7662 C   0  0  0  0  0  0  0  0  0  0  0  0
    0.9672   -6.8962    0.6681 O   0  0  0  0  0  0  0  0  0  0  0  0
    3.0012   -7.1288    2.0644 C   0  0  1  0  0  0  0  0  0  0  0  0
    2.8616   -8.6278    2.9210 C   0  0  0  0  0  0  0  0  0  0  0  0
    2.7190   -9.8418    1.9099 C   0  0  0  0  0  0  0  0  0  0  0  0
    4.0956   -9.1162    3.7756 C   0  0  0  0  0  0  0  0  0  0  0  0
    1.6111   -8.9316    3.8769 C   0  0  2  0  0  0  0  0  0  0  0  0
    0.2657   -9.3811    3.1499 C   0  0  0  0  0  0  0  0  0  0  0  0
   -0.8827   -8.4615    3.3785 C   0  0  2  0  0  0  0  0  0  0  0  0
   -0.6009   -6.9623    3.3419 C   0  0  1  0  0  0  0  0  0  0  0  0
   -0.8642   -6.9502    4.8285 C   0  0  1  0  0  0  0  0  0  0  0  0
   -1.0803   -8.4052    4.8493 C   0  0  2  0  0  0  0  0  0  0  0  0
    0.0601   -7.8324    5.6438 C   0  0  1  0  0  0  0  0  0  0  0  0
    1.4699   -7.9098    5.0510 C   0  0  2  0  0  0  0  0  0  0  0  0
    3.3928   -5.4603    2.4006 C   0  0  2  0  0  0  0  0  0  0  0  0
    2.5105   -4.1922    2.7781 C   0  0  0  0  0  0  0  0  0  0  0  0
    1.9699   -4.2398   -2.4637 H   0  0  0  0  0  0  0  0  0  0  0  0
    1.4231   -2.6057   -2.5547 H   0  0  0  0  0  0  0  0  0  0  0  0
    1.5009   -3.4157   -0.9945 H   0  0  0  0  0  0  0  0  0  0  0  0
    4.1832   -3.4389   -3.7123 H   0  0  0  0  0  0  0  0  0  0  0  0
    5.1297   -2.1335   -2.9992 H   0  0  0  0  0  0  0  0  0  0  0  0
    3.5479   -1.7956   -3.6994 H   0  0  0  0  0  0  0  0  0  0  0  0
    2.4978   -1.3105   -0.9862 H   0  0  0  0  0  0  0  0  0  0  0  0
    4.6450   -4.5972   -1.5242 H   0  0  0  0  0  0  0  0  0  0  0  0
    5.2128   -3.2560   -0.5583 H   0  0  0  0  0  0  0  0  0  0  0  0
    4.7331   -3.7945    1.7229 H   0  0  0  0  0  0  0  0  0  0  0  0
    6.3365   -5.3422    0.8252 H   0  0  0  0  0  0  0  0  0  0  0  0
    4.5093   -9.2826    1.4946 H   0  0  0  0  0  0  0  0  0  0  0  0
    6.1544   -7.0643    2.5950 H   0  0  0  0  0  0  0  0  0  0  0  0
    4.9529   -4.9240    3.7400 H   0  0  0  0  0  0  0  0  0  0  0  0
    3.9047   -6.8835    5.2967 H   0  0  0  0  0  0  0  0  0  0  0  0
    3.3821   -5.3315    5.2002 H   0  0  0  0  0  0  0  0  0  0  0  0
    1.3900   -5.8189    5.1345 H   0  0  0  0  0  0  0  0  0  0  0  0
    0.5879   -5.3723    2.9480 H   0  0  0  0  0  0  0  0  0  0  0  0
    2.1456  -10.6757    2.3149 H   0  0  0  0  0  0  0  0  0  0  0  0
    3.6405  -10.3808    1.7098 H   0  0  0  0  0  0  0  0  0  0  0  0
    2.2805   -9.5561    0.9506 H   0  0  0  0  0  0  0  0  0  0  0  0
    4.0880  -10.2016    3.8799 H   0  0  0  0  0  0  0  0  0  0  0  0
    4.0935   -8.8040    4.8099 H   0  0  0  0  0  0  0  0  0  0  0  0
    5.0793   -8.8937    3.3824 H   0  0  0  0  0  0  0  0  0  0  0  0
    1.8561   -9.8468    4.4199 H   0  0  0  0  0  0  0  0  0  0  0  0
    0.3369   -9.4657    2.0711 H   0  0  0  0  0  0  0  0  0  0  0  0
   -0.0117  -10.3812    3.4963 H   0  0  0  0  0  0  0  0  0  0  0  0
   -1.8023   -8.7127    2.8508 H   0  0  0  0  0  0  0  0  0  0  0  0
   -1.3899   -6.4823    2.7715 H   0  0  0  0  0  0  0  0  0  0  0  0
   -1.6028   -6.2874    5.2772 H   0  0  0  0  0  0  0  0  0  0  0  0
   -1.9861   -8.8074    5.2910 H   0  0  0  0  0  0  0  0  0  0  0  0
   -0.0254   -7.7829    6.7276 H   0  0  0  0  0  0  0  0  0  0  0  0
    2.1480   -8.1544    5.8720 H   0  0  0  0  0  0  0  0  0  0  0  0
    2.0046   -4.1798    3.7366 H   0  0  0  0  0  0  0  0  0  0  0  0
    1.7902   -3.9810    1.9908 H   0  0  0  0  0  0  0  0  0  0  0  0
    3.0955   -3.2772    2.8576 H   0  0  0  0  0  0  0  0  0  0  0  0
  1  2  1  0
  1 33  1  0
  1 34  1  0
  1 35  1  0
  2  3  1  0
  2  4  1  0
  2  5  1  0
  3 36  1  0
  3 37  1  0
  3 38  1  0
  4 39  1  0
  5  6  1  0
  5 40  1  0
  5 41  1  0
  6  7  1  0
  7 31  1  0
  7  8  1  0
  7 42  1  1
  8 12  1  0
  8  9  1  0
  8 43  1  6
  9 10  1  0
 10 19  1  0
 10 11  1  6
 10 12  1  0
 11 44  1  0
 12 13  1  0
 12 45  1  1
 13 31  1  0
 13 14  1  0
 13 46  1  1
 14 15  1  0
 14 47  1  0
 14 48  1  0
 15 30  1  0
 15 16  1  0
 15 49  1  1
 16 26  1  0
 16 17  1  0
 16 50  1  6
 17 18  2  0
 17 19  1  0
 19 20  1  1
 19 31  1  0
 20 21  1  0
 20 22  1  0
 20 23  1  0
 21 51  1  0
 21 52  1  0
 21 53  1  0
 22 54  1  0
 22 55  1  0
 22 56  1  0
 23 30  1  0
 23 24  1  0
 23 57  1  1
 24 25  1  0
 24 58  1  0
 24 59  1  0
 25 28  1  0
 25 26  1  0
 25 60  1  6
 26 27  1  0
 26 61  1  6
 27 29  1  0
 27 28  1  0
 27 62  1  1
 28 29  1  0
 28 63  1  1
 29 30  1  0
 29 64  1  1
 30 65  1  1
 31 32  1  1
 32 66  1  0
 32 67  1  0
 32 68  1  0
M  END
>  <i_m_ct_stereo_status>  (71) 
1

>  <s_m_source_file>  (71) 
/var/tmp/pbs.5076255.sched01/tmpvsf1hu0j/0g1dnczxv.sdf

>  <i_m_source_file_index>  (71) 
30

>  <i_lp_mmshare_version>  (71) 
48012

>  <i_f3d_flags>  (71) 
0

>  <s_epik_input>  (71) 
W0NIM11DKFtDSDNdKShbT0hdKVtDSDJdT1tDQEhdKFtDQEhdKE8xKVtDQEBIXTJbQ0BdMShDMzQ1KVtPSF0pW0NAXTUoW0NIM10pW0NASF0yW0NIMl1bQ0BIXTZbQ0BASF0oQzM9TylbQ0BIXTdbQ0BASF04W0NAQEhdOVtDQEhdN1tDQEBIXTlbQ0BIXTZbQ0BASF0oW0NIMl04KUM0KFtDSDNdKVtDSDNd

>  <s_epik_cmdline>  (71) 
J2VwaWtfcHl0aG9uJywgJy1waHQnLCAnMi4wJywgJy1waCcsICc3LjAnLCAnLXRuJywgJzgnLCAnLW1hJywgJzIwMCcsICctaW1hZScsICc8aW5maWxlLm1hZT4nLCAnLW9tYWUnLCAnPG91dGZpbGUubWFlPic=

>  <r_lp_tautomer_probability>  (71) 
1

>  <r_epik_Ionization_Penalty>  (71) 
2.97707e-06

>  <r_epik_Ionization_Penalty_Charging>  (71) 
0

>  <r_epik_Ionization_Penalty_Neutral>  (71) 
2.97707e-06

>  <r_epik_State_Penalty>  (71) 
-0

>  <r_epik_Charging_Adjusted_Penalty>  (71) 
0

>  <i_epik_Tot_Q>  (71) 
0

>  <i_epik_Tot_abs_Q>  (71) 
0

>  <s_lp_Force_Field>  (71) 
OPLS3e

>  <r_lp_Energy>  (71) 
286.834

>  <b_lp_Chiralities_Consistent>  (71) 
1

>  <s_lp_Variant>  (71) 
24:0-1

>  <s_i_glide_gridfile>  (71) 
pfpi4k_grid

>  <i_i_glide_lignum>  (71) 
30

>  <i_i_glide_rotatable_bonds>  (71) 
5

>  <r_i_docking_score>  (71) 
-2.76337

>  <r_i_glide_ligand_efficiency>  (71) 
-0.0863553

>  <r_i_glide_ligand_efficiency_sa>  (71) 
-0.274161

>  <r_i_glide_ligand_efficiency_ln>  (71) 
-0.618794

>  <r_i_glide_gscore>  (71) 
-2.76337

>  <r_i_glide_lipo>  (71) 
-0.407355

>  <r_i_glide_hbond>  (71) 
0

>  <r_i_glide_metal>  (71) 
-0

>  <r_i_glide_rewards>  (71) 
-0.52794

>  <r_i_glide_evdw>  (71) 
-26.5521

>  <r_i_glide_ecoul>  (71) 
-5.12683

>  <r_i_glide_erotb>  (71) 
0.308615

>  <r_i_glide_esite>  (71) 
-0.0400601

>  <r_i_glide_emodel>  (71) 
-33.9813

>  <r_i_glide_energy>  (71) 
-31.6789

>  <r_i_glide_einternal>  (71) 
5.89732

>  <r_i_glide_intrahb_reward>  (71) 
-0

>  <i_i_glide_confnum>  (71) 
2

>  <i_i_glide_posenum>  (71) 
1

>  <r_i_glide_eff_state_penalty>  (71) 
0

>  <ligand_id>  (71) 
24

>  <original_smiles>  (71) 
CC(C)(O)COC1C2OC3(O)C2C2CC4C5C(=O)C3(C(C)(C)C3CC6C5C5C6C5C43)C21C

>  <smiles>  (71) 
[H]OC12OC3([H])C([H])(OC([H])([H])C(O[H])(C([H])([H])[H])C([H])([H])[H])C4(C([H])([H])[H])C([H])(C([H])([H])C5([H])C6([H])C(=O)C14C(C([H])([H])[H])(C([H])([H])[H])C1([H])C([H])([H])C4([H])C6([H])C6([H])C4([H])C6([H])C51[H])C32[H]

$$$$
24:0:2
     RDKit          3D

 68 76  0  0  1  0  0  0  0  0999 V2000
    3.3190   -2.3810   -0.9239 C   0  0  0  0  0  0  0  0  0  0  0  0
    4.8383   -2.6081   -0.9413 C   0  0  0  0  0  0  0  0  0  0  0  0
    5.2244   -3.6945   -1.9529 C   0  0  0  0  0  0  0  0  0  0  0  0
    5.4335   -1.3989   -1.3749 O   0  0  0  0  0  0  0  0  0  0  0  0
    5.3905   -2.9403    0.4625 C   0  0  0  0  0  0  0  0  0  0  0  0
    4.6783   -4.0468    1.0085 O   0  0  0  0  0  0  0  0  0  0  0  0
    5.2392   -4.6005    2.2002 C   0  0  2  0  0  0  0  0  0  0  0  0
    6.2913   -5.5974    1.9759 C   0  0  2  0  0  0  0  0  0  0  0  0
    5.6899   -6.2833    0.8855 O   0  0  0  0  0  0  0  0  0  0  0  0
    5.2056   -7.2690    1.7885 C   0  0  1  0  0  0  0  0  0  0  0  0
    5.7425   -8.4967    1.3411 O   0  0  0  0  0  0  0  0  0  0  0  0
    5.9793   -6.6778    2.9994 C   0  0  2  0  0  0  0  0  0  0  0  0
    5.0639   -5.9746    4.1025 C   0  0  2  0  0  0  0  0  0  0  0  0
    3.9397   -6.5179    5.0980 C   0  0  0  0  0  0  0  0  0  0  0  0
    2.3488   -6.7167    4.7348 C   0  0  1  0  0  0  0  0  0  0  0  0
    1.5538   -6.3428    3.3361 C   0  0  1  0  0  0  0  0  0  0  0  0
    2.3798   -6.6578    2.0256 C   0  0  0  0  0  0  0  0  0  0  0  0
    1.9454   -6.5720    0.8793 O   0  0  0  0  0  0  0  0  0  0  0  0
    3.7966   -7.0364    2.4488 C   0  0  1  0  0  0  0  0  0  0  0  0
    3.4845   -8.6312    3.0735 C   0  0  0  0  0  0  0  0  0  0  0  0
    3.4088   -9.6930    1.8909 C   0  0  0  0  0  0  0  0  0  0  0  0
    4.5878   -9.3036    3.9791 C   0  0  0  0  0  0  0  0  0  0  0  0
    2.1167   -8.9858    3.8338 C   0  0  2  0  0  0  0  0  0  0  0  0
    0.8491   -9.2490    2.9103 C   0  0  0  0  0  0  0  0  0  0  0  0
   -0.2844   -8.3050    3.1444 C   0  0  2  0  0  0  0  0  0  0  0  0
    0.0773   -6.8308    3.3435 C   0  0  1  0  0  0  0  0  0  0  0  0
   -0.3623   -6.9971    4.7809 C   0  0  1  0  0  0  0  0  0  0  0  0
   -0.6565   -8.4247    4.5826 C   0  0  2  0  0  0  0  0  0  0  0  0
    0.4171   -8.0375    5.5563 C   0  0  1  0  0  0  0  0  0  0  0  0
    1.8831   -8.1212    5.1118 C   0  0  2  0  0  0  0  0  0  0  0  0
    4.2138   -5.4534    3.0547 C   0  0  2  0  0  0  0  0  0  0  0  0
    3.3422   -4.2003    3.5024 C   0  0  0  0  0  0  0  0  0  0  0  0
    2.7909   -3.2695   -0.5799 H   0  0  0  0  0  0  0  0  0  0  0  0
    2.9362   -2.1501   -1.9191 H   0  0  0  0  0  0  0  0  0  0  0  0
    3.0355   -1.5591   -0.2662 H   0  0  0  0  0  0  0  0  0  0  0  0
    4.7956   -4.6570   -1.6727 H   0  0  0  0  0  0  0  0  0  0  0  0
    6.3061   -3.8186   -2.0074 H   0  0  0  0  0  0  0  0  0  0  0  0
    4.8678   -3.4528   -2.9540 H   0  0  0  0  0  0  0  0  0  0  0  0
    5.0109   -0.6865   -0.9177 H   0  0  0  0  0  0  0  0  0  0  0  0
    6.4599   -3.1543    0.4010 H   0  0  0  0  0  0  0  0  0  0  0  0
    5.2776   -2.0866    1.1319 H   0  0  0  0  0  0  0  0  0  0  0  0
    5.6891   -3.7967    2.7887 H   0  0  0  0  0  0  0  0  0  0  0  0
    7.3262   -5.2868    1.8363 H   0  0  0  0  0  0  0  0  0  0  0  0
    5.2475   -9.1736    1.7690 H   0  0  0  0  0  0  0  0  0  0  0  0
    6.8590   -7.2294    3.3276 H   0  0  0  0  0  0  0  0  0  0  0  0
    5.6298   -5.2022    4.6222 H   0  0  0  0  0  0  0  0  0  0  0  0
    4.3237   -7.2798    5.7643 H   0  0  0  0  0  0  0  0  0  0  0  0
    3.8871   -5.7072    5.8282 H   0  0  0  0  0  0  0  0  0  0  0  0
    1.8915   -6.0592    5.4774 H   0  0  0  0  0  0  0  0  0  0  0  0
    1.3644   -5.2812    3.2969 H   0  0  0  0  0  0  0  0  0  0  0  0
    2.7594  -10.5450    2.0976 H   0  0  0  0  0  0  0  0  0  0  0  0
    4.3239  -10.2551    1.7065 H   0  0  0  0  0  0  0  0  0  0  0  0
    3.0935   -9.2572    0.9372 H   0  0  0  0  0  0  0  0  0  0  0  0
    4.5203  -10.3906    3.9315 H   0  0  0  0  0  0  0  0  0  0  0  0
    4.4752   -9.1312    5.0391 H   0  0  0  0  0  0  0  0  0  0  0  0
    5.6216   -9.0875    3.7327 H   0  0  0  0  0  0  0  0  0  0  0  0
    2.2573   -9.9780    4.2653 H   0  0  0  0  0  0  0  0  0  0  0  0
    1.0430   -9.1931    1.8413 H   0  0  0  0  0  0  0  0  0  0  0  0
    0.4929  -10.2702    3.0724 H   0  0  0  0  0  0  0  0  0  0  0  0
   -1.1367   -8.4292    2.4760 H   0  0  0  0  0  0  0  0  0  0  0  0
   -0.5887   -6.2214    2.7506 H   0  0  0  0  0  0  0  0  0  0  0  0
   -1.1148   -6.3478    5.2316 H   0  0  0  0  0  0  0  0  0  0  0  0
   -1.6326   -8.8133    4.8826 H   0  0  0  0  0  0  0  0  0  0  0  0
    0.2122   -8.1259    6.6244 H   0  0  0  0  0  0  0  0  0  0  0  0
    2.4492   -8.5093    5.9576 H   0  0  0  0  0  0  0  0  0  0  0  0
    2.7339   -4.2922    4.3941 H   0  0  0  0  0  0  0  0  0  0  0  0
    2.7197   -3.8456    2.6804 H   0  0  0  0  0  0  0  0  0  0  0  0
    3.9484   -3.3405    3.7788 H   0  0  0  0  0  0  0  0  0  0  0  0
  1  2  1  0
  1 33  1  0
  1 34  1  0
  1 35  1  0
  2  3  1  0
  2  4  1  0
  2  5  1  0
  3 36  1  0
  3 37  1  0
  3 38  1  0
  4 39  1  0
  5  6  1  0
  5 40  1  0
  5 41  1  0
  6  7  1  0
  7 31  1  0
  7  8  1  0
  7 42  1  1
  8 12  1  0
  8  9  1  0
  8 43  1  6
  9 10  1  0
 10 19  1  0
 10 11  1  6
 10 12  1  0
 11 44  1  0
 12 13  1  0
 12 45  1  1
 13 31  1  0
 13 14  1  0
 13 46  1  1
 14 15  1  0
 14 47  1  0
 14 48  1  0
 15 30  1  0
 15 16  1  0
 15 49  1  1
 16 26  1  0
 16 17  1  0
 16 50  1  1
 17 18  2  0
 17 19  1  0
 19 20  1  1
 19 31  1  0
 20 21  1  0
 20 22  1  0
 20 23  1  0
 21 51  1  0
 21 52  1  0
 21 53  1  0
 22 54  1  0
 22 55  1  0
 22 56  1  0
 23 30  1  0
 23 24  1  0
 23 57  1  1
 24 25  1  0
 24 58  1  0
 24 59  1  0
 25 28  1  0
 25 26  1  0
 25 60  1  6
 26 27  1  0
 26 61  1  6
 27 29  1  0
 27 28  1  0
 27 62  1  1
 28 29  1  0
 28 63  1  1
 29 30  1  0
 29 64  1  1
 30 65  1  1
 31 32  1  1
 32 66  1  0
 32 67  1  0
 32 68  1  0
M  END
>  <i_m_ct_stereo_status>  (72) 
1

>  <s_m_source_file>  (72) 
/var/tmp/pbs.5076255.sched01/tmpvsf1hu0j/0g1dnczxv.sdf

>  <i_m_source_file_index>  (72) 
30

>  <i_lp_mmshare_version>  (72) 
48012

>  <i_f3d_flags>  (72) 
0

>  <s_epik_input>  (72) 
W0NIM11DKFtDSDNdKShbT0hdKVtDSDJdT1tDQEhdKFtDQEhdKE8xKVtDQEBIXTJbQ0BdMShDMzQ1KVtPSF0pW0NAXTUoW0NIM10pW0NASF0yW0NIMl1bQ0BIXTZbQ0BASF0oQzM9TylbQ0BIXTdbQ0BASF04W0NAQEhdOVtDQEhdN1tDQEBIXTlbQ0BIXTZbQ0BASF0oW0NIMl04KUM0KFtDSDNdKVtDSDNd

>  <s_epik_cmdline>  (72) 
J2VwaWtfcHl0aG9uJywgJy1waHQnLCAnMi4wJywgJy1waCcsICc3LjAnLCAnLXRuJywgJzgnLCAnLW1hJywgJzIwMCcsICctaW1hZScsICc8aW5maWxlLm1hZT4nLCAnLW9tYWUnLCAnPG91dGZpbGUubWFlPic=

>  <r_lp_tautomer_probability>  (72) 
1

>  <r_epik_Ionization_Penalty>  (72) 
2.97707e-06

>  <r_epik_Ionization_Penalty_Charging>  (72) 
0

>  <r_epik_Ionization_Penalty_Neutral>  (72) 
2.97707e-06

>  <r_epik_State_Penalty>  (72) 
-0

>  <r_epik_Charging_Adjusted_Penalty>  (72) 
0

>  <i_epik_Tot_Q>  (72) 
0

>  <i_epik_Tot_abs_Q>  (72) 
0

>  <s_lp_Force_Field>  (72) 
OPLS3e

>  <r_lp_Energy>  (72) 
286.834

>  <b_lp_Chiralities_Consistent>  (72) 
1

>  <s_lp_Variant>  (72) 
24:0-1

>  <s_i_glide_gridfile>  (72) 
pfpi4k_grid

>  <i_i_glide_lignum>  (72) 
30

>  <i_i_glide_rotatable_bonds>  (72) 
5

>  <r_i_docking_score>  (72) 
-2.04286

>  <r_i_glide_ligand_efficiency>  (72) 
-0.0638394

>  <r_i_glide_ligand_efficiency_sa>  (72) 
-0.202677

>  <r_i_glide_ligand_efficiency_ln>  (72) 
-0.457452

>  <r_i_glide_gscore>  (72) 
-2.04286

>  <r_i_glide_lipo>  (72) 
-0.177733

>  <r_i_glide_hbond>  (72) 
0

>  <r_i_glide_metal>  (72) 
-0

>  <r_i_glide_rewards>  (72) 
-0.483214

>  <r_i_glide_evdw>  (72) 
-23.7318

>  <r_i_glide_ecoul>  (72) 
-3.29496

>  <r_i_glide_erotb>  (72) 
0.308615

>  <r_i_glide_esite>  (72) 
-0.00969376

>  <r_i_glide_emodel>  (72) 
-29.892

>  <r_i_glide_energy>  (72) 
-27.0268

>  <r_i_glide_einternal>  (72) 
2.18184

>  <r_i_glide_intrahb_reward>  (72) 
-0

>  <i_i_glide_confnum>  (72) 
4

>  <i_i_glide_posenum>  (72) 
32

>  <r_i_glide_eff_state_penalty>  (72) 
0

>  <ligand_id>  (72) 
24

>  <original_smiles>  (72) 
CC(C)(O)COC1C2OC3(O)C2C2CC4C5C(=O)C3(C(C)(C)C3CC6C5C5C6C5C43)C21C

>  <smiles>  (72) 
[H]OC12OC3([H])C([H])(OC([H])([H])C(O[H])(C([H])([H])[H])C([H])([H])[H])C4(C([H])([H])[H])C([H])(C([H])([H])C5([H])C6([H])C(=O)C14C(C([H])([H])[H])(C([H])([H])[H])C1([H])C([H])([H])C4([H])C6([H])C6([H])C4([H])C6([H])C51[H])C32[H]

$$$$
25:0:0
     RDKit          3D

 50 54  0  0  1  0  0  0  0  0999 V2000
   -0.8831    1.0325    3.6642 C   0  0  0  0  0  0  0  0  0  0  0  0
    0.0746    0.6877    4.8276 C   0  0  0  0  0  0  0  0  0  0  0  0
    0.1577   -0.8577    4.6397 C   0  0  0  0  0  0  0  0  0  0  0  0
    1.4588    1.4104    5.1347 C   0  0  2  0  0  0  0  0  0  0  0  0
    1.1693    0.9127    6.5663 C   0  0  0  0  0  0  0  0  0  0  0  0
   -0.2946    1.2395    6.2348 C   0  0  1  0  0  0  0  0  0  0  0  0
   -0.8762    2.6952    6.3331 C   0  0  1  0  0  0  0  0  0  0  0  0
   -1.3896    3.1487    7.6664 C   0  0  0  0  0  0  0  0  0  0  0  0
   -1.9997    2.4118    8.6991 C   0  0  0  0  0  0  0  0  0  0  0  0
   -2.4386    3.1064    9.8452 C   0  0  0  0  0  0  0  0  0  0  0  0
   -2.2752    4.5055    9.9330 C   0  0  0  0  0  0  0  0  0  0  0  0
   -1.6651    5.2455    8.8848 C   0  0  0  0  0  0  0  0  0  0  0  0
   -1.5073    6.7060    8.9771 N   0  0  0  0  0  0  0  0  0  0  0  0
   -1.1143    7.3281    7.9920 O   0  0  0  0  0  0  0  0  0  0  0  0
   -1.7897    7.2527   10.0381 O   0  0  0  0  0  0  0  0  0  0  0  0
   -1.2195    4.5216    7.7597 C   0  0  0  0  0  0  0  0  0  0  0  0
   -0.5907    5.0500    6.6631 O   0  0  0  0  0  0  0  0  0  0  0  0
   -0.0567    3.9803    5.8728 C   0  0  2  0  0  0  0  0  0  0  0  0
   -0.1746    4.2829    4.3561 C   0  0  0  0  0  0  0  0  0  0  0  0
    1.0227    3.5321    3.7034 C   0  0  1  0  0  0  0  0  0  0  0  0
    1.8029    4.3779    2.8808 O   0  0  0  0  0  0  0  0  0  0  0  0
    1.8138    2.9384    4.9028 C   0  0  1  0  0  0  0  0  0  0  0  0
    1.4803    3.9539    6.0585 C   0  0  0  0  0  0  0  0  0  0  0  0
    2.1447    5.3460    5.7817 C   0  0  0  0  0  0  0  0  0  0  0  0
    1.9807    3.6984    7.5113 C   0  0  0  0  0  0  0  0  0  0  0  0
   -0.4100    0.8976    2.6872 H   0  0  0  0  0  0  0  0  0  0  0  0
   -1.2865    2.0303    3.7033 H   0  0  0  0  0  0  0  0  0  0  0  0
   -1.7689    0.3910    3.6740 H   0  0  0  0  0  0  0  0  0  0  0  0
    0.9122   -1.3686    5.2290 H   0  0  0  0  0  0  0  0  0  0  0  0
    0.4140   -1.1193    3.6132 H   0  0  0  0  0  0  0  0  0  0  0  0
   -0.7907   -1.3413    4.8713 H   0  0  0  0  0  0  0  0  0  0  0  0
    2.2421    0.7970    4.6944 H   0  0  0  0  0  0  0  0  0  0  0  0
    1.3682   -0.1423    6.7423 H   0  0  0  0  0  0  0  0  0  0  0  0
    1.6304    1.3770    7.4168 H   0  0  0  0  0  0  0  0  0  0  0  0
   -0.9463    0.5176    6.7203 H   0  0  0  0  0  0  0  0  0  0  0  0
   -1.8013    2.6898    5.7597 H   0  0  0  0  0  0  0  0  0  0  0  0
   -2.1250    1.3450    8.6269 H   0  0  0  0  0  0  0  0  0  0  0  0
   -2.9072    2.5709   10.6664 H   0  0  0  0  0  0  0  0  0  0  0  0
   -2.6266    5.0139   10.8155 H   0  0  0  0  0  0  0  0  0  0  0  0
   -1.1521    4.0620    3.9303 H   0  0  0  0  0  0  0  0  0  0  0  0
   -0.0691    5.3563    4.1995 H   0  0  0  0  0  0  0  0  0  0  0  0
    0.7184    2.7697    2.9994 H   0  0  0  0  0  0  0  0  0  0  0  0
    1.3030    4.5281    2.0719 H   0  0  0  0  0  0  0  0  0  0  0  0
    2.8808    2.9979    4.6862 H   0  0  0  0  0  0  0  0  0  0  0  0
    3.2334    5.2677    5.8375 H   0  0  0  0  0  0  0  0  0  0  0  0
    1.8303    6.0906    6.5185 H   0  0  0  0  0  0  0  0  0  0  0  0
    1.9272    5.8076    4.8226 H   0  0  0  0  0  0  0  0  0  0  0  0
    2.9158    3.1377    7.5193 H   0  0  0  0  0  0  0  0  0  0  0  0
    1.2473    3.2146    8.1506 H   0  0  0  0  0  0  0  0  0  0  0  0
    2.1869    4.6200    8.0582 H   0  0  0  0  0  0  0  0  0  0  0  0
  1  2  1  0
  1 26  1  0
  1 27  1  0
  1 28  1  0
  2  6  1  0
  2  3  1  0
  2  4  1  0
  3 29  1  0
  3 30  1  0
  3 31  1  0
  4 22  1  0
  4  5  1  0
  4 32  1  6
  5  6  1  0
  5 33  1  0
  5 34  1  0
  6  7  1  0
  6 35  1  1
  7 18  1  0
  7  8  1  0
  7 36  1  6
  8 16  2  0
  8  9  1  0
  9 10  2  0
  9 37  1  0
 10 11  1  0
 10 38  1  0
 11 12  2  0
 11 39  1  0
 12 13  1  0
 12 16  1  0
 13 14  2  0
 13 15  1  0
 16 17  1  0
 18 17  1  1
 18 23  1  0
 18 19  1  0
 19 20  1  0
 19 40  1  0
 19 41  1  0
 20 21  1  0
 20 22  1  0
 20 42  1  6
 21 43  1  0
 22 23  1  0
 22 44  1  6
 23 24  1  0
 23 25  1  0
 24 45  1  0
 24 46  1  0
 24 47  1  0
 25 48  1  0
 25 49  1  0
 25 50  1  0
M  CHG  2  13   1  15  -1
M  END
>  <i_m_ct_stereo_status>  (73) 
1

>  <s_m_source_file>  (73) 
/var/tmp/pbs.5076255.sched01/tmpvsf1hu0j/0g1dnczxv.sdf

>  <i_m_source_file_index>  (73) 
31

>  <i_lp_mmshare_version>  (73) 
48012

>  <i_f3d_flags>  (73) 
0

>  <s_epik_input>  (73) 
W0NIMl0xW0NAQEhdKFtPSF0pW0NAQEhdKEMyKFtDSDNdKVtDSDNdKVtDQEBIXShbQ0gyXTMpQyhbQ0gzXSkoW0NIM10pW0NAQEhdM1tDQEhdKFtDQF0xMjQpYzVjKE80KWMoW04rXSg9TylbTy1dKVtjSF1bY0hdW2NIXTU=

>  <s_epik_cmdline>  (73) 
J2VwaWtfcHl0aG9uJywgJy1waHQnLCAnMi4wJywgJy1waCcsICc3LjAnLCAnLXRuJywgJzgnLCAnLW1hJywgJzIwMCcsICctaW1hZScsICc8aW5maWxlLm1hZT4nLCAnLW9tYWUnLCAnPG91dGZpbGUubWFlPic=

>  <r_lp_tautomer_probability>  (73) 
1

>  <r_epik_Ionization_Penalty>  (73) 
1.97946e-07

>  <r_epik_Ionization_Penalty_Charging>  (73) 
0

>  <r_epik_Ionization_Penalty_Neutral>  (73) 
1.97946e-07

>  <r_epik_State_Penalty>  (73) 
-0

>  <r_epik_Charging_Adjusted_Penalty>  (73) 
0

>  <i_epik_Tot_Q>  (73) 
0

>  <i_epik_Tot_abs_Q>  (73) 
2

>  <s_lp_Force_Field>  (73) 
OPLS3e

>  <r_lp_Energy>  (73) 
97.7854

>  <b_lp_Chiralities_Consistent>  (73) 
1

>  <s_lp_Variant>  (73) 
25:0-1

>  <s_i_glide_gridfile>  (73) 
pfpi4k_grid

>  <i_i_glide_lignum>  (73) 
31

>  <i_i_glide_rotatable_bonds>  (73) 
2

>  <r_i_docking_score>  (73) 
-2.74012

>  <r_i_glide_ligand_efficiency>  (73) 
-0.109605

>  <r_i_glide_ligand_efficiency_sa>  (73) 
-0.320487

>  <r_i_glide_ligand_efficiency_ln>  (73) 
-0.649491

>  <r_i_glide_gscore>  (73) 
-2.74012

>  <r_i_glide_lipo>  (73) 
-0.0109099

>  <r_i_glide_hbond>  (73) 
-0.16

>  <r_i_glide_metal>  (73) 
-0

>  <r_i_glide_rewards>  (73) 
-1.06761

>  <r_i_glide_evdw>  (73) 
-17.2929

>  <r_i_glide_ecoul>  (73) 
-4.14161

>  <r_i_glide_erotb>  (73) 
0

>  <r_i_glide_esite>  (73) 
-0.0157104

>  <r_i_glide_emodel>  (73) 
-25.1549

>  <r_i_glide_energy>  (73) 
-21.4346

>  <r_i_glide_einternal>  (73) 
0.53157

>  <r_i_glide_intrahb_reward>  (73) 
-0

>  <i_i_glide_confnum>  (73) 
1

>  <i_i_glide_posenum>  (73) 
18

>  <r_i_glide_eff_state_penalty>  (73) 
0

>  <ligand_id>  (73) 
25

>  <original_smiles>  (73) 
CC1(C)C2CC1C1c3cccc([N+](=O)[O-])c3OC13CC(O)C2C3(C)C

>  <smiles>  (73) 
[H]OC1([H])C([H])([H])C23Oc4c([N+](=O)[O-])c([H])c([H])c([H])c4C2([H])C2([H])C([H])([H])C([H])(C1([H])C3(C([H])([H])[H])C([H])([H])[H])C2(C([H])([H])[H])C([H])([H])[H]

$$$$
25:0:1
     RDKit          3D

 50 54  0  0  1  0  0  0  0  0999 V2000
    0.3500    1.9014    2.3178 C   0  0  0  0  0  0  0  0  0  0  0  0
    1.0653    1.2488    3.5212 C   0  0  0  0  0  0  0  0  0  0  0  0
    1.1787   -0.2097    2.9821 C   0  0  0  0  0  0  0  0  0  0  0  0
    2.3660    1.8080    4.2443 C   0  0  2  0  0  0  0  0  0  0  0  0
    1.8019    1.0046    5.4339 C   0  0  0  0  0  0  0  0  0  0  0  0
    0.4293    1.4721    4.9243 C   0  0  1  0  0  0  0  0  0  0  0  0
   -0.1569    2.8917    5.2556 C   0  0  1  0  0  0  0  0  0  0  0  0
   -0.9164    3.0430    6.5390 C   0  0  0  0  0  0  0  0  0  0  0  0
   -1.7135    2.1106    7.2283 C   0  0  0  0  0  0  0  0  0  0  0  0
   -2.3589    2.5391    8.4099 C   0  0  0  0  0  0  0  0  0  0  0  0
   -2.2139    3.8702    8.8637 C   0  0  0  0  0  0  0  0  0  0  0  0
   -1.4107    4.7989    8.1622 C   0  0  0  0  0  0  0  0  0  0  0  0
   -1.2694    6.1926    8.6341 N   0  0  0  0  0  0  0  0  0  0  0  0
   -1.7135    6.4742    9.7403 O   0  0  0  0  0  0  0  0  0  0  0  0
   -0.7347    7.0157    7.8951 O   0  0  0  0  0  0  0  0  0  0  0  0
   -0.7651    4.3461    6.9909 C   0  0  0  0  0  0  0  0  0  0  0  0
    0.0465    5.0887    6.1796 O   0  0  0  0  0  0  0  0  0  0  0  0
    0.7372    4.2076    5.2834 C   0  0  2  0  0  0  0  0  0  0  0  0
    0.9197    4.8648    3.8915 C   0  0  0  0  0  0  0  0  0  0  0  0
    2.2108    4.2260    3.3082 C   0  0  1  0  0  0  0  0  0  0  0  0
    3.1393    5.2038    2.8846 O   0  0  0  0  0  0  0  0  0  0  0  0
    2.7578    3.3278    4.4552 C   0  0  1  0  0  0  0  0  0  0  0  0
    2.2105    4.0606    5.7411 C   0  0  0  0  0  0  0  0  0  0  0  0
    2.9227    5.4432    5.9382 C   0  0  0  0  0  0  0  0  0  0  0  0
    2.4201    3.4466    7.1575 C   0  0  0  0  0  0  0  0  0  0  0  0
    1.0019    1.9796    1.4436 H   0  0  0  0  0  0  0  0  0  0  0  0
   -0.0525    2.8828    2.5188 H   0  0  0  0  0  0  0  0  0  0  0  0
   -0.5214    1.3211    1.9981 H   0  0  0  0  0  0  0  0  0  0  0  0
    1.8042   -0.8841    3.5603 H   0  0  0  0  0  0  0  0  0  0  0  0
    1.6223   -0.2312    1.9849 H   0  0  0  0  0  0  0  0  0  0  0  0
    0.2008   -0.6852    2.9108 H   0  0  0  0  0  0  0  0  0  0  0  0
    3.2194    1.2785    3.8222 H   0  0  0  0  0  0  0  0  0  0  0  0
    1.9563   -0.0686    5.3866 H   0  0  0  0  0  0  0  0  0  0  0  0
    2.0905    1.2284    6.4433 H   0  0  0  0  0  0  0  0  0  0  0  0
   -0.3091    0.6900    5.0895 H   0  0  0  0  0  0  0  0  0  0  0  0
   -0.9522    3.0685    4.5331 H   0  0  0  0  0  0  0  0  0  0  0  0
   -1.8281    1.0963    6.8697 H   0  0  0  0  0  0  0  0  0  0  0  0
   -2.9755    1.8578    8.9812 H   0  0  0  0  0  0  0  0  0  0  0  0
   -2.7360    4.1746    9.7585 H   0  0  0  0  0  0  0  0  0  0  0  0
    0.0458    4.7960    3.2491 H   0  0  0  0  0  0  0  0  0  0  0  0
    1.0595    5.9377    4.0102 H   0  0  0  0  0  0  0  0  0  0  0  0
    2.0440    3.6735    2.3954 H   0  0  0  0  0  0  0  0  0  0  0  0
    3.7766    4.7897    2.3163 H   0  0  0  0  0  0  0  0  0  0  0  0
    3.8471    3.3810    4.4692 H   0  0  0  0  0  0  0  0  0  0  0  0
    3.9799    5.3001    6.1767 H   0  0  0  0  0  0  0  0  0  0  0  0
    2.4736    6.0083    6.7588 H   0  0  0  0  0  0  0  0  0  0  0  0
    2.8959    6.1296    5.0967 H   0  0  0  0  0  0  0  0  0  0  0  0
    3.3348    2.8543    7.2043 H   0  0  0  0  0  0  0  0  0  0  0  0
    1.5763    2.8624    7.5107 H   0  0  0  0  0  0  0  0  0  0  0  0
    2.5201    4.2013    7.9388 H   0  0  0  0  0  0  0  0  0  0  0  0
  1  2  1  0
  1 26  1  0
  1 27  1  0
  1 28  1  0
  2  6  1  0
  2  3  1  0
  2  4  1  0
  3 29  1  0
  3 30  1  0
  3 31  1  0
  4 22  1  0
  4  5  1  0
  4 32  1  6
  5  6  1  0
  5 33  1  0
  5 34  1  0
  6  7  1  0
  6 35  1  1
  7 18  1  0
  7  8  1  0
  7 36  1  6
  8 16  2  0
  8  9  1  0
  9 10  2  0
  9 37  1  0
 10 11  1  0
 10 38  1  0
 11 12  2  0
 11 39  1  0
 12 13  1  0
 12 16  1  0
 13 14  2  0
 13 15  1  0
 16 17  1  0
 18 17  1  1
 18 23  1  0
 18 19  1  0
 19 20  1  0
 19 40  1  0
 19 41  1  0
 20 21  1  0
 20 22  1  0
 20 42  1  6
 21 43  1  0
 22 23  1  0
 22 44  1  1
 23 24  1  0
 23 25  1  0
 24 45  1  0
 24 46  1  0
 24 47  1  0
 25 48  1  0
 25 49  1  0
 25 50  1  0
M  CHG  2  13   1  15  -1
M  END
>  <i_m_ct_stereo_status>  (74) 
1

>  <s_m_source_file>  (74) 
/var/tmp/pbs.5076255.sched01/tmpvsf1hu0j/0g1dnczxv.sdf

>  <i_m_source_file_index>  (74) 
31

>  <i_lp_mmshare_version>  (74) 
48012

>  <i_f3d_flags>  (74) 
0

>  <s_epik_input>  (74) 
W0NIMl0xW0NAQEhdKFtPSF0pW0NAQEhdKEMyKFtDSDNdKVtDSDNdKVtDQEBIXShbQ0gyXTMpQyhbQ0gzXSkoW0NIM10pW0NAQEhdM1tDQEhdKFtDQF0xMjQpYzVjKE80KWMoW04rXSg9TylbTy1dKVtjSF1bY0hdW2NIXTU=

>  <s_epik_cmdline>  (74) 
J2VwaWtfcHl0aG9uJywgJy1waHQnLCAnMi4wJywgJy1waCcsICc3LjAnLCAnLXRuJywgJzgnLCAnLW1hJywgJzIwMCcsICctaW1hZScsICc8aW5maWxlLm1hZT4nLCAnLW9tYWUnLCAnPG91dGZpbGUubWFlPic=

>  <r_lp_tautomer_probability>  (74) 
1

>  <r_epik_Ionization_Penalty>  (74) 
1.97946e-07

>  <r_epik_Ionization_Penalty_Charging>  (74) 
0

>  <r_epik_Ionization_Penalty_Neutral>  (74) 
1.97946e-07

>  <r_epik_State_Penalty>  (74) 
-0

>  <r_epik_Charging_Adjusted_Penalty>  (74) 
0

>  <i_epik_Tot_Q>  (74) 
0

>  <i_epik_Tot_abs_Q>  (74) 
2

>  <s_lp_Force_Field>  (74) 
OPLS3e

>  <r_lp_Energy>  (74) 
97.7854

>  <b_lp_Chiralities_Consistent>  (74) 
1

>  <s_lp_Variant>  (74) 
25:0-1

>  <s_i_glide_gridfile>  (74) 
pfpi4k_grid

>  <i_i_glide_lignum>  (74) 
31

>  <i_i_glide_rotatable_bonds>  (74) 
2

>  <r_i_docking_score>  (74) 
-2.34041

>  <r_i_glide_ligand_efficiency>  (74) 
-0.0936163

>  <r_i_glide_ligand_efficiency_sa>  (74) 
-0.273736

>  <r_i_glide_ligand_efficiency_ln>  (74) 
-0.554747

>  <r_i_glide_gscore>  (74) 
-2.34041

>  <r_i_glide_lipo>  (74) 
-0.00204517

>  <r_i_glide_hbond>  (74) 
0

>  <r_i_glide_metal>  (74) 
-0

>  <r_i_glide_rewards>  (74) 
-1.06761

>  <r_i_glide_evdw>  (74) 
-18.5584

>  <r_i_glide_ecoul>  (74) 
-2.16892

>  <r_i_glide_erotb>  (74) 
0

>  <r_i_glide_esite>  (74) 
-0.0174922

>  <r_i_glide_emodel>  (74) 
-23.8092

>  <r_i_glide_energy>  (74) 
-20.7273

>  <r_i_glide_einternal>  (74) 
0.602281

>  <r_i_glide_intrahb_reward>  (74) 
-0

>  <i_i_glide_confnum>  (74) 
1

>  <i_i_glide_posenum>  (74) 
39

>  <r_i_glide_eff_state_penalty>  (74) 
0

>  <ligand_id>  (74) 
25

>  <original_smiles>  (74) 
CC1(C)C2CC1C1c3cccc([N+](=O)[O-])c3OC13CC(O)C2C3(C)C

>  <smiles>  (74) 
[H]OC1([H])C([H])([H])C23Oc4c([N+](=O)[O-])c([H])c([H])c([H])c4C2([H])C2([H])C([H])([H])C([H])(C1([H])C3(C([H])([H])[H])C([H])([H])[H])C2(C([H])([H])[H])C([H])([H])[H]

$$$$
25:0:2
     RDKit          3D

 50 54  0  0  1  0  0  0  0  0999 V2000
   -0.4268    1.8414    2.6625 C   0  0  0  0  0  0  0  0  0  0  0  0
    0.3707    1.2255    3.8357 C   0  0  0  0  0  0  0  0  0  0  0  0
    0.4178   -0.2558    3.3545 C   0  0  0  0  0  0  0  0  0  0  0  0
    1.7331    1.7859    4.4332 C   0  0  2  0  0  0  0  0  0  0  0  0
    1.2516    1.0425    5.6948 C   0  0  0  0  0  0  0  0  0  0  0  0
   -0.1489    1.5143    5.2739 C   0  0  1  0  0  0  0  0  0  0  0  0
   -0.6842    2.9557    5.5923 C   0  0  1  0  0  0  0  0  0  0  0  0
   -1.3317    3.1719    6.9265 C   0  0  0  0  0  0  0  0  0  0  0  0
   -2.0934    2.2885    7.7128 C   0  0  0  0  0  0  0  0  0  0  0  0
   -2.6416    2.7794    8.9192 C   0  0  0  0  0  0  0  0  0  0  0  0
   -2.4356    4.1239    9.3032 C   0  0  0  0  0  0  0  0  0  0  0  0
   -1.6725    5.0050    8.5029 C   0  0  0  0  0  0  0  0  0  0  0  0
   -1.4749    6.4137    8.8990 N   0  0  0  0  0  0  0  0  0  0  0  0
   -1.8265    6.7510   10.0226 O   0  0  0  0  0  0  0  0  0  0  0  0
   -0.9847    7.1929    8.0854 O   0  0  0  0  0  0  0  0  0  0  0  0
   -1.1204    4.4877    7.3109 C   0  0  0  0  0  0  0  0  0  0  0  0
   -0.3684    5.1822    6.4046 O   0  0  0  0  0  0  0  0  0  0  0  0
    0.2291    4.2534    5.4926 C   0  0  2  0  0  0  0  0  0  0  0  0
    0.3100    4.8485    4.0624 C   0  0  0  0  0  0  0  0  0  0  0  0
    1.5457    4.1614    3.4144 C   0  0  1  0  0  0  0  0  0  0  0  0
    2.4501    5.1070    2.8842 O   0  0  0  0  0  0  0  0  0  0  0  0
    2.1664    3.3041    4.5514 C   0  0  1  0  0  0  0  0  0  0  0  0
    1.7321    4.1002    5.8403 C   0  0  0  0  0  0  0  0  0  0  0  0
    2.4795    5.4761    5.9211 C   0  0  0  0  0  0  0  0  0  0  0  0
    2.0441    3.5404    7.2597 C   0  0  0  0  0  0  0  0  0  0  0  0
    0.1539    1.8684    1.7359 H   0  0  0  0  0  0  0  0  0  0  0  0
   -0.7950    2.8391    2.8489 H   0  0  0  0  0  0  0  0  0  0  0  0
   -1.3309    1.2654    2.4416 H   0  0  0  0  0  0  0  0  0  0  0  0
    1.0755   -0.9187    3.9101 H   0  0  0  0  0  0  0  0  0  0  0  0
    0.7804   -0.3309    2.3276 H   0  0  0  0  0  0  0  0  0  0  0  0
   -0.5722   -0.7085    3.3888 H   0  0  0  0  0  0  0  0  0  0  0  0
    2.5420    1.2249    3.9668 H   0  0  0  0  0  0  0  0  0  0  0  0
    1.3867   -0.0336    5.6810 H   0  0  0  0  0  0  0  0  0  0  0  0
    1.6226    1.3024    6.6671 H   0  0  0  0  0  0  0  0  0  0  0  0
   -0.8843    0.7541    5.5292 H   0  0  0  0  0  0  0  0  0  0  0  0
   -1.5323    3.1177    4.9289 H   0  0  0  0  0  0  0  0  0  0  0  0
   -2.2599    1.2650    7.4061 H   0  0  0  0  0  0  0  0  0  0  0  0
   -3.2332    2.1426    9.5628 H   0  0  0  0  0  0  0  0  0  0  0  0
   -2.8841    4.4745   10.2216 H   0  0  0  0  0  0  0  0  0  0  0  0
   -0.6106    4.7722    3.4878 H   0  0  0  0  0  0  0  0  0  0  0  0
    0.4748    5.9231    4.1295 H   0  0  0  0  0  0  0  0  0  0  0  0
    1.3182    3.5634    2.5424 H   0  0  0  0  0  0  0  0  0  0  0  0
    2.0378    5.4806    2.1185 H   0  0  0  0  0  0  0  0  0  0  0  0
    3.2532    3.3416    4.4692 H   0  0  0  0  0  0  0  0  0  0  0  0
    3.5499    5.3220    6.0800 H   0  0  0  0  0  0  0  0  0  0  0  0
    2.1070    6.0833    6.7492 H   0  0  0  0  0  0  0  0  0  0  0  0
    2.3982    6.1281    5.0562 H   0  0  0  0  0  0  0  0  0  0  0  0
    2.9500    2.9332    7.2584 H   0  0  0  0  0  0  0  0  0  0  0  0
    1.2226    2.9870    7.7025 H   0  0  0  0  0  0  0  0  0  0  0  0
    2.2176    4.3241    7.9973 H   0  0  0  0  0  0  0  0  0  0  0  0
  1  2  1  0
  1 26  1  0
  1 27  1  0
  1 28  1  0
  2  6  1  0
  2  3  1  0
  2  4  1  0
  3 29  1  0
  3 30  1  0
  3 31  1  0
  4 22  1  0
  4  5  1  0
  4 32  1  6
  5  6  1  0
  5 33  1  0
  5 34  1  0
  6  7  1  0
  6 35  1  1
  7 18  1  0
  7  8  1  0
  7 36  1  6
  8 16  2  0
  8  9  1  0
  9 10  2  0
  9 37  1  0
 10 11  1  0
 10 38  1  0
 11 12  2  0
 11 39  1  0
 12 13  1  0
 12 16  1  0
 13 14  2  0
 13 15  1  0
 16 17  1  0
 18 17  1  1
 18 23  1  0
 18 19  1  0
 19 20  1  0
 19 40  1  0
 19 41  1  0
 20 21  1  0
 20 22  1  0
 20 42  1  6
 21 43  1  0
 22 23  1  0
 22 44  1  6
 23 24  1  0
 23 25  1  0
 24 45  1  0
 24 46  1  0
 24 47  1  0
 25 48  1  0
 25 49  1  0
 25 50  1  0
M  CHG  2  13   1  15  -1
M  END
>  <i_m_ct_stereo_status>  (75) 
1

>  <s_m_source_file>  (75) 
/var/tmp/pbs.5076255.sched01/tmpvsf1hu0j/0g1dnczxv.sdf

>  <i_m_source_file_index>  (75) 
31

>  <i_lp_mmshare_version>  (75) 
48012

>  <i_f3d_flags>  (75) 
0

>  <s_epik_input>  (75) 
W0NIMl0xW0NAQEhdKFtPSF0pW0NAQEhdKEMyKFtDSDNdKVtDSDNdKVtDQEBIXShbQ0gyXTMpQyhbQ0gzXSkoW0NIM10pW0NAQEhdM1tDQEhdKFtDQF0xMjQpYzVjKE80KWMoW04rXSg9TylbTy1dKVtjSF1bY0hdW2NIXTU=

>  <s_epik_cmdline>  (75) 
J2VwaWtfcHl0aG9uJywgJy1waHQnLCAnMi4wJywgJy1waCcsICc3LjAnLCAnLXRuJywgJzgnLCAnLW1hJywgJzIwMCcsICctaW1hZScsICc8aW5maWxlLm1hZT4nLCAnLW9tYWUnLCAnPG91dGZpbGUubWFlPic=

>  <r_lp_tautomer_probability>  (75) 
1

>  <r_epik_Ionization_Penalty>  (75) 
1.97946e-07

>  <r_epik_Ionization_Penalty_Charging>  (75) 
0

>  <r_epik_Ionization_Penalty_Neutral>  (75) 
1.97946e-07

>  <r_epik_State_Penalty>  (75) 
-0

>  <r_epik_Charging_Adjusted_Penalty>  (75) 
0

>  <i_epik_Tot_Q>  (75) 
0

>  <i_epik_Tot_abs_Q>  (75) 
2

>  <s_lp_Force_Field>  (75) 
OPLS3e

>  <r_lp_Energy>  (75) 
97.7854

>  <b_lp_Chiralities_Consistent>  (75) 
1

>  <s_lp_Variant>  (75) 
25:0-1

>  <s_i_glide_gridfile>  (75) 
pfpi4k_grid

>  <i_i_glide_lignum>  (75) 
31

>  <i_i_glide_rotatable_bonds>  (75) 
2

>  <r_i_docking_score>  (75) 
-2.23666

>  <r_i_glide_ligand_efficiency>  (75) 
-0.0894664

>  <r_i_glide_ligand_efficiency_sa>  (75) 
-0.261601

>  <r_i_glide_ligand_efficiency_ln>  (75) 
-0.530155

>  <r_i_glide_gscore>  (75) 
-2.23666

>  <r_i_glide_lipo>  (75) 
-0.0254183

>  <r_i_glide_hbond>  (75) 
0

>  <r_i_glide_metal>  (75) 
-0

>  <r_i_glide_rewards>  (75) 
-1.06761

>  <r_i_glide_evdw>  (75) 
-19.1877

>  <r_i_glide_ecoul>  (75) 
-1.1335

>  <r_i_glide_erotb>  (75) 
0

>  <r_i_glide_esite>  (75) 
-0.0142171

>  <r_i_glide_emodel>  (75) 
-23.3592

>  <r_i_glide_energy>  (75) 
-20.3212

>  <r_i_glide_einternal>  (75) 
0.436125

>  <r_i_glide_intrahb_reward>  (75) 
-0

>  <i_i_glide_confnum>  (75) 
1

>  <i_i_glide_posenum>  (75) 
38

>  <r_i_glide_eff_state_penalty>  (75) 
0

>  <ligand_id>  (75) 
25

>  <original_smiles>  (75) 
CC1(C)C2CC1C1c3cccc([N+](=O)[O-])c3OC13CC(O)C2C3(C)C

>  <smiles>  (75) 
[H]OC1([H])C([H])([H])C23Oc4c([N+](=O)[O-])c([H])c([H])c([H])c4C2([H])C2([H])C([H])([H])C([H])(C1([H])C3(C([H])([H])[H])C([H])([H])[H])C2(C([H])([H])[H])C([H])([H])[H]

$$$$
27:0:0
     RDKit          3D

 63 68  0  0  1  0  0  0  0  0999 V2000
    5.3666   -3.5990   -2.7819 C   0  0  0  0  0  0  0  0  0  0  0  0
    5.7828   -3.5316   -1.4254 O   0  0  0  0  0  0  0  0  0  0  0  0
    5.1145   -4.4622   -0.5749 C   0  0  2  0  0  0  0  0  0  0  0  0
    3.5988   -4.1171   -0.5837 C   0  0  0  0  0  0  0  0  0  0  0  0
    2.8499   -4.9092    0.5324 C   0  0  0  0  0  0  0  0  0  0  0  0
    3.4474   -4.7093    1.9465 C   0  0  2  0  0  0  0  0  0  0  0  0
    4.9457   -5.1560    1.8703 C   0  0  0  0  0  0  0  0  0  0  0  0
    5.7374   -4.3045    0.8288 C   0  0  0  0  0  0  0  0  0  0  0  0
    2.6724   -5.6185    2.9842 C   0  0  0  0  0  0  0  0  0  0  0  0
    1.8296   -4.6765    3.8112 C   0  0  0  0  0  0  0  0  0  0  0  0
    0.8506   -5.0011    4.7568 C   0  0  0  0  0  0  0  0  0  0  0  0
    0.1554   -3.9388    5.3866 C   0  0  0  0  0  0  0  0  0  0  0  0
    0.4264   -2.5874    5.0380 C   0  0  0  0  0  0  0  0  0  0  0  0
   -0.3219   -1.5012    5.6450 C   0  0  0  0  0  0  0  0  0  0  0  0
   -0.8697   -0.5565    6.1523 C   0  0  0  0  0  0  0  0  0  0  0  0
   -1.4879    0.5609    6.8170 C   0  0  0  0  0  0  0  0  0  0  0  0
   -0.7478    1.8586    6.9697 C   0  0  0  0  0  0  0  0  0  0  0  0
   -1.0185    0.9976    8.1827 C   0  0  0  0  0  0  0  0  0  0  0  0
    1.4242   -2.2860    4.1001 C   0  0  0  0  0  0  0  0  0  0  0  0
    2.1276   -3.3514    3.5112 C   0  0  0  0  0  0  0  0  0  0  0  0
    3.1956   -3.2411    2.4785 C   0  0  2  0  0  0  0  0  0  0  0  0
    2.8307   -2.1869    1.5036 N   0  0  0  0  0  0  0  0  0  0  0  0
    3.5339   -1.1228    1.6436 C   0  0  0  0  0  0  0  0  0  0  0  0
    3.3163    0.0068    0.9234 N   0  0  0  0  0  0  0  0  0  0  0  0
    4.5269   -1.2630    2.5625 N   0  0  0  0  0  0  0  0  0  0  0  0
    5.6794   -0.4045    2.7808 C   0  0  0  0  0  0  0  0  0  0  0  0
    5.5112    0.3758    4.0484 C   0  0  0  0  0  0  0  0  0  0  0  0
    6.7052    0.7460    4.8828 C   0  0  0  0  0  0  0  0  0  0  0  0
    5.7185   -0.2758    5.3979 C   0  0  0  0  0  0  0  0  0  0  0  0
    4.3925   -2.5629    3.1173 C   0  0  0  0  0  0  0  0  0  0  0  0
    5.1240   -3.0445    4.0068 O   0  0  0  0  0  0  0  0  0  0  0  0
    6.0034   -2.9679   -3.4026 H   0  0  0  0  0  0  0  0  0  0  0  0
    4.3428   -3.2482   -2.9177 H   0  0  0  0  0  0  0  0  0  0  0  0
    5.4101   -4.6337   -3.1198 H   0  0  0  0  0  0  0  0  0  0  0  0
    5.2850   -5.4903   -0.9147 H   0  0  0  0  0  0  0  0  0  0  0  0
    3.5089   -3.0373   -0.4888 H   0  0  0  0  0  0  0  0  0  0  0  0
    3.0958   -4.2750   -1.5379 H   0  0  0  0  0  0  0  0  0  0  0  0
    1.7996   -4.6427    0.5114 H   0  0  0  0  0  0  0  0  0  0  0  0
    2.8484   -5.9651    0.2679 H   0  0  0  0  0  0  0  0  0  0  0  0
    5.4413   -5.1686    2.8382 H   0  0  0  0  0  0  0  0  0  0  0  0
    4.9560   -6.1875    1.5206 H   0  0  0  0  0  0  0  0  0  0  0  0
    6.7851   -4.6128    0.8305 H   0  0  0  0  0  0  0  0  0  0  0  0
    5.7396   -3.2452    1.0867 H   0  0  0  0  0  0  0  0  0  0  0  0
    2.0816   -6.4055    2.5069 H   0  0  0  0  0  0  0  0  0  0  0  0
    3.3753   -6.1138    3.6419 H   0  0  0  0  0  0  0  0  0  0  0  0
    0.6289   -6.0374    4.9860 H   0  0  0  0  0  0  0  0  0  0  0  0
   -0.6017   -4.1457    6.1084 H   0  0  0  0  0  0  0  0  0  0  0  0
   -2.5538    0.5834    6.5859 H   0  0  0  0  0  0  0  0  0  0  0  0
    0.2767    1.9061    6.5931 H   0  0  0  0  0  0  0  0  0  0  0  0
   -1.3259    2.7719    6.8595 H   0  0  0  0  0  0  0  0  0  0  0  0
   -1.7700    1.3519    8.8851 H   0  0  0  0  0  0  0  0  0  0  0  0
   -0.1728    0.4727    8.6349 H   0  0  0  0  0  0  0  0  0  0  0  0
    1.6485   -1.2778    3.7941 H   0  0  0  0  0  0  0  0  0  0  0  0
    2.5000    0.0393    0.3114 H   0  0  0  0  0  0  0  0  0  0  0  0
    2.1970   -2.3758    0.7002 H   0  0  0  0  0  0  0  0  0  0  0  0
    5.8148    0.2388    1.9106 H   0  0  0  0  0  0  0  0  0  0  0  0
    6.5855   -1.0186    2.8199 H   0  0  0  0  0  0  0  0  0  0  0  0
    4.7012    1.1035    3.9949 H   0  0  0  0  0  0  0  0  0  0  0  0
    7.6794    0.3930    4.5446 H   0  0  0  0  0  0  0  0  0  0  0  0
    6.6975    1.7076    5.3772 H   0  0  0  0  0  0  0  0  0  0  0  0
    5.0484    0.0189    6.1994 H   0  0  0  0  0  0  0  0  0  0  0  0
    6.0510   -1.3108    5.4374 H   0  0  0  0  0  0  0  0  0  0  0  0
    3.8496    0.8332    1.1285 H   0  0  0  0  0  0  0  0  0  0  0  0
  1  2  1  0
  1 32  1  0
  1 33  1  0
  1 34  1  0
  2  3  1  0
  3  8  1  0
  3  4  1  0
  3 35  1  6
  4  5  1  0
  4 36  1  0
  4 37  1  0
  6  5  1  6
  5 38  1  0
  5 39  1  0
  6  7  1  0
  6  9  1  0
  6 21  1  0
  7  8  1  0
  7 40  1  0
  7 41  1  0
  8 42  1  0
  8 43  1  0
  9 10  1  0
  9 44  1  0
  9 45  1  0
 10 20  2  0
 10 11  1  0
 11 12  2  0
 11 46  1  0
 12 13  1  0
 12 47  1  0
 13 14  1  0
 13 19  2  0
 14 15  3  0
 15 16  1  0
 16 18  1  0
 16 17  1  0
 16 48  1  0
 17 18  1  0
 17 49  1  0
 17 50  1  0
 18 51  1  0
 18 52  1  0
 19 20  1  0
 19 53  1  0
 20 21  1  0
 21 22  1  0
 21 30  1  1
 22 23  2  0
 22 55  1  0
 23 25  1  0
 23 24  1  0
 24 54  1  0
 24 63  1  0
 25 30  1  0
 25 26  1  0
 26 27  1  0
 26 56  1  0
 26 57  1  0
 27 29  1  0
 27 28  1  0
 27 58  1  0
 28 29  1  0
 28 59  1  0
 28 60  1  0
 29 61  1  0
 29 62  1  0
 30 31  2  0
M  CHG  1  22   1
M  END
>  <i_m_ct_stereo_status>  (76) 
1

>  <s_m_source_file>  (76) 
/var/tmp/pbs.5076255.sched01/tmpvsf1hu0j/0g1dnczxv.sdf

>  <i_m_source_file_index>  (76) 
33

>  <i_lp_mmshare_version>  (76) 
48012

>  <i_f3d_flags>  (76) 
0

>  <s_epik_input>  (76) 
W0NIMl0xW0NIMl1bQ0hdMVtDSDJdTihDMj1PKUMoW05IMl0pPU5bQ0BdMihbQ0BAXTM0W0NIMl1bQ0gyXVtDQEBIXShPW0NIM10pW0NIMl1bQ0gyXTMpYzVjKFtDSDJdNClbY0hdW2NIXWMoW2NIXTUpQyNDW0NIXTZbQ0gyXVtDSDJdNg==

>  <s_epik_cmdline>  (76) 
J2VwaWtfcHl0aG9uJywgJy1waHQnLCAnMi4wJywgJy1waCcsICc3LjAnLCAnLXRuJywgJzgnLCAnLW1hJywgJzIwMCcsICctaW1hZScsICc8aW5maWxlLm1hZT4nLCAnLW9tYWUnLCAnPG91dGZpbGUubWFlPic=

>  <r_lp_tautomer_probability>  (76) 
1

>  <r_epik_Ionization_Penalty>  (76) 
0.27739

>  <r_epik_Ionization_Penalty_Charging>  (76) 
0.27739

>  <r_epik_Ionization_Penalty_Neutral>  (76) 
3.1729e-11

>  <r_epik_State_Penalty>  (76) 
0.00417153

>  <r_epik_Charging_Adjusted_Penalty>  (76) 
0.281562

>  <i_epik_Tot_Q>  (76) 
1

>  <i_epik_Tot_abs_Q>  (76) 
1

>  <s_epik_Chemistry_Notes>  (76) 
This compound has an imine and may undergo hydrolysis.

>  <s_lp_Force_Field>  (76) 
OPLS3e

>  <r_lp_Energy>  (76) 
28.1232

>  <b_lp_Chiralities_Consistent>  (76) 
1

>  <s_lp_Variant>  (76) 
27:0-1

>  <s_i_glide_gridfile>  (76) 
pfpi4k_grid

>  <i_i_glide_lignum>  (76) 
33

>  <i_i_glide_rotatable_bonds>  (76) 
5

>  <r_i_docking_score>  (76) 
-2.37462

>  <r_i_glide_ligand_efficiency>  (76) 
-0.0766007

>  <r_i_glide_ligand_efficiency_sa>  (76) 
-0.240632

>  <r_i_glide_ligand_efficiency_ln>  (76) 
-0.53555

>  <r_i_glide_gscore>  (76) 
-2.37462

>  <r_i_glide_lipo>  (76) 
-0.756161

>  <r_i_glide_hbond>  (76) 
-0.0558606

>  <r_i_glide_metal>  (76) 
-0

>  <r_i_glide_rewards>  (76) 
-0.643257

>  <r_i_glide_evdw>  (76) 
-21.1812

>  <r_i_glide_ecoul>  (76) 
-1.78626

>  <r_i_glide_erotb>  (76) 
0.451529

>  <r_i_glide_esite>  (76) 
-0.0438696

>  <r_i_glide_emodel>  (76) 
-24.6515

>  <r_i_glide_energy>  (76) 
-22.9675

>  <r_i_glide_einternal>  (76) 
1.85905

>  <r_i_glide_intrahb_reward>  (76) 
-0

>  <i_i_glide_confnum>  (76) 
6

>  <i_i_glide_posenum>  (76) 
3

>  <r_i_glide_eff_state_penalty>  (76) 
0

>  <ligand_id>  (76) 
27

>  <original_smiles>  (76) 
COC1CCC2(CC1)Cc1ccc(C#CC3CC3)cc1C21N=C(N)N(CC2CC2)C1=O

>  <smiles>  (76) 
[H]c1c([H])c2c(c([H])c1C#CC1([H])C([H])([H])C1([H])[H])C1(C(=O)N(C([H])([H])C3([H])C([H])([H])C3([H])[H])C(N([H])[H])=[N+]1[H])C1(C2([H])[H])C([H])([H])C([H])([H])C([H])(OC([H])([H])[H])C([H])([H])C1([H])[H]

$$$$
27:0:1
     RDKit          3D

 63 68  0  0  1  0  0  0  0  0999 V2000
    1.6925  -11.4375    4.2462 C   0  0  0  0  0  0  0  0  0  0  0  0
    0.6172  -11.0690    5.1403 O   0  0  0  0  0  0  0  0  0  0  0  0
    0.3817   -9.6760    5.4304 C   0  0  2  0  0  0  0  0  0  0  0  0
   -0.2791   -9.0103    4.1866 C   0  0  0  0  0  0  0  0  0  0  0  0
   -0.2747   -7.4453    4.3188 C   0  0  0  0  0  0  0  0  0  0  0  0
    1.0935   -6.8227    4.7088 C   0  0  2  0  0  0  0  0  0  0  0  0
    1.5226   -7.4762    6.0732 C   0  0  0  0  0  0  0  0  0  0  0  0
    1.6852   -9.0067    5.9208 C   0  0  0  0  0  0  0  0  0  0  0  0
    0.9336   -5.2586    4.9201 C   0  0  0  0  0  0  0  0  0  0  0  0
    1.5935   -4.6051    3.7359 C   0  0  0  0  0  0  0  0  0  0  0  0
    1.5764   -3.2378    3.3830 C   0  0  0  0  0  0  0  0  0  0  0  0
    2.2302   -2.8534    2.1952 C   0  0  0  0  0  0  0  0  0  0  0  0
    2.8871   -3.8129    1.3766 C   0  0  0  0  0  0  0  0  0  0  0  0
    3.5689   -3.4241    0.1881 C   0  0  0  0  0  0  0  0  0  0  0  0
    4.1817   -3.1269   -0.8468 C   0  0  0  0  0  0  0  0  0  0  0  0
    4.8617   -2.7805   -2.0391 C   0  0  0  0  0  0  0  0  0  0  0  0
    4.1736   -2.9025   -3.3760 C   0  0  0  0  0  0  0  0  0  0  0  0
    5.2885   -3.8534   -3.0030 C   0  0  0  0  0  0  0  0  0  0  0  0
    2.8845   -5.1841    1.7549 C   0  0  0  0  0  0  0  0  0  0  0  0
    2.2575   -5.5365    2.9534 C   0  0  0  0  0  0  0  0  0  0  0  0
    2.1557   -6.9265    3.5117 C   0  0  2  0  0  0  0  0  0  0  0  0
    1.8490   -7.8658    2.4183 N   0  0  0  0  0  0  0  0  0  0  0  0
    2.9402   -8.6106    2.1225 C   0  0  0  0  0  0  0  0  0  0  0  0
    2.9080   -9.4612    1.0960 N   0  0  0  0  0  0  0  0  0  0  0  0
    3.9304   -8.4012    2.9603 N   0  0  0  0  0  0  0  0  0  0  0  0
    5.1290   -9.2464    3.1554 C   0  0  0  0  0  0  0  0  0  0  0  0
    6.3595   -8.4414    2.9201 C   0  0  0  0  0  0  0  0  0  0  0  0
    7.0968   -8.5726    1.6224 C   0  0  0  0  0  0  0  0  0  0  0  0
    7.6940   -9.0980    2.9080 C   0  0  0  0  0  0  0  0  0  0  0  0
    3.5744   -7.3719    3.9005 C   0  0  0  0  0  0  0  0  0  0  0  0
    4.3096   -6.8872    4.7519 O   0  0  0  0  0  0  0  0  0  0  0  0
    1.6385  -12.5142    4.0631 H   0  0  0  0  0  0  0  0  0  0  0  0
    2.6778  -11.2471    4.6786 H   0  0  0  0  0  0  0  0  0  0  0  0
    1.6464  -10.9440    3.2714 H   0  0  0  0  0  0  0  0  0  0  0  0
   -0.3390   -9.6209    6.2501 H   0  0  0  0  0  0  0  0  0  0  0  0
    0.2689   -9.2906    3.2720 H   0  0  0  0  0  0  0  0  0  0  0  0
   -1.2935   -9.3946    4.0275 H   0  0  0  0  0  0  0  0  0  0  0  0
   -0.6703   -7.0165    3.3985 H   0  0  0  0  0  0  0  0  0  0  0  0
   -1.0214   -7.1843    5.0556 H   0  0  0  0  0  0  0  0  0  0  0  0
    2.4178   -7.0334    6.5097 H   0  0  0  0  0  0  0  0  0  0  0  0
    0.7180   -7.2914    6.7907 H   0  0  0  0  0  0  0  0  0  0  0  0
    2.0329   -9.4586    6.8592 H   0  0  0  0  0  0  0  0  0  0  0  0
    2.4914   -9.1718    5.2136 H   0  0  0  0  0  0  0  0  0  0  0  0
   -0.1116   -4.9680    5.0479 H   0  0  0  0  0  0  0  0  0  0  0  0
    1.4548   -4.9648    5.8157 H   0  0  0  0  0  0  0  0  0  0  0  0
    1.0554   -2.5249    4.0113 H   0  0  0  0  0  0  0  0  0  0  0  0
    2.2369   -1.8289    1.8845 H   0  0  0  0  0  0  0  0  0  0  0  0
    5.5371   -1.9396   -1.8597 H   0  0  0  0  0  0  0  0  0  0  0  0
    3.1536   -3.2982   -3.3911 H   0  0  0  0  0  0  0  0  0  0  0  0
    4.3915   -2.1433   -4.1180 H   0  0  0  0  0  0  0  0  0  0  0  0
    6.2416   -3.7236   -3.5015 H   0  0  0  0  0  0  0  0  0  0  0  0
    5.0119   -4.8849   -2.7655 H   0  0  0  0  0  0  0  0  0  0  0  0
    3.3442   -5.9325    1.1439 H   0  0  0  0  0  0  0  0  0  0  0  0
    2.0939   -9.5822    0.5075 H   0  0  0  0  0  0  0  0  0  0  0  0
    0.9348   -8.0400    2.0595 H   0  0  0  0  0  0  0  0  0  0  0  0
    5.0723  -10.1234    2.5000 H   0  0  0  0  0  0  0  0  0  0  0  0
    5.1145   -9.6348    4.1725 H   0  0  0  0  0  0  0  0  0  0  0  0
    6.3363   -7.4335    3.3486 H   0  0  0  0  0  0  0  0  0  0  0  0
    6.7308   -9.3050    0.8991 H   0  0  0  0  0  0  0  0  0  0  0  0
    7.5361   -7.6702    1.2104 H   0  0  0  0  0  0  0  0  0  0  0  0
    8.5157   -8.5378    3.3357 H   0  0  0  0  0  0  0  0  0  0  0  0
    7.7143  -10.1791    3.0565 H   0  0  0  0  0  0  0  0  0  0  0  0
    3.7326  -10.0825    0.9254 H   0  0  0  0  0  0  0  0  0  0  0  0
  1  2  1  0
  1 32  1  0
  1 33  1  0
  1 34  1  0
  2  3  1  0
  3  8  1  0
  3  4  1  0
  3 35  1  1
  4  5  1  0
  4 36  1  0
  4 37  1  0
  6  5  1  6
  5 38  1  0
  5 39  1  0
  6  7  1  0
  6  9  1  0
  6 21  1  0
  7  8  1  0
  7 40  1  0
  7 41  1  0
  8 42  1  0
  8 43  1  0
  9 10  1  0
  9 44  1  0
  9 45  1  0
 10 20  2  0
 10 11  1  0
 11 12  2  0
 11 46  1  0
 12 13  1  0
 12 47  1  0
 13 14  1  0
 13 19  2  0
 14 15  3  0
 15 16  1  0
 16 18  1  0
 16 17  1  0
 16 48  1  0
 17 18  1  0
 17 49  1  0
 17 50  1  0
 18 51  1  0
 18 52  1  0
 19 20  1  0
 19 53  1  0
 20 21  1  0
 21 22  1  0
 21 30  1  1
 22 23  2  0
 22 55  1  0
 23 25  1  0
 23 24  1  0
 24 54  1  0
 24 63  1  0
 25 30  1  0
 25 26  1  0
 26 27  1  0
 26 56  1  0
 26 57  1  0
 27 29  1  0
 27 28  1  0
 27 58  1  0
 28 29  1  0
 28 59  1  0
 28 60  1  0
 29 61  1  0
 29 62  1  0
 30 31  2  0
M  CHG  1  22   1
M  END
>  <i_m_ct_stereo_status>  (77) 
1

>  <s_m_source_file>  (77) 
/var/tmp/pbs.5076255.sched01/tmpvsf1hu0j/0g1dnczxv.sdf

>  <i_m_source_file_index>  (77) 
33

>  <i_lp_mmshare_version>  (77) 
48012

>  <i_f3d_flags>  (77) 
0

>  <s_epik_input>  (77) 
W0NIMl0xW0NIMl1bQ0hdMVtDSDJdTihDMj1PKUMoW05IMl0pPU5bQ0BdMihbQ0BAXTM0W0NIMl1bQ0gyXVtDQEBIXShPW0NIM10pW0NIMl1bQ0gyXTMpYzVjKFtDSDJdNClbY0hdW2NIXWMoW2NIXTUpQyNDW0NIXTZbQ0gyXVtDSDJdNg==

>  <s_epik_cmdline>  (77) 
J2VwaWtfcHl0aG9uJywgJy1waHQnLCAnMi4wJywgJy1waCcsICc3LjAnLCAnLXRuJywgJzgnLCAnLW1hJywgJzIwMCcsICctaW1hZScsICc8aW5maWxlLm1hZT4nLCAnLW9tYWUnLCAnPG91dGZpbGUubWFlPic=

>  <r_lp_tautomer_probability>  (77) 
1

>  <r_epik_Ionization_Penalty>  (77) 
0.27739

>  <r_epik_Ionization_Penalty_Charging>  (77) 
0.27739

>  <r_epik_Ionization_Penalty_Neutral>  (77) 
3.1729e-11

>  <r_epik_State_Penalty>  (77) 
0.00417153

>  <r_epik_Charging_Adjusted_Penalty>  (77) 
0.281562

>  <i_epik_Tot_Q>  (77) 
1

>  <i_epik_Tot_abs_Q>  (77) 
1

>  <s_epik_Chemistry_Notes>  (77) 
This compound has an imine and may undergo hydrolysis.

>  <s_lp_Force_Field>  (77) 
OPLS3e

>  <r_lp_Energy>  (77) 
28.1232

>  <b_lp_Chiralities_Consistent>  (77) 
1

>  <s_lp_Variant>  (77) 
27:0-1

>  <s_i_glide_gridfile>  (77) 
pfpi4k_grid

>  <i_i_glide_lignum>  (77) 
33

>  <i_i_glide_rotatable_bonds>  (77) 
5

>  <r_i_docking_score>  (77) 
-2.1585

>  <r_i_glide_ligand_efficiency>  (77) 
-0.0696289

>  <r_i_glide_ligand_efficiency_sa>  (77) 
-0.218731

>  <r_i_glide_ligand_efficiency_ln>  (77) 
-0.486807

>  <r_i_glide_gscore>  (77) 
-2.1585

>  <r_i_glide_lipo>  (77) 
-0.495919

>  <r_i_glide_hbond>  (77) 
-0.109789

>  <r_i_glide_metal>  (77) 
-0

>  <r_i_glide_rewards>  (77) 
-0.555333

>  <r_i_glide_evdw>  (77) 
-22.1341

>  <r_i_glide_ecoul>  (77) 
-1.86713

>  <r_i_glide_erotb>  (77) 
0.451529

>  <r_i_glide_esite>  (77) 
-0.0622067

>  <r_i_glide_emodel>  (77) 
-23.2768

>  <r_i_glide_energy>  (77) 
-24.0013

>  <r_i_glide_einternal>  (77) 
4.44536

>  <r_i_glide_intrahb_reward>  (77) 
-0

>  <i_i_glide_confnum>  (77) 
4

>  <i_i_glide_posenum>  (77) 
1

>  <r_i_glide_eff_state_penalty>  (77) 
0

>  <ligand_id>  (77) 
27

>  <original_smiles>  (77) 
COC1CCC2(CC1)Cc1ccc(C#CC3CC3)cc1C21N=C(N)N(CC2CC2)C1=O

>  <smiles>  (77) 
[H]c1c([H])c2c(c([H])c1C#CC1([H])C([H])([H])C1([H])[H])C1(C(=O)N(C([H])([H])C3([H])C([H])([H])C3([H])[H])C(N([H])[H])=[N+]1[H])C1(C2([H])[H])C([H])([H])C([H])([H])C([H])(OC([H])([H])[H])C([H])([H])C1([H])[H]

$$$$
27:0:2
     RDKit          3D

 63 68  0  0  1  0  0  0  0  0999 V2000
    1.3059  -10.9283    4.7656 C   0  0  0  0  0  0  0  0  0  0  0  0
    0.4333  -10.3299    5.7406 O   0  0  0  0  0  0  0  0  0  0  0  0
    0.3905   -8.9064    5.8804 C   0  0  2  0  0  0  0  0  0  0  0  0
   -0.3254   -8.2842    4.6501 C   0  0  0  0  0  0  0  0  0  0  0  0
   -0.1394   -6.7330    4.6092 C   0  0  0  0  0  0  0  0  0  0  0  0
    1.3256   -6.2595    4.7781 C   0  0  2  0  0  0  0  0  0  0  0  0
    1.8418   -6.8324    6.1443 C   0  0  0  0  0  0  0  0  0  0  0  0
    1.8120   -8.3752    6.1430 C   0  0  0  0  0  0  0  0  0  0  0  0
    1.3867   -4.6802    4.8352 C   0  0  0  0  0  0  0  0  0  0  0  0
    1.9691   -4.2364    3.5220 C   0  0  0  0  0  0  0  0  0  0  0  0
    2.0714   -2.9262    3.0124 C   0  0  0  0  0  0  0  0  0  0  0  0
    2.6155   -2.7537    1.7226 C   0  0  0  0  0  0  0  0  0  0  0  0
    3.0553   -3.8748    0.9631 C   0  0  0  0  0  0  0  0  0  0  0  0
    3.6532   -3.7097   -0.3351 C   0  0  0  0  0  0  0  0  0  0  0  0
    4.1596   -3.6054   -1.4441 C   0  0  0  0  0  0  0  0  0  0  0  0
    4.7132   -3.4262   -2.7469 C   0  0  0  0  0  0  0  0  0  0  0  0
    4.2551   -2.2729   -3.6007 C   0  0  0  0  0  0  0  0  0  0  0  0
    3.8677   -3.6890   -3.9652 C   0  0  0  0  0  0  0  0  0  0  0  0
    2.9344   -5.1777    1.4961 C   0  0  0  0  0  0  0  0  0  0  0  0
    2.4170   -5.3253    2.7807 C   0  0  0  0  0  0  0  0  0  0  0  0
    2.2157   -6.6259    3.4963 C   0  0  2  0  0  0  0  0  0  0  0  0
    1.6771   -7.6188    2.5580 N   0  0  0  0  0  0  0  0  0  0  0  0
    2.6183   -8.5082    2.2229 C   0  0  0  0  0  0  0  0  0  0  0  0
    2.4033   -9.4517    1.2969 N   0  0  0  0  0  0  0  0  0  0  0  0
    3.7374   -8.3694    2.9513 N   0  0  0  0  0  0  0  0  0  0  0  0
    4.8343   -9.3209    3.0927 C   0  0  0  0  0  0  0  0  0  0  0  0
    6.1578   -8.6754    2.7862 C   0  0  0  0  0  0  0  0  0  0  0  0
    6.8832   -9.0209    1.5241 C   0  0  0  0  0  0  0  0  0  0  0  0
    7.4218   -9.4587    2.8642 C   0  0  0  0  0  0  0  0  0  0  0  0
    3.5931   -7.1962    3.7797 C   0  0  0  0  0  0  0  0  0  0  0  0
    4.4474   -6.7620    4.5586 O   0  0  0  0  0  0  0  0  0  0  0  0
    1.1134  -12.0039    4.7114 H   0  0  0  0  0  0  0  0  0  0  0  0
    2.3568  -10.8130    5.0323 H   0  0  0  0  0  0  0  0  0  0  0  0
    1.1735  -10.5331    3.7593 H   0  0  0  0  0  0  0  0  0  0  0  0
   -0.2079   -8.6699    6.7615 H   0  0  0  0  0  0  0  0  0  0  0  0
    0.0800   -8.7192    3.7267 H   0  0  0  0  0  0  0  0  0  0  0  0
   -1.3854   -8.5616    4.6370 H   0  0  0  0  0  0  0  0  0  0  0  0
   -0.5736   -6.3435    3.6919 H   0  0  0  0  0  0  0  0  0  0  0  0
   -0.7526   -6.3083    5.3897 H   0  0  0  0  0  0  0  0  0  0  0  0
    2.8348   -6.4669    6.4097 H   0  0  0  0  0  0  0  0  0  0  0  0
    1.1699   -6.4864    6.9353 H   0  0  0  0  0  0  0  0  0  0  0  0
    2.2172   -8.7716    7.0813 H   0  0  0  0  0  0  0  0  0  0  0  0
    2.4977   -8.7233    5.3756 H   0  0  0  0  0  0  0  0  0  0  0  0
    0.4076   -4.2405    5.0344 H   0  0  0  0  0  0  0  0  0  0  0  0
    2.0466   -4.3630    5.6322 H   0  0  0  0  0  0  0  0  0  0  0  0
    1.7266   -2.0855    3.6073 H   0  0  0  0  0  0  0  0  0  0  0  0
    2.7137   -1.7678    1.3078 H   0  0  0  0  0  0  0  0  0  0  0  0
    5.7625   -3.7274   -2.7661 H   0  0  0  0  0  0  0  0  0  0  0  0
    3.4860   -1.6129   -3.2077 H   0  0  0  0  0  0  0  0  0  0  0  0
    5.0052   -1.7782   -4.2186 H   0  0  0  0  0  0  0  0  0  0  0  0
    4.3660   -4.1681   -4.7982 H   0  0  0  0  0  0  0  0  0  0  0  0
    2.8220   -3.9706   -3.8204 H   0  0  0  0  0  0  0  0  0  0  0  0
    3.2376   -6.0351    0.9232 H   0  0  0  0  0  0  0  0  0  0  0  0
    1.5148   -9.5215    0.7838 H   0  0  0  0  0  0  0  0  0  0  0  0
    0.7025   -7.6984    2.3345 H   0  0  0  0  0  0  0  0  0  0  0  0
    4.6596  -10.1990    2.4584 H   0  0  0  0  0  0  0  0  0  0  0  0
    4.8275   -9.6912    4.1195 H   0  0  0  0  0  0  0  0  0  0  0  0
    6.2432   -7.6282    3.0928 H   0  0  0  0  0  0  0  0  0  0  0  0
    6.4373   -9.7805    0.8783 H   0  0  0  0  0  0  0  0  0  0  0  0
    7.3984   -8.2075    1.0191 H   0  0  0  0  0  0  0  0  0  0  0  0
    8.2914   -8.9344    3.2490 H   0  0  0  0  0  0  0  0  0  0  0  0
    7.3381  -10.5141    3.1285 H   0  0  0  0  0  0  0  0  0  0  0  0
    3.1408  -10.1344    1.0900 H   0  0  0  0  0  0  0  0  0  0  0  0
  1  2  1  0
  1 32  1  0
  1 33  1  0
  1 34  1  0
  2  3  1  0
  3  8  1  0
  3  4  1  0
  3 35  1  1
  4  5  1  0
  4 36  1  0
  4 37  1  0
  6  5  1  6
  5 38  1  0
  5 39  1  0
  6  7  1  0
  6  9  1  0
  6 21  1  0
  7  8  1  0
  7 40  1  0
  7 41  1  0
  8 42  1  0
  8 43  1  0
  9 10  1  0
  9 44  1  0
  9 45  1  0
 10 20  2  0
 10 11  1  0
 11 12  2  0
 11 46  1  0
 12 13  1  0
 12 47  1  0
 13 14  1  0
 13 19  2  0
 14 15  3  0
 15 16  1  0
 16 18  1  0
 16 17  1  0
 16 48  1  0
 17 18  1  0
 17 49  1  0
 17 50  1  0
 18 51  1  0
 18 52  1  0
 19 20  1  0
 19 53  1  0
 20 21  1  0
 21 22  1  0
 21 30  1  1
 22 23  2  0
 22 55  1  0
 23 25  1  0
 23 24  1  0
 24 54  1  0
 24 63  1  0
 25 30  1  0
 25 26  1  0
 26 27  1  0
 26 56  1  0
 26 57  1  0
 27 29  1  0
 27 28  1  0
 27 58  1  0
 28 29  1  0
 28 59  1  0
 28 60  1  0
 29 61  1  0
 29 62  1  0
 30 31  2  0
M  CHG  1  22   1
M  END
>  <i_m_ct_stereo_status>  (78) 
1

>  <s_m_source_file>  (78) 
/var/tmp/pbs.5076255.sched01/tmpvsf1hu0j/0g1dnczxv.sdf

>  <i_m_source_file_index>  (78) 
33

>  <i_lp_mmshare_version>  (78) 
48012

>  <i_f3d_flags>  (78) 
0

>  <s_epik_input>  (78) 
W0NIMl0xW0NIMl1bQ0hdMVtDSDJdTihDMj1PKUMoW05IMl0pPU5bQ0BdMihbQ0BAXTM0W0NIMl1bQ0gyXVtDQEBIXShPW0NIM10pW0NIMl1bQ0gyXTMpYzVjKFtDSDJdNClbY0hdW2NIXWMoW2NIXTUpQyNDW0NIXTZbQ0gyXVtDSDJdNg==

>  <s_epik_cmdline>  (78) 
J2VwaWtfcHl0aG9uJywgJy1waHQnLCAnMi4wJywgJy1waCcsICc3LjAnLCAnLXRuJywgJzgnLCAnLW1hJywgJzIwMCcsICctaW1hZScsICc8aW5maWxlLm1hZT4nLCAnLW9tYWUnLCAnPG91dGZpbGUubWFlPic=

>  <r_lp_tautomer_probability>  (78) 
1

>  <r_epik_Ionization_Penalty>  (78) 
0.27739

>  <r_epik_Ionization_Penalty_Charging>  (78) 
0.27739

>  <r_epik_Ionization_Penalty_Neutral>  (78) 
3.1729e-11

>  <r_epik_State_Penalty>  (78) 
0.00417153

>  <r_epik_Charging_Adjusted_Penalty>  (78) 
0.281562

>  <i_epik_Tot_Q>  (78) 
1

>  <i_epik_Tot_abs_Q>  (78) 
1

>  <s_epik_Chemistry_Notes>  (78) 
This compound has an imine and may undergo hydrolysis.

>  <s_lp_Force_Field>  (78) 
OPLS3e

>  <r_lp_Energy>  (78) 
28.1232

>  <b_lp_Chiralities_Consistent>  (78) 
1

>  <s_lp_Variant>  (78) 
27:0-1

>  <s_i_glide_gridfile>  (78) 
pfpi4k_grid

>  <i_i_glide_lignum>  (78) 
33

>  <i_i_glide_rotatable_bonds>  (78) 
5

>  <r_i_docking_score>  (78) 
-2.03308

>  <r_i_glide_ligand_efficiency>  (78) 
-0.0655832

>  <r_i_glide_ligand_efficiency_sa>  (78) 
-0.206022

>  <r_i_glide_ligand_efficiency_ln>  (78) 
-0.458522

>  <r_i_glide_gscore>  (78) 
-2.03308

>  <r_i_glide_lipo>  (78) 
-0.384126

>  <r_i_glide_hbond>  (78) 
-0.0613499

>  <r_i_glide_metal>  (78) 
-0

>  <r_i_glide_rewards>  (78) 
-0.555333

>  <r_i_glide_evdw>  (78) 
-23.991

>  <r_i_glide_ecoul>  (78) 
-1.75634

>  <r_i_glide_erotb>  (78) 
0.451529

>  <r_i_glide_esite>  (78) 
-0.0207981

>  <r_i_glide_emodel>  (78) 
-25.6647

>  <r_i_glide_energy>  (78) 
-25.7474

>  <r_i_glide_einternal>  (78) 
4.65879

>  <r_i_glide_intrahb_reward>  (78) 
-0

>  <i_i_glide_confnum>  (78) 
4

>  <i_i_glide_posenum>  (78) 
7

>  <r_i_glide_eff_state_penalty>  (78) 
0

>  <ligand_id>  (78) 
27

>  <original_smiles>  (78) 
COC1CCC2(CC1)Cc1ccc(C#CC3CC3)cc1C21N=C(N)N(CC2CC2)C1=O

>  <smiles>  (78) 
[H]c1c([H])c2c(c([H])c1C#CC1([H])C([H])([H])C1([H])[H])C1(C(=O)N(C([H])([H])C3([H])C([H])([H])C3([H])[H])C(N([H])[H])=[N+]1[H])C1(C2([H])[H])C([H])([H])C([H])([H])C([H])(OC([H])([H])[H])C([H])([H])C1([H])[H]

$$$$
28:0:0
     RDKit          3D

 35 38  0  0  1  0  0  0  0  0999 V2000
    4.3273   -1.3167   -1.6778 C   0  0  0  0  0  0  0  0  0  0  0  0
    4.6850   -2.1105   -0.5268 N   0  0  0  0  0  0  0  0  0  0  0  0
    5.7792   -1.7643    0.1915 N   0  0  0  0  0  0  0  0  0  0  0  0
    5.8288   -2.6522    1.1737 C   0  0  0  0  0  0  0  0  0  0  0  0
    4.7737   -3.6014    1.0972 C   0  0  0  0  0  0  0  0  0  0  0  0
    4.0661   -3.2249    0.0011 C   0  0  0  0  0  0  0  0  0  0  0  0
    2.8345   -3.9036   -0.5079 C   0  0  0  0  0  0  0  0  0  0  0  0
    2.6531   -5.2839    0.1673 C   0  0  0  0  0  0  0  0  0  0  0  0
    2.9793   -5.2444    1.6907 C   0  0  1  0  0  0  0  0  0  0  0  0
    2.6609   -6.5084    2.3502 N   0  0  0  0  0  0  0  0  0  0  0  0
    3.5291   -7.3826    2.9868 C   0  0  0  0  0  0  0  0  0  0  0  0
    2.9795   -8.4380    3.5133 N   0  0  0  0  0  0  0  0  0  0  0  0
    1.6341   -8.2935    3.2160 C   0  0  0  0  0  0  0  0  0  0  0  0
    0.4959   -9.0803    3.4910 C   0  0  0  0  0  0  0  0  0  0  0  0
    0.5673  -10.2344    4.1619 N   0  0  0  0  0  0  0  0  0  0  0  0
   -0.7117   -8.6450    3.0726 N   0  0  0  0  0  0  0  0  0  0  0  0
   -0.7901   -7.4944    2.4022 C   0  0  0  0  0  0  0  0  0  0  0  0
    0.1861   -6.6413    2.0628 N   0  0  0  0  0  0  0  0  0  0  0  0
    1.4064   -7.0905    2.4961 C   0  0  0  0  0  0  0  0  0  0  0  0
    4.4418   -4.7822    1.9482 C   0  0  0  0  0  0  0  0  0  0  0  0
   -0.2904  -10.7220    4.3923 H   0  0  0  0  0  0  0  0  0  0  0  0
    3.4003   -1.6841   -2.1244 H   0  0  0  0  0  0  0  0  0  0  0  0
    5.1258   -1.3694   -2.4156 H   0  0  0  0  0  0  0  0  0  0  0  0
    4.1953   -0.2784   -1.3750 H   0  0  0  0  0  0  0  0  0  0  0  0
    6.6179   -2.5944    1.9049 H   0  0  0  0  0  0  0  0  0  0  0  0
    1.9778   -3.2713   -0.2765 H   0  0  0  0  0  0  0  0  0  0  0  0
    2.8695   -4.0069   -1.5921 H   0  0  0  0  0  0  0  0  0  0  0  0
    1.6501   -5.6618   -0.0321 H   0  0  0  0  0  0  0  0  0  0  0  0
    3.3381   -5.9917   -0.3032 H   0  0  0  0  0  0  0  0  0  0  0  0
    2.3223   -4.4905    2.1318 H   0  0  0  0  0  0  0  0  0  0  0  0
    4.5971   -7.2298    3.0765 H   0  0  0  0  0  0  0  0  0  0  0  0
    1.4628  -10.5576    4.4999 H   0  0  0  0  0  0  0  0  0  0  0  0
   -1.7877   -7.2359    2.0875 H   0  0  0  0  0  0  0  0  0  0  0  0
    5.1408   -5.5725    1.6837 H   0  0  0  0  0  0  0  0  0  0  0  0
    4.5865   -4.5634    3.0036 H   0  0  0  0  0  0  0  0  0  0  0  0
  1  2  1  0
  1 22  1  0
  1 23  1  0
  1 24  1  0
  2  6  1  0
  2  3  1  0
  3  4  2  0
  4  5  1  0
  4 25  1  0
  5 20  1  0
  5  6  2  0
  6  7  1  0
  7  8  1  0
  7 26  1  0
  7 27  1  0
  8  9  1  0
  8 28  1  0
  8 29  1  0
  9 20  1  0
  9 30  1  1
  9 10  1  0
 10 11  1  0
 10 19  1  0
 11 12  2  0
 11 31  1  0
 12 13  1  0
 13 14  1  0
 13 19  2  0
 14 16  2  0
 14 15  1  0
 15 32  1  0
 15 21  1  0
 16 17  1  0
 17 33  1  0
 17 18  2  0
 18 19  1  0
 20 34  1  0
 20 35  1  0
M  END
>  <i_m_ct_stereo_status>  (79) 
1

>  <s_m_source_file>  (79) 
/var/tmp/pbs.5076255.sched01/tmpvsf1hu0j/0g1dnczxv.sdf

>  <i_m_source_file_index>  (79) 
34

>  <i_lp_mmshare_version>  (79) 
48012

>  <i_f3d_flags>  (79) 
0

>  <s_epik_input>  (79) 
W2NIXTFubihbQ0gzXSljKGMxMilbQ0gyXVtDSDJdW0NASF0oW0NIMl0yKW4oW2NIXW4zKWMoYzM0KW5bY0hdW25IXWNcND1OL1tIXQ==

>  <s_epik_cmdline>  (79) 
J2VwaWtfcHl0aG9uJywgJy1waHQnLCAnMi4wJywgJy1waCcsICc3LjAnLCAnLXRuJywgJzgnLCAnLW1hJywgJzIwMCcsICctaW1hZScsICc8aW5maWxlLm1hZT4nLCAnLW9tYWUnLCAnPG91dGZpbGUubWFlPic=

>  <r_lp_tautomer_probability>  (79) 
1

>  <r_epik_Ionization_Penalty>  (79) 
0.000996873

>  <r_epik_Ionization_Penalty_Charging>  (79) 
0

>  <r_epik_Ionization_Penalty_Neutral>  (79) 
0.000996873

>  <r_epik_State_Penalty>  (79) 
-0

>  <r_epik_Charging_Adjusted_Penalty>  (79) 
0

>  <i_epik_Tot_Q>  (79) 
0

>  <i_epik_Tot_abs_Q>  (79) 
0

>  <s_lp_Force_Field>  (79) 
OPLS3e

>  <r_lp_Energy>  (79) 
19.4592

>  <b_lp_Chiralities_Consistent>  (79) 
1

>  <s_lp_Variant>  (79) 
28:0-1

>  <s_i_glide_gridfile>  (79) 
pfpi4k_grid

>  <i_i_glide_lignum>  (79) 
34

>  <i_i_glide_rotatable_bonds>  (79) 
1

>  <r_i_docking_score>  (79) 
-3.50835

>  <r_i_glide_ligand_efficiency>  (79) 
-0.175417

>  <r_i_glide_ligand_efficiency_sa>  (79) 
-0.476156

>  <r_i_glide_ligand_efficiency_ln>  (79) 
-0.878023

>  <r_i_glide_gscore>  (79) 
-3.50835

>  <r_i_glide_lipo>  (79) 
-0.147836

>  <r_i_glide_hbond>  (79) 
-0.245442

>  <r_i_glide_metal>  (79) 
-0

>  <r_i_glide_rewards>  (79) 
-1.57292

>  <r_i_glide_evdw>  (79) 
-23.2019

>  <r_i_glide_ecoul>  (79) 
-2.92834

>  <r_i_glide_erotb>  (79) 
0.246341

>  <r_i_glide_esite>  (79) 
-0.189144

>  <r_i_glide_emodel>  (79) 
-31.4086

>  <r_i_glide_energy>  (79) 
-26.1302

>  <r_i_glide_einternal>  (79) 
1.82341

>  <r_i_glide_intrahb_reward>  (79) 
-0

>  <i_i_glide_confnum>  (79) 
3

>  <i_i_glide_posenum>  (79) 
14

>  <r_i_glide_eff_state_penalty>  (79) 
0

>  <ligand_id>  (79) 
28

>  <original_smiles>  (79) 
Cn1ncc2c1CCC(n1cnc3c(=N)[nH]cnc31)C2

>  <smiles>  (79) 
[H]c1nc(N([H])[H])c2nc([H])n(C3([H])C([H])([H])c4c([H])nn(C([H])([H])[H])c4C([H])([H])C3([H])[H])c2n1

$$$$
28:0:1
     RDKit          3D

 35 38  0  0  1  0  0  0  0  0999 V2000
    4.7676   -1.1988   -1.4635 C   0  0  0  0  0  0  0  0  0  0  0  0
    4.2231   -1.6738   -0.2091 N   0  0  0  0  0  0  0  0  0  0  0  0
    3.9757   -0.7819    0.7748 N   0  0  0  0  0  0  0  0  0  0  0  0
    3.4737   -1.5005    1.7699 C   0  0  0  0  0  0  0  0  0  0  0  0
    3.4189   -2.8881    1.4602 C   0  0  0  0  0  0  0  0  0  0  0  0
    3.9017   -2.9565    0.1890 C   0  0  0  0  0  0  0  0  0  0  0  0
    4.0333   -4.2054   -0.6219 C   0  0  0  0  0  0  0  0  0  0  0  0
    3.8532   -5.4454    0.2760 C   0  0  0  0  0  0  0  0  0  0  0  0
    2.6998   -5.2675    1.2973 C   0  0  1  0  0  0  0  0  0  0  0  0
    2.4350   -6.5018    2.0216 N   0  0  0  0  0  0  0  0  0  0  0  0
    3.3654   -7.3276    2.6217 C   0  0  0  0  0  0  0  0  0  0  0  0
    2.8785   -8.3809    3.2173 N   0  0  0  0  0  0  0  0  0  0  0  0
    1.5109   -8.2682    3.0236 C   0  0  0  0  0  0  0  0  0  0  0  0
    0.4010   -9.0565    3.4079 C   0  0  0  0  0  0  0  0  0  0  0  0
    0.5176  -10.1917    4.1045 N   0  0  0  0  0  0  0  0  0  0  0  0
   -0.8385   -8.6412    3.0692 N   0  0  0  0  0  0  0  0  0  0  0  0
   -0.9811   -7.5123    2.3739 C   0  0  0  0  0  0  0  0  0  0  0  0
   -0.0487   -6.6595    1.9377 N   0  0  0  0  0  0  0  0  0  0  0  0
    1.2051   -7.0893    2.2890 C   0  0  0  0  0  0  0  0  0  0  0  0
    2.9484   -4.0753    2.2536 C   0  0  0  0  0  0  0  0  0  0  0  0
   -0.3223  -10.6765    4.4064 H   0  0  0  0  0  0  0  0  0  0  0  0
    4.8878   -2.0225   -2.1680 H   0  0  0  0  0  0  0  0  0  0  0  0
    5.7381   -0.7398   -1.2819 H   0  0  0  0  0  0  0  0  0  0  0  0
    4.1015   -0.4553   -1.9025 H   0  0  0  0  0  0  0  0  0  0  0  0
    3.1788   -1.0005    2.6802 H   0  0  0  0  0  0  0  0  0  0  0  0
    3.2593   -4.2000   -1.3876 H   0  0  0  0  0  0  0  0  0  0  0  0
    4.9938   -4.2420   -1.1355 H   0  0  0  0  0  0  0  0  0  0  0  0
    3.7060   -6.3445   -0.3200 H   0  0  0  0  0  0  0  0  0  0  0  0
    4.7868   -5.5972    0.8160 H   0  0  0  0  0  0  0  0  0  0  0  0
    1.8104   -5.0331    0.7128 H   0  0  0  0  0  0  0  0  0  0  0  0
    4.4304   -7.1334    2.5985 H   0  0  0  0  0  0  0  0  0  0  0  0
    1.4366  -10.5075    4.3747 H   0  0  0  0  0  0  0  0  0  0  0  0
   -2.0090   -7.2790    2.1404 H   0  0  0  0  0  0  0  0  0  0  0  0
    3.7060   -4.3420    2.9900 H   0  0  0  0  0  0  0  0  0  0  0  0
    2.0456   -3.8400    2.8151 H   0  0  0  0  0  0  0  0  0  0  0  0
  1  2  1  0
  1 22  1  0
  1 23  1  0
  1 24  1  0
  2  6  1  0
  2  3  1  0
  3  4  2  0
  4  5  1  0
  4 25  1  0
  5 20  1  0
  5  6  2  0
  6  7  1  0
  7  8  1  0
  7 26  1  0
  7 27  1  0
  8  9  1  0
  8 28  1  0
  8 29  1  0
  9 20  1  0
  9 30  1  6
  9 10  1  0
 10 11  1  0
 10 19  1  0
 11 12  2  0
 11 31  1  0
 12 13  1  0
 13 14  1  0
 13 19  2  0
 14 16  2  0
 14 15  1  0
 15 32  1  0
 15 21  1  0
 16 17  1  0
 17 33  1  0
 17 18  2  0
 18 19  1  0
 20 34  1  0
 20 35  1  0
M  END
>  <i_m_ct_stereo_status>  (80) 
1

>  <s_m_source_file>  (80) 
/var/tmp/pbs.5076255.sched01/tmpvsf1hu0j/0g1dnczxv.sdf

>  <i_m_source_file_index>  (80) 
34

>  <i_lp_mmshare_version>  (80) 
48012

>  <i_f3d_flags>  (80) 
0

>  <s_epik_input>  (80) 
W2NIXTFubihbQ0gzXSljKGMxMilbQ0gyXVtDSDJdW0NASF0oW0NIMl0yKW4oW2NIXW4zKWMoYzM0KW5bY0hdW25IXWNcND1OL1tIXQ==

>  <s_epik_cmdline>  (80) 
J2VwaWtfcHl0aG9uJywgJy1waHQnLCAnMi4wJywgJy1waCcsICc3LjAnLCAnLXRuJywgJzgnLCAnLW1hJywgJzIwMCcsICctaW1hZScsICc8aW5maWxlLm1hZT4nLCAnLW9tYWUnLCAnPG91dGZpbGUubWFlPic=

>  <r_lp_tautomer_probability>  (80) 
1

>  <r_epik_Ionization_Penalty>  (80) 
0.000996873

>  <r_epik_Ionization_Penalty_Charging>  (80) 
0

>  <r_epik_Ionization_Penalty_Neutral>  (80) 
0.000996873

>  <r_epik_State_Penalty>  (80) 
-0

>  <r_epik_Charging_Adjusted_Penalty>  (80) 
0

>  <i_epik_Tot_Q>  (80) 
0

>  <i_epik_Tot_abs_Q>  (80) 
0

>  <s_lp_Force_Field>  (80) 
OPLS3e

>  <r_lp_Energy>  (80) 
19.4592

>  <b_lp_Chiralities_Consistent>  (80) 
1

>  <s_lp_Variant>  (80) 
28:0-1

>  <s_i_glide_gridfile>  (80) 
pfpi4k_grid

>  <i_i_glide_lignum>  (80) 
34

>  <i_i_glide_rotatable_bonds>  (80) 
1

>  <r_i_docking_score>  (80) 
-3.43032

>  <r_i_glide_ligand_efficiency>  (80) 
-0.171516

>  <r_i_glide_ligand_efficiency_sa>  (80) 
-0.465567

>  <r_i_glide_ligand_efficiency_ln>  (80) 
-0.858497

>  <r_i_glide_gscore>  (80) 
-3.43032

>  <r_i_glide_lipo>  (80) 
0

>  <r_i_glide_hbond>  (80) 
-0.330207

>  <r_i_glide_metal>  (80) 
-0

>  <r_i_glide_rewards>  (80) 
-1.57292

>  <r_i_glide_evdw>  (80) 
-23.6644

>  <r_i_glide_ecoul>  (80) 
-2.53496

>  <r_i_glide_erotb>  (80) 
0.246341

>  <r_i_glide_esite>  (80) 
-0.210072

>  <r_i_glide_emodel>  (80) 
-32.2247

>  <r_i_glide_energy>  (80) 
-26.1994

>  <r_i_glide_einternal>  (80) 
0.112976

>  <r_i_glide_intrahb_reward>  (80) 
-0

>  <i_i_glide_confnum>  (80) 
1

>  <i_i_glide_posenum>  (80) 
10

>  <r_i_glide_eff_state_penalty>  (80) 
0

>  <ligand_id>  (80) 
28

>  <original_smiles>  (80) 
Cn1ncc2c1CCC(n1cnc3c(=N)[nH]cnc31)C2

>  <smiles>  (80) 
[H]c1nc(N([H])[H])c2nc([H])n(C3([H])C([H])([H])c4c([H])nn(C([H])([H])[H])c4C([H])([H])C3([H])[H])c2n1

$$$$
28:0:2
     RDKit          3D

 35 38  0  0  1  0  0  0  0  0999 V2000
    3.8377   -1.5217   -1.9404 C   0  0  0  0  0  0  0  0  0  0  0  0
    4.4172   -2.6071   -1.1836 N   0  0  0  0  0  0  0  0  0  0  0  0
    5.7626   -2.6685   -1.0407 N   0  0  0  0  0  0  0  0  0  0  0  0
    5.9721   -3.7526   -0.3062 C   0  0  0  0  0  0  0  0  0  0  0  0
    4.7613   -4.4129    0.0399 C   0  0  0  0  0  0  0  0  0  0  0  0
    3.7939   -3.6535   -0.5376 C   0  0  0  0  0  0  0  0  0  0  0  0
    2.3252   -3.9140   -0.4544 C   0  0  0  0  0  0  0  0  0  0  0  0
    2.0577   -5.3337    0.0923 C   0  0  0  0  0  0  0  0  0  0  0  0
    3.0037   -5.7107    1.2738 C   0  0  1  0  0  0  0  0  0  0  0  0
    2.6463   -6.9943    1.8757 N   0  0  0  0  0  0  0  0  0  0  0  0
    3.5018   -8.0285    2.2232 C   0  0  0  0  0  0  0  0  0  0  0  0
    2.9393   -9.0580    2.7862 N   0  0  0  0  0  0  0  0  0  0  0  0
    1.5984   -8.7141    2.8412 C   0  0  0  0  0  0  0  0  0  0  0  0
    0.4483   -9.3759    3.3220 C   0  0  0  0  0  0  0  0  0  0  0  0
    0.4993  -10.5966    3.8631 N   0  0  0  0  0  0  0  0  0  0  0  0
   -0.7476   -8.7526    3.2412 N   0  0  0  0  0  0  0  0  0  0  0  0
   -0.8096   -7.5240    2.7245 C   0  0  0  0  0  0  0  0  0  0  0  0
    0.1828   -6.7649    2.2459 N   0  0  0  0  0  0  0  0  0  0  0  0
    1.3900   -7.4156    2.3056 C   0  0  0  0  0  0  0  0  0  0  0  0
    4.4962   -5.6495    0.8363 C   0  0  0  0  0  0  0  0  0  0  0  0
   -0.3495  -10.9966    4.2464 H   0  0  0  0  0  0  0  0  0  0  0  0
    2.7468   -1.5809   -1.9261 H   0  0  0  0  0  0  0  0  0  0  0  0
    4.1813   -1.5772   -2.9726 H   0  0  0  0  0  0  0  0  0  0  0  0
    4.1470   -0.5714   -1.5067 H   0  0  0  0  0  0  0  0  0  0  0  0
    6.9822   -4.0302   -0.0481 H   0  0  0  0  0  0  0  0  0  0  0  0
    1.8914   -3.1759    0.2208 H   0  0  0  0  0  0  0  0  0  0  0  0
    1.8480   -3.7893   -1.4282 H   0  0  0  0  0  0  0  0  0  0  0  0
    1.0091   -5.4558    0.3251 H   0  0  0  0  0  0  0  0  0  0  0  0
    2.2185   -6.0469   -0.7065 H   0  0  0  0  0  0  0  0  0  0  0  0
    2.8625   -4.9588    2.0525 H   0  0  0  0  0  0  0  0  0  0  0  0
    4.5740   -8.0138    2.0685 H   0  0  0  0  0  0  0  0  0  0  0  0
    1.3909  -11.0640    3.9428 H   0  0  0  0  0  0  0  0  0  0  0  0
   -1.8042   -7.1050    2.6762 H   0  0  0  0  0  0  0  0  0  0  0  0
    4.7342   -6.5139    0.2181 H   0  0  0  0  0  0  0  0  0  0  0  0
    5.1479   -5.6887    1.7067 H   0  0  0  0  0  0  0  0  0  0  0  0
  1  2  1  0
  1 22  1  0
  1 23  1  0
  1 24  1  0
  2  6  1  0
  2  3  1  0
  3  4  2  0
  4  5  1  0
  4 25  1  0
  5 20  1  0
  5  6  2  0
  6  7  1  0
  7  8  1  0
  7 26  1  0
  7 27  1  0
  8  9  1  0
  8 28  1  0
  8 29  1  0
  9 20  1  0
  9 30  1  1
  9 10  1  0
 10 11  1  0
 10 19  1  0
 11 12  2  0
 11 31  1  0
 12 13  1  0
 13 14  1  0
 13 19  2  0
 14 16  2  0
 14 15  1  0
 15 32  1  0
 15 21  1  0
 16 17  1  0
 17 33  1  0
 17 18  2  0
 18 19  1  0
 20 34  1  0
 20 35  1  0
M  END
>  <i_m_ct_stereo_status>  (81) 
1

>  <s_m_source_file>  (81) 
/var/tmp/pbs.5076255.sched01/tmpvsf1hu0j/0g1dnczxv.sdf

>  <i_m_source_file_index>  (81) 
34

>  <i_lp_mmshare_version>  (81) 
48012

>  <i_f3d_flags>  (81) 
0

>  <s_epik_input>  (81) 
W2NIXTFubihbQ0gzXSljKGMxMilbQ0gyXVtDSDJdW0NASF0oW0NIMl0yKW4oW2NIXW4zKWMoYzM0KW5bY0hdW25IXWNcND1OL1tIXQ==

>  <s_epik_cmdline>  (81) 
J2VwaWtfcHl0aG9uJywgJy1waHQnLCAnMi4wJywgJy1waCcsICc3LjAnLCAnLXRuJywgJzgnLCAnLW1hJywgJzIwMCcsICctaW1hZScsICc8aW5maWxlLm1hZT4nLCAnLW9tYWUnLCAnPG91dGZpbGUubWFlPic=

>  <r_lp_tautomer_probability>  (81) 
1

>  <r_epik_Ionization_Penalty>  (81) 
0.000996873

>  <r_epik_Ionization_Penalty_Charging>  (81) 
0

>  <r_epik_Ionization_Penalty_Neutral>  (81) 
0.000996873

>  <r_epik_State_Penalty>  (81) 
-0

>  <r_epik_Charging_Adjusted_Penalty>  (81) 
0

>  <i_epik_Tot_Q>  (81) 
0

>  <i_epik_Tot_abs_Q>  (81) 
0

>  <s_lp_Force_Field>  (81) 
OPLS3e

>  <r_lp_Energy>  (81) 
19.4592

>  <b_lp_Chiralities_Consistent>  (81) 
1

>  <s_lp_Variant>  (81) 
28:0-1

>  <s_i_glide_gridfile>  (81) 
pfpi4k_grid

>  <i_i_glide_lignum>  (81) 
34

>  <i_i_glide_rotatable_bonds>  (81) 
1

>  <r_i_docking_score>  (81) 
-3.37898

>  <r_i_glide_ligand_efficiency>  (81) 
-0.168949

>  <r_i_glide_ligand_efficiency_sa>  (81) 
-0.458599

>  <r_i_glide_ligand_efficiency_ln>  (81) 
-0.845648

>  <r_i_glide_gscore>  (81) 
-3.37898

>  <r_i_glide_lipo>  (81) 
-0.169213

>  <r_i_glide_hbond>  (81) 
-0.218814

>  <r_i_glide_metal>  (81) 
-0

>  <r_i_glide_rewards>  (81) 
-1.57292

>  <r_i_glide_evdw>  (81) 
-24.8156

>  <r_i_glide_ecoul>  (81) 
-1.76853

>  <r_i_glide_erotb>  (81) 
0.246341

>  <r_i_glide_esite>  (81) 
-0.158319

>  <r_i_glide_emodel>  (81) 
-31.2214

>  <r_i_glide_energy>  (81) 
-26.5841

>  <r_i_glide_einternal>  (81) 
2.62706

>  <r_i_glide_intrahb_reward>  (81) 
-0

>  <i_i_glide_confnum>  (81) 
3

>  <i_i_glide_posenum>  (81) 
18

>  <r_i_glide_eff_state_penalty>  (81) 
0

>  <ligand_id>  (81) 
28

>  <original_smiles>  (81) 
Cn1ncc2c1CCC(n1cnc3c(=N)[nH]cnc31)C2

>  <smiles>  (81) 
[H]c1nc(N([H])[H])c2nc([H])n(C3([H])C([H])([H])c4c([H])nn(C([H])([H])[H])c4C([H])([H])C3([H])[H])c2n1

$$$$
30:0:0
     RDKit          3D

 16 17  0  0  1  0  0  0  0  0999 V2000
    3.0326   -0.5278   -4.5848 C   0  0  0  0  0  0  0  0  0  0  0  0
    3.8336   -1.3435   -3.5948 C   0  0  0  0  0  0  0  0  0  0  0  0
    4.3381   -0.7606   -2.4634 C   0  0  0  0  0  0  0  0  0  0  0  0
    5.0314   -1.5722   -1.6224 N   0  0  0  0  0  0  0  0  0  0  0  0
    5.6536   -1.3245   -0.4391 C   0  0  0  0  0  0  0  0  0  0  0  0
    6.2515   -2.4321   -0.0051 N   0  0  0  0  0  0  0  0  0  0  0  0
    5.9908   -3.4501   -0.9172 N   0  0  0  0  0  0  0  0  0  0  0  0
    5.2519   -2.9308   -1.8993 C   0  0  0  0  0  0  0  0  0  0  0  0
    4.6891   -3.4360   -3.1059 C   0  0  0  0  0  0  0  0  0  0  0  0
    4.0183   -2.6665   -3.9200 N   0  0  0  0  0  0  0  0  0  0  0  0
    2.9207    0.5118   -4.2690 H   0  0  0  0  0  0  0  0  0  0  0  0
    2.0388   -0.9526   -4.7197 H   0  0  0  0  0  0  0  0  0  0  0  0
    3.5140   -0.5392   -5.5619 H   0  0  0  0  0  0  0  0  0  0  0  0
    4.2134    0.2810   -2.1920 H   0  0  0  0  0  0  0  0  0  0  0  0
    5.6921   -0.3687    0.0680 H   0  0  0  0  0  0  0  0  0  0  0  0
    4.8346   -4.4829   -3.3468 H   0  0  0  0  0  0  0  0  0  0  0  0
  1  2  1  0
  1 11  1  0
  1 12  1  0
  1 13  1  0
  2 10  1  0
  2  3  2  0
  3  4  1  0
  3 14  1  0
  4  8  1  0
  4  5  1  0
  5  6  2  0
  5 15  1  0
  6  7  1  0
  7  8  2  0
  8  9  1  0
  9 10  2  0
  9 16  1  0
M  END
>  <i_m_ct_stereo_status>  (82) 
1

>  <s_m_source_file>  (82) 
/var/tmp/pbs.5076255.sched01/tmpvsf1hu0j/0g1dnczxv.sdf

>  <i_m_source_file_index>  (82) 
36

>  <i_lp_mmshare_version>  (82) 
48012

>  <i_f3d_flags>  (82) 
0

>  <s_epik_input>  (82) 
W0NIM11jKFtjSF0xKW5bY0hdYyhuMTIpbm5bY0hdMg==

>  <s_epik_cmdline>  (82) 
J2VwaWtfcHl0aG9uJywgJy1waHQnLCAnMi4wJywgJy1waCcsICc3LjAnLCAnLXRuJywgJzgnLCAnLW1hJywgJzIwMCcsICctaW1hZScsICc8aW5maWxlLm1hZT4nLCAnLW9tYWUnLCAnPG91dGZpbGUubWFlPic=

>  <r_lp_tautomer_probability>  (82) 
1

>  <r_epik_Ionization_Penalty>  (82) 
1.02049e-06

>  <r_epik_Ionization_Penalty_Charging>  (82) 
0

>  <r_epik_Ionization_Penalty_Neutral>  (82) 
1.02049e-06

>  <r_epik_State_Penalty>  (82) 
-0

>  <r_epik_Charging_Adjusted_Penalty>  (82) 
0

>  <i_epik_Tot_Q>  (82) 
0

>  <i_epik_Tot_abs_Q>  (82) 
0

>  <s_lp_Force_Field>  (82) 
OPLS3e

>  <r_lp_Energy>  (82) 
10.3077

>  <b_lp_Chiralities_Consistent>  (82) 
1

>  <s_lp_Variant>  (82) 
30:0-1

>  <s_i_glide_gridfile>  (82) 
pfpi4k_grid

>  <i_i_glide_lignum>  (82) 
36

>  <i_i_glide_rotatable_bonds>  (82) 
0

>  <r_i_docking_score>  (82) 
-4.70332

>  <r_i_glide_ligand_efficiency>  (82) 
-0.470332

>  <r_i_glide_ligand_efficiency_sa>  (82) 
-1.0133

>  <r_i_glide_ligand_efficiency_ln>  (82) 
-1.42413

>  <r_i_glide_gscore>  (82) 
-4.70332

>  <r_i_glide_lipo>  (82) 
-0.628008

>  <r_i_glide_hbond>  (82) 
-0.152287

>  <r_i_glide_metal>  (82) 
-0

>  <r_i_glide_rewards>  (82) 
-2.34848

>  <r_i_glide_evdw>  (82) 
-19.8494

>  <r_i_glide_ecoul>  (82) 
-3.33397

>  <r_i_glide_erotb>  (82) 
0

>  <r_i_glide_esite>  (82) 
-0.0819818

>  <r_i_glide_emodel>  (82) 
-29.7035

>  <r_i_glide_energy>  (82) 
-23.1834

>  <r_i_glide_einternal>  (82) 
0

>  <r_i_glide_intrahb_reward>  (82) 
-0

>  <i_i_glide_confnum>  (82) 
2

>  <i_i_glide_posenum>  (82) 
1

>  <r_i_glide_eff_state_penalty>  (82) 
0

>  <ligand_id>  (82) 
30

>  <original_smiles>  (82) 
Cc1cn2cnnc2cn1

>  <smiles>  (82) 
[H]c1nc(C([H])([H])[H])c([H])n2c([H])nnc12

$$$$
30:0:1
     RDKit          3D

 16 17  0  0  1  0  0  0  0  0999 V2000
    3.6422   -0.3697   -4.4307 C   0  0  0  0  0  0  0  0  0  0  0  0
    3.6837   -1.1527   -3.1359 C   0  0  0  0  0  0  0  0  0  0  0  0
    2.8273   -2.2039   -2.9218 C   0  0  0  0  0  0  0  0  0  0  0  0
    2.9204   -2.8123   -1.7054 N   0  0  0  0  0  0  0  0  0  0  0  0
    2.2163   -3.8326   -1.1475 C   0  0  0  0  0  0  0  0  0  0  0  0
    2.6801   -4.0943    0.0766 N   0  0  0  0  0  0  0  0  0  0  0  0
    3.7109   -3.1988    0.3430 N   0  0  0  0  0  0  0  0  0  0  0  0
    3.8509   -2.4183   -0.7323 C   0  0  0  0  0  0  0  0  0  0  0  0
    4.7006   -1.3282   -1.0717 C   0  0  0  0  0  0  0  0  0  0  0  0
    4.6216   -0.7290   -2.2270 N   0  0  0  0  0  0  0  0  0  0  0  0
    2.8734   -0.7424   -5.1074 H   0  0  0  0  0  0  0  0  0  0  0  0
    4.6075   -0.4481   -4.9265 H   0  0  0  0  0  0  0  0  0  0  0  0
    3.4421    0.6864   -4.2387 H   0  0  0  0  0  0  0  0  0  0  0  0
    2.0537   -2.5442   -3.6062 H   0  0  0  0  0  0  0  0  0  0  0  0
    1.4199   -4.3696   -1.6423 H   0  0  0  0  0  0  0  0  0  0  0  0
    5.4329   -1.0006   -0.3410 H   0  0  0  0  0  0  0  0  0  0  0  0
  1  2  1  0
  1 11  1  0
  1 12  1  0
  1 13  1  0
  2 10  1  0
  2  3  2  0
  3  4  1  0
  3 14  1  0
  4  8  1  0
  4  5  1  0
  5  6  2  0
  5 15  1  0
  6  7  1  0
  7  8  2  0
  8  9  1  0
  9 10  2  0
  9 16  1  0
M  END
>  <i_m_ct_stereo_status>  (83) 
1

>  <s_m_source_file>  (83) 
/var/tmp/pbs.5076255.sched01/tmpvsf1hu0j/0g1dnczxv.sdf

>  <i_m_source_file_index>  (83) 
36

>  <i_lp_mmshare_version>  (83) 
48012

>  <i_f3d_flags>  (83) 
0

>  <s_epik_input>  (83) 
W0NIM11jKFtjSF0xKW5bY0hdYyhuMTIpbm5bY0hdMg==

>  <s_epik_cmdline>  (83) 
J2VwaWtfcHl0aG9uJywgJy1waHQnLCAnMi4wJywgJy1waCcsICc3LjAnLCAnLXRuJywgJzgnLCAnLW1hJywgJzIwMCcsICctaW1hZScsICc8aW5maWxlLm1hZT4nLCAnLW9tYWUnLCAnPG91dGZpbGUubWFlPic=

>  <r_lp_tautomer_probability>  (83) 
1

>  <r_epik_Ionization_Penalty>  (83) 
1.02049e-06

>  <r_epik_Ionization_Penalty_Charging>  (83) 
0

>  <r_epik_Ionization_Penalty_Neutral>  (83) 
1.02049e-06

>  <r_epik_State_Penalty>  (83) 
-0

>  <r_epik_Charging_Adjusted_Penalty>  (83) 
0

>  <i_epik_Tot_Q>  (83) 
0

>  <i_epik_Tot_abs_Q>  (83) 
0

>  <s_lp_Force_Field>  (83) 
OPLS3e

>  <r_lp_Energy>  (83) 
10.3077

>  <b_lp_Chiralities_Consistent>  (83) 
1

>  <s_lp_Variant>  (83) 
30:0-1

>  <s_i_glide_gridfile>  (83) 
pfpi4k_grid

>  <i_i_glide_lignum>  (83) 
36

>  <i_i_glide_rotatable_bonds>  (83) 
0

>  <r_i_docking_score>  (83) 
-3.82916

>  <r_i_glide_ligand_efficiency>  (83) 
-0.382916

>  <r_i_glide_ligand_efficiency_sa>  (83) 
-0.824966

>  <r_i_glide_ligand_efficiency_ln>  (83) 
-1.15944

>  <r_i_glide_gscore>  (83) 
-3.82916

>  <r_i_glide_lipo>  (83) 
-0.389583

>  <r_i_glide_hbond>  (83) 
0

>  <r_i_glide_metal>  (83) 
-0

>  <r_i_glide_rewards>  (83) 
-2.25

>  <r_i_glide_evdw>  (83) 
-16.5803

>  <r_i_glide_ecoul>  (83) 
-1.54475

>  <r_i_glide_erotb>  (83) 
0

>  <r_i_glide_esite>  (83) 
-0.128846

>  <r_i_glide_emodel>  (83) 
-23.4246

>  <r_i_glide_energy>  (83) 
-18.125

>  <r_i_glide_einternal>  (83) 
0

>  <r_i_glide_intrahb_reward>  (83) 
-0

>  <i_i_glide_confnum>  (83) 
2

>  <i_i_glide_posenum>  (83) 
19

>  <r_i_glide_eff_state_penalty>  (83) 
0

>  <ligand_id>  (83) 
30

>  <original_smiles>  (83) 
Cc1cn2cnnc2cn1

>  <smiles>  (83) 
[H]c1nc(C([H])([H])[H])c([H])n2c([H])nnc12

$$$$
30:0:2
     RDKit          3D

 16 17  0  0  1  0  0  0  0  0999 V2000
    4.0038    0.0411   -3.8593 C   0  0  0  0  0  0  0  0  0  0  0  0
    3.6474   -1.0845   -2.9184 C   0  0  0  0  0  0  0  0  0  0  0  0
    4.0557   -1.0576   -1.6066 C   0  0  0  0  0  0  0  0  0  0  0  0
    3.6402   -2.0952   -0.8301 N   0  0  0  0  0  0  0  0  0  0  0  0
    3.8432   -2.3802    0.4841 C   0  0  0  0  0  0  0  0  0  0  0  0
    3.2402   -3.5270    0.7997 N   0  0  0  0  0  0  0  0  0  0  0  0
    2.6099   -4.0072   -0.3386 N   0  0  0  0  0  0  0  0  0  0  0  0
    2.8524   -3.1431   -1.3306 C   0  0  0  0  0  0  0  0  0  0  0  0
    2.4954   -3.0664   -2.7085 C   0  0  0  0  0  0  0  0  0  0  0  0
    2.8995   -2.0909   -3.4726 N   0  0  0  0  0  0  0  0  0  0  0  0
    4.5900    0.8073   -3.3510 H   0  0  0  0  0  0  0  0  0  0  0  0
    3.1044    0.5123   -4.2587 H   0  0  0  0  0  0  0  0  0  0  0  0
    4.5795   -0.3574   -4.6950 H   0  0  0  0  0  0  0  0  0  0  0  0
    4.6240   -0.2609   -1.1327 H   0  0  0  0  0  0  0  0  0  0  0  0
    4.4091   -1.7749    1.1750 H   0  0  0  0  0  0  0  0  0  0  0  0
    1.8827   -3.8575   -3.1262 H   0  0  0  0  0  0  0  0  0  0  0  0
  1  2  1  0
  1 11  1  0
  1 12  1  0
  1 13  1  0
  2 10  1  0
  2  3  2  0
  3  4  1  0
  3 14  1  0
  4  8  1  0
  4  5  1  0
  5  6  2  0
  5 15  1  0
  6  7  1  0
  7  8  2  0
  8  9  1  0
  9 10  2  0
  9 16  1  0
M  END
>  <i_m_ct_stereo_status>  (84) 
1

>  <s_m_source_file>  (84) 
/var/tmp/pbs.5076255.sched01/tmpvsf1hu0j/0g1dnczxv.sdf

>  <i_m_source_file_index>  (84) 
36

>  <i_lp_mmshare_version>  (84) 
48012

>  <i_f3d_flags>  (84) 
0

>  <s_epik_input>  (84) 
W0NIM11jKFtjSF0xKW5bY0hdYyhuMTIpbm5bY0hdMg==

>  <s_epik_cmdline>  (84) 
J2VwaWtfcHl0aG9uJywgJy1waHQnLCAnMi4wJywgJy1waCcsICc3LjAnLCAnLXRuJywgJzgnLCAnLW1hJywgJzIwMCcsICctaW1hZScsICc8aW5maWxlLm1hZT4nLCAnLW9tYWUnLCAnPG91dGZpbGUubWFlPic=

>  <r_lp_tautomer_probability>  (84) 
1

>  <r_epik_Ionization_Penalty>  (84) 
1.02049e-06

>  <r_epik_Ionization_Penalty_Charging>  (84) 
0

>  <r_epik_Ionization_Penalty_Neutral>  (84) 
1.02049e-06

>  <r_epik_State_Penalty>  (84) 
-0

>  <r_epik_Charging_Adjusted_Penalty>  (84) 
0

>  <i_epik_Tot_Q>  (84) 
0

>  <i_epik_Tot_abs_Q>  (84) 
0

>  <s_lp_Force_Field>  (84) 
OPLS3e

>  <r_lp_Energy>  (84) 
10.3077

>  <b_lp_Chiralities_Consistent>  (84) 
1

>  <s_lp_Variant>  (84) 
30:0-1

>  <s_i_glide_gridfile>  (84) 
pfpi4k_grid

>  <i_i_glide_lignum>  (84) 
36

>  <i_i_glide_rotatable_bonds>  (84) 
0

>  <r_i_docking_score>  (84) 
-3.74463

>  <r_i_glide_ligand_efficiency>  (84) 
-0.374463

>  <r_i_glide_ligand_efficiency_sa>  (84) 
-0.806755

>  <r_i_glide_ligand_efficiency_ln>  (84) 
-1.13385

>  <r_i_glide_gscore>  (84) 
-3.74463

>  <r_i_glide_lipo>  (84) 
-0.172407

>  <r_i_glide_hbond>  (84) 
0

>  <r_i_glide_metal>  (84) 
-0

>  <r_i_glide_rewards>  (84) 
-2.28148

>  <r_i_glide_evdw>  (84) 
-16.7538

>  <r_i_glide_ecoul>  (84) 
-2.15428

>  <r_i_glide_erotb>  (84) 
0

>  <r_i_glide_esite>  (84) 
-0.12991

>  <r_i_glide_emodel>  (84) 
-24.0885

>  <r_i_glide_energy>  (84) 
-18.9081

>  <r_i_glide_einternal>  (84) 
0

>  <r_i_glide_intrahb_reward>  (84) 
-0

>  <i_i_glide_confnum>  (84) 
1

>  <i_i_glide_posenum>  (84) 
16

>  <r_i_glide_eff_state_penalty>  (84) 
0

>  <ligand_id>  (84) 
30

>  <original_smiles>  (84) 
Cc1cn2cnnc2cn1

>  <smiles>  (84) 
[H]c1nc(C([H])([H])[H])c([H])n2c([H])nnc12

$$$$
31:0:0
     RDKit          3D

 28 30  0  0  1  0  0  0  0  0999 V2000
   -9.7704   -9.1857  -11.1070 O   0  0  0  0  0  0  0  0  0  0  0  0
   -9.3812   -9.2771   -9.9429 C   0  0  0  0  0  0  0  0  0  0  0  0
   -9.3522  -10.4164   -9.2108 N   0  0  0  0  0  0  0  0  0  0  0  0
   -8.8876  -10.4805   -7.8797 C   0  0  0  0  0  0  0  0  0  0  0  0
   -8.4237   -9.4525   -7.2129 N   0  0  0  0  0  0  0  0  0  0  0  0
   -8.4384   -8.2533   -7.9096 C   0  0  0  0  0  0  0  0  0  0  0  0
   -8.8705   -8.1087   -9.1803 C   0  0  0  0  0  0  0  0  0  0  0  0
   -8.7203   -6.7480   -9.5349 C   0  0  0  0  0  0  0  0  0  0  0  0
   -8.2053   -6.0802   -8.4960 N   0  0  0  0  0  0  0  0  0  0  0  0
   -8.0318   -6.9964   -7.4947 N   0  0  0  0  0  0  0  0  0  0  0  0
   -7.4633   -6.6224   -6.2087 C   0  0  0  0  0  0  0  0  0  0  0  0
   -7.3913   -5.1017   -5.9916 C   0  0  0  0  0  0  0  0  0  0  0  0
   -6.6427   -4.7356   -4.7100 C   0  0  0  0  0  0  0  0  0  0  0  0
   -5.3603   -5.3547   -4.7263 O   0  0  0  0  0  0  0  0  0  0  0  0
   -5.4378   -6.7729   -4.7089 C   0  0  0  0  0  0  0  0  0  0  0  0
   -6.0915   -7.2799   -5.9969 C   0  0  0  0  0  0  0  0  0  0  0  0
   -8.9401  -11.4823   -7.4370 H   0  0  0  0  0  0  0  0  0  0  0  0
   -8.9455   -6.2320  -10.4606 H   0  0  0  0  0  0  0  0  0  0  0  0
   -8.1352   -7.0041   -5.4460 H   0  0  0  0  0  0  0  0  0  0  0  0
   -6.8420   -4.6342   -6.8004 H   0  0  0  0  0  0  0  0  0  0  0  0
   -8.3923   -4.6611   -5.9985 H   0  0  0  0  0  0  0  0  0  0  0  0
   -6.5072   -3.6532   -4.6744 H   0  0  0  0  0  0  0  0  0  0  0  0
   -7.2145   -5.0229   -3.8258 H   0  0  0  0  0  0  0  0  0  0  0  0
   -4.4358   -7.1931   -4.6171 H   0  0  0  0  0  0  0  0  0  0  0  0
   -5.9998   -7.0860   -3.8264 H   0  0  0  0  0  0  0  0  0  0  0  0
   -6.1852   -8.3661   -5.9505 H   0  0  0  0  0  0  0  0  0  0  0  0
   -5.4416   -7.0626   -6.8444 H   0  0  0  0  0  0  0  0  0  0  0  0
   -9.6906  -11.2651   -9.6406 H   0  0  0  0  0  0  0  0  0  0  0  0
  1  2  2  0
  2  7  1  0
  2  3  1  0
  3  4  1  0
  3 28  1  0
  4  5  2  0
  4 17  1  0
  5  6  1  0
  6 10  1  0
  6  7  2  0
  7  8  1  0
  8  9  2  0
  8 18  1  0
  9 10  1  0
 10 11  1  0
 11 16  1  0
 11 12  1  0
 11 19  1  0
 12 13  1  0
 12 20  1  0
 12 21  1  0
 13 14  1  0
 13 22  1  0
 13 23  1  0
 14 15  1  0
 15 16  1  0
 15 24  1  0
 15 25  1  0
 16 26  1  0
 16 27  1  0
M  END
>  <i_m_ct_stereo_status>  (85) 
1

>  <s_m_source_file>  (85) 
/var/tmp/pbs.5076255.sched01/tmpvsf1hu0j/0g1dnczxv.sdf

>  <i_m_source_file_index>  (85) 
37

>  <i_lp_mmshare_version>  (85) 
48012

>  <i_f3d_flags>  (85) 
0

>  <s_epik_input>  (85) 
W25IXTFbY0hdbmMoPU8pYyhjMTIpW2NIXW5uMltDSF0zW0NIMl1bQ0gyXU9bQ0gyXVtDSDJdMw==

>  <s_epik_cmdline>  (85) 
J2VwaWtfcHl0aG9uJywgJy1waHQnLCAnMi4wJywgJy1waCcsICc3LjAnLCAnLXRuJywgJzgnLCAnLW1hJywgJzIwMCcsICctaW1hZScsICc8aW5maWxlLm1hZT4nLCAnLW9tYWUnLCAnPG91dGZpbGUubWFlPic=

>  <r_epik_Ionization_Penalty>  (85) 
0.00832734

>  <r_epik_Ionization_Penalty_Charging>  (85) 
0.00832663

>  <r_epik_Ionization_Penalty_Neutral>  (85) 
7.14038e-07

>  <r_epik_State_Penalty>  (85) 
0.00626878

>  <r_epik_Charging_Adjusted_Penalty>  (85) 
0.0145954

>  <i_epik_Tot_Q>  (85) 
0

>  <i_epik_Tot_abs_Q>  (85) 
0

>  <s_lp_Force_Field>  (85) 
OPLS3e

>  <r_lp_Energy>  (85) 
-1.58645

>  <b_lp_Chiralities_Consistent>  (85) 
1

>  <s_lp_Variant>  (85) 
31:0-1

>  <s_i_glide_gridfile>  (85) 
pfpi4k_grid

>  <i_i_glide_lignum>  (85) 
37

>  <i_i_glide_rotatable_bonds>  (85) 
1

>  <r_i_docking_score>  (85) 
-5.63696

>  <r_i_glide_ligand_efficiency>  (85) 
-0.35231

>  <r_i_glide_ligand_efficiency_sa>  (85) 
-0.887766

>  <r_i_glide_ligand_efficiency_ln>  (85) 
-1.49419

>  <r_i_glide_gscore>  (85) 
-5.63696

>  <r_i_glide_lipo>  (85) 
-1.56598

>  <r_i_glide_hbond>  (85) 
-0.144755

>  <r_i_glide_metal>  (85) 
-0

>  <r_i_glide_rewards>  (85) 
-2.8935

>  <r_i_glide_evdw>  (85) 
-23.6984

>  <r_i_glide_ecoul>  (85) 
-1.30143

>  <r_i_glide_erotb>  (85) 
0.347404

>  <r_i_glide_esite>  (85) 
0

>  <r_i_glide_emodel>  (85) 
-34.2358

>  <r_i_glide_energy>  (85) 
-24.9999

>  <r_i_glide_einternal>  (85) 
1.78016

>  <r_i_glide_intrahb_reward>  (85) 
-0

>  <i_i_glide_confnum>  (85) 
2

>  <i_i_glide_posenum>  (85) 
8

>  <r_i_glide_eff_state_penalty>  (85) 
0

>  <ligand_id>  (85) 
31

>  <original_smiles>  (85) 
O=c1nc[nH]c2c1cnn2C1CCOCC1

>  <smiles>  (85) 
[H]c1nn(C2([H])C([H])([H])C([H])([H])OC([H])([H])C2([H])[H])c2nc([H])n([H])c(=O)c12

$$$$
31:0:1
     RDKit          3D

 28 30  0  0  1  0  0  0  0  0999 V2000
   -0.5981    0.7315    2.1779 O   0  0  0  0  0  0  0  0  0  0  0  0
   -0.7662    1.5936    3.0282 C   0  0  0  0  0  0  0  0  0  0  0  0
   -0.6322    2.9257    2.8542 N   0  0  0  0  0  0  0  0  0  0  0  0
   -0.8362    3.8519    3.8946 C   0  0  0  0  0  0  0  0  0  0  0  0
   -1.1798    3.5494    5.1191 N   0  0  0  0  0  0  0  0  0  0  0  0
   -1.3189    2.1878    5.3537 C   0  0  0  0  0  0  0  0  0  0  0  0
   -1.1458    1.2382    4.4244 C   0  0  0  0  0  0  0  0  0  0  0  0
   -1.3836   -0.0213    5.0524 C   0  0  0  0  0  0  0  0  0  0  0  0
   -1.7023    0.1850    6.3424 N   0  0  0  0  0  0  0  0  0  0  0  0
   -1.6465    1.5421    6.5249 N   0  0  0  0  0  0  0  0  0  0  0  0
   -1.9178    2.1493    7.8107 C   0  0  0  0  0  0  0  0  0  0  0  0
   -3.1376    3.0792    7.7184 C   0  0  0  0  0  0  0  0  0  0  0  0
   -3.3451    3.8691    9.0139 C   0  0  0  0  0  0  0  0  0  0  0  0
   -2.1592    4.5928    9.3148 O   0  0  0  0  0  0  0  0  0  0  0  0
   -1.0525    3.7387    9.5811 C   0  0  0  0  0  0  0  0  0  0  0  0
   -0.6984    2.9452    8.3188 C   0  0  0  0  0  0  0  0  0  0  0  0
   -0.6793    4.8868    3.5667 H   0  0  0  0  0  0  0  0  0  0  0  0
   -1.3478   -1.0409    4.6658 H   0  0  0  0  0  0  0  0  0  0  0  0
   -2.1417    1.3704    8.5422 H   0  0  0  0  0  0  0  0  0  0  0  0
   -3.0061    3.8036    6.9181 H   0  0  0  0  0  0  0  0  0  0  0  0
   -4.0388    2.5248    7.4637 H   0  0  0  0  0  0  0  0  0  0  0  0
   -4.1665    4.5762    8.8909 H   0  0  0  0  0  0  0  0  0  0  0  0
   -3.6143    3.2045    9.8342 H   0  0  0  0  0  0  0  0  0  0  0  0
   -0.2000    4.3504    9.8761 H   0  0  0  0  0  0  0  0  0  0  0  0
   -1.2749    3.0651   10.4079 H   0  0  0  0  0  0  0  0  0  0  0  0
    0.1421    2.2745    8.4998 H   0  0  0  0  0  0  0  0  0  0  0  0
   -0.3526    3.6623    7.5761 H   0  0  0  0  0  0  0  0  0  0  0  0
   -0.3647    3.2939    1.9366 H   0  0  0  0  0  0  0  0  0  0  0  0
  1  2  2  0
  2  7  1  0
  2  3  1  0
  3  4  1  0
  3 28  1  0
  4  5  2  0
  4 17  1  0
  5  6  1  0
  6 10  1  0
  6  7  2  0
  7  8  1  0
  8  9  2  0
  8 18  1  0
  9 10  1  0
 10 11  1  0
 11 16  1  0
 11 12  1  0
 11 19  1  0
 12 13  1  0
 12 20  1  0
 12 21  1  0
 13 14  1  0
 13 22  1  0
 13 23  1  0
 14 15  1  0
 15 16  1  0
 15 24  1  0
 15 25  1  0
 16 26  1  0
 16 27  1  0
M  END
>  <i_m_ct_stereo_status>  (86) 
1

>  <s_m_source_file>  (86) 
/var/tmp/pbs.5076255.sched01/tmpvsf1hu0j/0g1dnczxv.sdf

>  <i_m_source_file_index>  (86) 
37

>  <i_lp_mmshare_version>  (86) 
48012

>  <i_f3d_flags>  (86) 
0

>  <s_epik_input>  (86) 
W25IXTFbY0hdbmMoPU8pYyhjMTIpW2NIXW5uMltDSF0zW0NIMl1bQ0gyXU9bQ0gyXVtDSDJdMw==

>  <s_epik_cmdline>  (86) 
J2VwaWtfcHl0aG9uJywgJy1waHQnLCAnMi4wJywgJy1waCcsICc3LjAnLCAnLXRuJywgJzgnLCAnLW1hJywgJzIwMCcsICctaW1hZScsICc8aW5maWxlLm1hZT4nLCAnLW9tYWUnLCAnPG91dGZpbGUubWFlPic=

>  <r_epik_Ionization_Penalty>  (86) 
0.00832734

>  <r_epik_Ionization_Penalty_Charging>  (86) 
0.00832663

>  <r_epik_Ionization_Penalty_Neutral>  (86) 
7.14038e-07

>  <r_epik_State_Penalty>  (86) 
0.00626878

>  <r_epik_Charging_Adjusted_Penalty>  (86) 
0.0145954

>  <i_epik_Tot_Q>  (86) 
0

>  <i_epik_Tot_abs_Q>  (86) 
0

>  <s_lp_Force_Field>  (86) 
OPLS3e

>  <r_lp_Energy>  (86) 
-1.58645

>  <b_lp_Chiralities_Consistent>  (86) 
1

>  <s_lp_Variant>  (86) 
31:0-1

>  <s_i_glide_gridfile>  (86) 
pfpi4k_grid

>  <i_i_glide_lignum>  (86) 
37

>  <i_i_glide_rotatable_bonds>  (86) 
1

>  <r_i_docking_score>  (86) 
-4.10429

>  <r_i_glide_ligand_efficiency>  (86) 
-0.256518

>  <r_i_glide_ligand_efficiency_sa>  (86) 
-0.646386

>  <r_i_glide_ligand_efficiency_ln>  (86) 
-1.08792

>  <r_i_glide_gscore>  (86) 
-4.10429

>  <r_i_glide_lipo>  (86) 
-0.185285

>  <r_i_glide_hbond>  (86) 
-0.32

>  <r_i_glide_metal>  (86) 
-0

>  <r_i_glide_rewards>  (86) 
-1.90754

>  <r_i_glide_evdw>  (86) 
-17.6728

>  <r_i_glide_ecoul>  (86) 
-6.25773

>  <r_i_glide_erotb>  (86) 
0.347404

>  <r_i_glide_esite>  (86) 
-0.216576

>  <r_i_glide_emodel>  (86) 
-30.4458

>  <r_i_glide_energy>  (86) 
-23.9305

>  <r_i_glide_einternal>  (86) 
1.21526

>  <r_i_glide_intrahb_reward>  (86) 
-0

>  <i_i_glide_confnum>  (86) 
2

>  <i_i_glide_posenum>  (86) 
16

>  <r_i_glide_eff_state_penalty>  (86) 
0

>  <ligand_id>  (86) 
31

>  <original_smiles>  (86) 
O=c1nc[nH]c2c1cnn2C1CCOCC1

>  <smiles>  (86) 
[H]c1nn(C2([H])C([H])([H])C([H])([H])OC([H])([H])C2([H])[H])c2nc([H])n([H])c(=O)c12

$$$$
31:0:2
     RDKit          3D

 28 30  0  0  1  0  0  0  0  0999 V2000
    6.5572   -1.9129   -1.0922 O   0  0  0  0  0  0  0  0  0  0  0  0
    5.5420   -2.5780   -0.8703 C   0  0  0  0  0  0  0  0  0  0  0  0
    4.2906   -2.2461   -1.2678 N   0  0  0  0  0  0  0  0  0  0  0  0
    3.1509   -3.0386   -0.9894 C   0  0  0  0  0  0  0  0  0  0  0  0
    3.1680   -4.1515   -0.3133 N   0  0  0  0  0  0  0  0  0  0  0  0
    4.4271   -4.5499    0.1049 C   0  0  0  0  0  0  0  0  0  0  0  0
    5.5687   -3.8579   -0.1158 C   0  0  0  0  0  0  0  0  0  0  0  0
    6.6230   -4.5834    0.4911 C   0  0  0  0  0  0  0  0  0  0  0  0
    6.1264   -5.6846    1.0623 N   0  0  0  0  0  0  0  0  0  0  0  0
    4.7857   -5.6831    0.8005 N   0  0  0  0  0  0  0  0  0  0  0  0
    3.9259   -6.7406    1.2986 C   0  0  0  0  0  0  0  0  0  0  0  0
    3.5654   -6.5141    2.7719 C   0  0  0  0  0  0  0  0  0  0  0  0
    2.7714   -7.7041    3.3313 C   0  0  0  0  0  0  0  0  0  0  0  0
    3.5072   -8.9051    3.1338 O   0  0  0  0  0  0  0  0  0  0  0  0
    3.7045   -9.2161    1.7591 C   0  0  0  0  0  0  0  0  0  0  0  0
    4.5621   -8.1258    1.1076 C   0  0  0  0  0  0  0  0  0  0  0  0
    2.2201   -2.6276   -1.3954 H   0  0  0  0  0  0  0  0  0  0  0  0
    7.6842   -4.3811    0.5463 H   0  0  0  0  0  0  0  0  0  0  0  0
    3.0022   -6.7207    0.7202 H   0  0  0  0  0  0  0  0  0  0  0  0
    4.4771   -6.3843    3.3558 H   0  0  0  0  0  0  0  0  0  0  0  0
    2.9870   -5.5953    2.8848 H   0  0  0  0  0  0  0  0  0  0  0  0
    2.5997   -7.5687    4.4000 H   0  0  0  0  0  0  0  0  0  0  0  0
    1.7917   -7.7871    2.8579 H   0  0  0  0  0  0  0  0  0  0  0  0
    4.2235  -10.1735    1.6891 H   0  0  0  0  0  0  0  0  0  0  0  0
    2.7470   -9.3236    1.2455 H   0  0  0  0  0  0  0  0  0  0  0  0
    4.6941   -8.3313    0.0431 H   0  0  0  0  0  0  0  0  0  0  0  0
    5.5524   -8.1584    1.5656 H   0  0  0  0  0  0  0  0  0  0  0  0
    4.1601   -1.3850   -1.7747 H   0  0  0  0  0  0  0  0  0  0  0  0
  1  2  2  0
  2  7  1  0
  2  3  1  0
  3  4  1  0
  3 28  1  0
  4  5  2  0
  4 17  1  0
  5  6  1  0
  6 10  1  0
  6  7  2  0
  7  8  1  0
  8  9  2  0
  8 18  1  0
  9 10  1  0
 10 11  1  0
 11 16  1  0
 11 12  1  0
 11 19  1  0
 12 13  1  0
 12 20  1  0
 12 21  1  0
 13 14  1  0
 13 22  1  0
 13 23  1  0
 14 15  1  0
 15 16  1  0
 15 24  1  0
 15 25  1  0
 16 26  1  0
 16 27  1  0
M  END
>  <i_m_ct_stereo_status>  (87) 
1

>  <s_m_source_file>  (87) 
/var/tmp/pbs.5076255.sched01/tmpvsf1hu0j/0g1dnczxv.sdf

>  <i_m_source_file_index>  (87) 
37

>  <i_lp_mmshare_version>  (87) 
48012

>  <i_f3d_flags>  (87) 
0

>  <s_epik_input>  (87) 
W25IXTFbY0hdbmMoPU8pYyhjMTIpW2NIXW5uMltDSF0zW0NIMl1bQ0gyXU9bQ0gyXVtDSDJdMw==

>  <s_epik_cmdline>  (87) 
J2VwaWtfcHl0aG9uJywgJy1waHQnLCAnMi4wJywgJy1waCcsICc3LjAnLCAnLXRuJywgJzgnLCAnLW1hJywgJzIwMCcsICctaW1hZScsICc8aW5maWxlLm1hZT4nLCAnLW9tYWUnLCAnPG91dGZpbGUubWFlPic=

>  <r_epik_Ionization_Penalty>  (87) 
0.00832734

>  <r_epik_Ionization_Penalty_Charging>  (87) 
0.00832663

>  <r_epik_Ionization_Penalty_Neutral>  (87) 
7.14038e-07

>  <r_epik_State_Penalty>  (87) 
0.00626878

>  <r_epik_Charging_Adjusted_Penalty>  (87) 
0.0145954

>  <i_epik_Tot_Q>  (87) 
0

>  <i_epik_Tot_abs_Q>  (87) 
0

>  <s_lp_Force_Field>  (87) 
OPLS3e

>  <r_lp_Energy>  (87) 
-1.58645

>  <b_lp_Chiralities_Consistent>  (87) 
1

>  <s_lp_Variant>  (87) 
31:0-1

>  <s_i_glide_gridfile>  (87) 
pfpi4k_grid

>  <i_i_glide_lignum>  (87) 
37

>  <i_i_glide_rotatable_bonds>  (87) 
1

>  <r_i_docking_score>  (87) 
-3.6391

>  <r_i_glide_ligand_efficiency>  (87) 
-0.227444

>  <r_i_glide_ligand_efficiency_sa>  (87) 
-0.573122

>  <r_i_glide_ligand_efficiency_ln>  (87) 
-0.964615

>  <r_i_glide_gscore>  (87) 
-3.6391

>  <r_i_glide_lipo>  (87) 
-0.26442

>  <r_i_glide_hbond>  (87) 
-0.16

>  <r_i_glide_metal>  (87) 
-0

>  <r_i_glide_rewards>  (87) 
-2.03478

>  <r_i_glide_evdw>  (87) 
-19.1993

>  <r_i_glide_ecoul>  (87) 
-3.5896

>  <r_i_glide_erotb>  (87) 
0.347404

>  <r_i_glide_esite>  (87) 
-0.0288904

>  <r_i_glide_emodel>  (87) 
-29.1056

>  <r_i_glide_energy>  (87) 
-22.7889

>  <r_i_glide_einternal>  (87) 
0.471291

>  <r_i_glide_intrahb_reward>  (87) 
-0

>  <i_i_glide_confnum>  (87) 
1

>  <i_i_glide_posenum>  (87) 
2

>  <r_i_glide_eff_state_penalty>  (87) 
0

>  <ligand_id>  (87) 
31

>  <original_smiles>  (87) 
O=c1nc[nH]c2c1cnn2C1CCOCC1

>  <smiles>  (87) 
[H]c1nn(C2([H])C([H])([H])C([H])([H])OC([H])([H])C2([H])[H])c2nc([H])n([H])c(=O)c12

$$$$
31:1:0
     RDKit          3D

 27 29  0  0  1  0  0  0  0  0999 V2000
   -0.1967   -6.7005    0.5075 O   0  0  0  0  0  0  0  0  0  0  0  0
    0.5919   -6.6498    1.4365 C   0  0  0  0  0  0  0  0  0  0  0  0
    1.8628   -6.1636    1.3802 N   0  0  0  0  0  0  0  0  0  0  0  0
    2.6571   -6.1094    2.5156 C   0  0  0  0  0  0  0  0  0  0  0  0
    2.3110   -6.4329    3.7139 N   0  0  0  0  0  0  0  0  0  0  0  0
    1.0174   -6.9079    3.8566 C   0  0  0  0  0  0  0  0  0  0  0  0
    0.1638   -7.0394    2.8169 C   0  0  0  0  0  0  0  0  0  0  0  0
   -1.0631   -7.5204    3.3454 C   0  0  0  0  0  0  0  0  0  0  0  0
   -0.9485   -7.6335    4.6683 N   0  0  0  0  0  0  0  0  0  0  0  0
    0.3426   -7.3081    4.9827 N   0  0  0  0  0  0  0  0  0  0  0  0
    0.8202   -7.3639    6.3484 C   0  0  0  0  0  0  0  0  0  0  0  0
    0.4854   -8.7051    7.0219 C   0  0  0  0  0  0  0  0  0  0  0  0
    0.8729   -8.6911    8.5075 C   0  0  0  0  0  0  0  0  0  0  0  0
    0.2367   -7.5893    9.1535 O   0  0  0  0  0  0  0  0  0  0  0  0
    0.6843   -6.3323    8.6526 C   0  0  0  0  0  0  0  0  0  0  0  0
    0.2823   -6.1901    7.1761 C   0  0  0  0  0  0  0  0  0  0  0  0
    3.6646   -5.7492    2.2997 H   0  0  0  0  0  0  0  0  0  0  0  0
   -2.0073   -7.7631    2.8725 H   0  0  0  0  0  0  0  0  0  0  0  0
    1.9084   -7.2770    6.3314 H   0  0  0  0  0  0  0  0  0  0  0  0
   -0.5827   -8.9131    6.9576 H   0  0  0  0  0  0  0  0  0  0  0  0
    0.9926   -9.5242    6.5053 H   0  0  0  0  0  0  0  0  0  0  0  0
    0.5482   -9.6226    8.9727 H   0  0  0  0  0  0  0  0  0  0  0  0
    1.9560   -8.6334    8.6274 H   0  0  0  0  0  0  0  0  0  0  0  0
    0.2246   -5.5363    9.2377 H   0  0  0  0  0  0  0  0  0  0  0  0
    1.7655   -6.2367    8.7744 H   0  0  0  0  0  0  0  0  0  0  0  0
    0.6484   -5.2436    6.7750 H   0  0  0  0  0  0  0  0  0  0  0  0
   -0.8026   -6.1566    7.1041 H   0  0  0  0  0  0  0  0  0  0  0  0
  1  2  2  0
  2  7  1  0
  2  3  1  0
  3  4  1  0
  4  5  2  0
  4 17  1  0
  5  6  1  0
  6 10  1  0
  6  7  2  0
  7  8  1  0
  8  9  2  0
  8 18  1  0
  9 10  1  0
 10 11  1  0
 11 16  1  0
 11 12  1  0
 11 19  1  0
 12 13  1  0
 12 20  1  0
 12 21  1  0
 13 14  1  0
 13 22  1  0
 13 23  1  0
 14 15  1  0
 15 16  1  0
 15 24  1  0
 15 25  1  0
 16 26  1  0
 16 27  1  0
M  CHG  1   3  -1
M  END
>  <i_m_ct_stereo_status>  (88) 
1

>  <s_m_source_file>  (88) 
/var/tmp/pbs.5076255.sched01/tmpvsf1hu0j/0g1dnczxv.sdf

>  <i_m_source_file_index>  (88) 
38

>  <i_lp_mmshare_version>  (88) 
48012

>  <i_f3d_flags>  (88) 
0

>  <s_epik_input>  (88) 
W25IXTFbY0hdbmMoPU8pYyhjMTIpW2NIXW5uMltDSF0zW0NIMl1bQ0gyXU9bQ0gyXVtDSDJdMw==

>  <s_epik_cmdline>  (88) 
J2VwaWtfcHl0aG9uJywgJy1waHQnLCAnMi4wJywgJy1waCcsICc3LjAnLCAnLXRuJywgJzgnLCAnLW1hJywgJzIwMCcsICctaW1hZScsICc8aW5maWxlLm1hZT4nLCAnLW9tYWUnLCAnPG91dGZpbGUubWFlPic=

>  <r_epik_Ionization_Penalty>  (88) 
2.53103

>  <r_epik_Ionization_Penalty_Charging>  (88) 
9.49647e-10

>  <r_epik_Ionization_Penalty_Neutral>  (88) 
2.53103

>  <r_epik_State_Penalty>  (88) 
2.6982

>  <r_epik_Charging_Adjusted_Penalty>  (88) 
2.6982

>  <i_epik_Tot_Q>  (88) 
-1

>  <i_epik_Tot_abs_Q>  (88) 
1

>  <s_lp_Force_Field>  (88) 
OPLS3e

>  <r_lp_Energy>  (88) 
18.6563

>  <b_lp_Chiralities_Consistent>  (88) 
1

>  <s_lp_Variant>  (88) 
31:0-2

>  <s_i_glide_gridfile>  (88) 
pfpi4k_grid

>  <i_i_glide_lignum>  (88) 
38

>  <i_i_glide_rotatable_bonds>  (88) 
1

>  <r_i_docking_score>  (88) 
-3.21578

>  <r_i_glide_ligand_efficiency>  (88) 
-0.200986

>  <r_i_glide_ligand_efficiency_sa>  (88) 
-0.506453

>  <r_i_glide_ligand_efficiency_ln>  (88) 
-0.852406

>  <r_i_glide_gscore>  (88) 
-3.21578

>  <r_i_glide_lipo>  (88) 
0

>  <r_i_glide_hbond>  (88) 
-0.397426

>  <r_i_glide_metal>  (88) 
-0

>  <r_i_glide_rewards>  (88) 
-1.91441

>  <r_i_glide_evdw>  (88) 
-16.6844

>  <r_i_glide_ecoul>  (88) 
-2.52747

>  <r_i_glide_erotb>  (88) 
0.350103

>  <r_i_glide_esite>  (88) 
-0.0407042

>  <r_i_glide_emodel>  (88) 
-25.2367

>  <r_i_glide_energy>  (88) 
-19.2119

>  <r_i_glide_einternal>  (88) 
0.241469

>  <r_i_glide_intrahb_reward>  (88) 
-0

>  <i_i_glide_confnum>  (88) 
1

>  <i_i_glide_posenum>  (88) 
4

>  <r_i_glide_eff_state_penalty>  (88) 
0

>  <ligand_id>  (88) 
31

>  <original_smiles>  (88) 
O=c1nc[nH]c2c1cnn2C1CCOCC1

>  <smiles>  (88) 
[H]c1nc2c(c([H])nn2C2([H])C([H])([H])C([H])([H])OC([H])([H])C2([H])[H])c(=O)[n-]1

$$$$
31:1:1
     RDKit          3D

 27 29  0  0  1  0  0  0  0  0999 V2000
    1.2121   -4.9492    4.4140 O   0  0  0  0  0  0  0  0  0  0  0  0
    1.3882   -5.2708    3.2406 C   0  0  0  0  0  0  0  0  0  0  0  0
    0.7299   -6.2330    2.5120 N   0  0  0  0  0  0  0  0  0  0  0  0
    1.1155   -6.5273    1.2085 C   0  0  0  0  0  0  0  0  0  0  0  0
    1.9671   -5.8752    0.4924 N   0  0  0  0  0  0  0  0  0  0  0  0
    2.6223   -4.8389    1.1293 C   0  0  0  0  0  0  0  0  0  0  0  0
    2.3875   -4.5132    2.4224 C   0  0  0  0  0  0  0  0  0  0  0  0
    3.2001   -3.3923    2.7183 C   0  0  0  0  0  0  0  0  0  0  0  0
    3.8885   -3.0486    1.6294 N   0  0  0  0  0  0  0  0  0  0  0  0
    3.5579   -3.9499    0.6529 N   0  0  0  0  0  0  0  0  0  0  0  0
    4.1206   -3.8545   -0.6781 C   0  0  0  0  0  0  0  0  0  0  0  0
    5.5338   -3.2590   -0.6708 C   0  0  0  0  0  0  0  0  0  0  0  0
    6.0604   -3.0517   -2.0973 C   0  0  0  0  0  0  0  0  0  0  0  0
    5.1436   -2.2461   -2.8277 O   0  0  0  0  0  0  0  0  0  0  0  0
    3.8700   -2.8607   -2.9891 C   0  0  0  0  0  0  0  0  0  0  0  0
    3.2080   -3.0518   -1.6146 C   0  0  0  0  0  0  0  0  0  0  0  0
    0.5892   -7.3902    0.7880 H   0  0  0  0  0  0  0  0  0  0  0  0
    3.3168   -2.8170    3.6309 H   0  0  0  0  0  0  0  0  0  0  0  0
    4.2039   -4.8685   -1.0752 H   0  0  0  0  0  0  0  0  0  0  0  0
    5.5374   -2.2829   -0.1819 H   0  0  0  0  0  0  0  0  0  0  0  0
    6.2090   -3.9074   -0.1050 H   0  0  0  0  0  0  0  0  0  0  0  0
    7.0275   -2.5478   -2.0515 H   0  0  0  0  0  0  0  0  0  0  0  0
    6.2109   -3.9997   -2.6095 H   0  0  0  0  0  0  0  0  0  0  0  0
    3.2492   -2.2215   -3.6173 H   0  0  0  0  0  0  0  0  0  0  0  0
    3.9792   -3.8139   -3.5104 H   0  0  0  0  0  0  0  0  0  0  0  0
    2.2477   -3.5543   -1.7401 H   0  0  0  0  0  0  0  0  0  0  0  0
    2.9984   -2.0791   -1.1751 H   0  0  0  0  0  0  0  0  0  0  0  0
  1  2  2  0
  2  7  1  0
  2  3  1  0
  3  4  1  0
  4  5  2  0
  4 17  1  0
  5  6  1  0
  6 10  1  0
  6  7  2  0
  7  8  1  0
  8  9  2  0
  8 18  1  0
  9 10  1  0
 10 11  1  0
 11 16  1  0
 11 12  1  0
 11 19  1  0
 12 13  1  0
 12 20  1  0
 12 21  1  0
 13 14  1  0
 13 22  1  0
 13 23  1  0
 14 15  1  0
 15 16  1  0
 15 24  1  0
 15 25  1  0
 16 26  1  0
 16 27  1  0
M  CHG  1   3  -1
M  END
>  <i_m_ct_stereo_status>  (89) 
1

>  <s_m_source_file>  (89) 
/var/tmp/pbs.5076255.sched01/tmpvsf1hu0j/0g1dnczxv.sdf

>  <i_m_source_file_index>  (89) 
38

>  <i_lp_mmshare_version>  (89) 
48012

>  <i_f3d_flags>  (89) 
0

>  <s_epik_input>  (89) 
W25IXTFbY0hdbmMoPU8pYyhjMTIpW2NIXW5uMltDSF0zW0NIMl1bQ0gyXU9bQ0gyXVtDSDJdMw==

>  <s_epik_cmdline>  (89) 
J2VwaWtfcHl0aG9uJywgJy1waHQnLCAnMi4wJywgJy1waCcsICc3LjAnLCAnLXRuJywgJzgnLCAnLW1hJywgJzIwMCcsICctaW1hZScsICc8aW5maWxlLm1hZT4nLCAnLW9tYWUnLCAnPG91dGZpbGUubWFlPic=

>  <r_epik_Ionization_Penalty>  (89) 
2.53103

>  <r_epik_Ionization_Penalty_Charging>  (89) 
9.49647e-10

>  <r_epik_Ionization_Penalty_Neutral>  (89) 
2.53103

>  <r_epik_State_Penalty>  (89) 
2.6982

>  <r_epik_Charging_Adjusted_Penalty>  (89) 
2.6982

>  <i_epik_Tot_Q>  (89) 
-1

>  <i_epik_Tot_abs_Q>  (89) 
1

>  <s_lp_Force_Field>  (89) 
OPLS3e

>  <r_lp_Energy>  (89) 
18.6563

>  <b_lp_Chiralities_Consistent>  (89) 
1

>  <s_lp_Variant>  (89) 
31:0-2

>  <s_i_glide_gridfile>  (89) 
pfpi4k_grid

>  <i_i_glide_lignum>  (89) 
38

>  <i_i_glide_rotatable_bonds>  (89) 
1

>  <r_i_docking_score>  (89) 
-3.08275

>  <r_i_glide_ligand_efficiency>  (89) 
-0.192672

>  <r_i_glide_ligand_efficiency_sa>  (89) 
-0.485503

>  <r_i_glide_ligand_efficiency_ln>  (89) 
-0.817144

>  <r_i_glide_gscore>  (89) 
-3.08275

>  <r_i_glide_lipo>  (89) 
-0.270845

>  <r_i_glide_hbond>  (89) 
-0.0182646

>  <r_i_glide_metal>  (89) 
-0

>  <r_i_glide_rewards>  (89) 
-1.91441

>  <r_i_glide_evdw>  (89) 
-19.3613

>  <r_i_glide_ecoul>  (89) 
-1.05248

>  <r_i_glide_erotb>  (89) 
0.350103

>  <r_i_glide_esite>  (89) 
-0.103398

>  <r_i_glide_emodel>  (89) 
-25.8025

>  <r_i_glide_energy>  (89) 
-20.4137

>  <r_i_glide_einternal>  (89) 
1.03606

>  <r_i_glide_intrahb_reward>  (89) 
-0

>  <i_i_glide_confnum>  (89) 
1

>  <i_i_glide_posenum>  (89) 
10

>  <r_i_glide_eff_state_penalty>  (89) 
0

>  <ligand_id>  (89) 
31

>  <original_smiles>  (89) 
O=c1nc[nH]c2c1cnn2C1CCOCC1

>  <smiles>  (89) 
[H]c1nc2c(c([H])nn2C2([H])C([H])([H])C([H])([H])OC([H])([H])C2([H])[H])c(=O)[n-]1

$$$$
31:1:2
     RDKit          3D

 27 29  0  0  1  0  0  0  0  0999 V2000
    0.2141   -3.8798    5.0535 O   0  0  0  0  0  0  0  0  0  0  0  0
    0.6062   -2.8640    4.4859 C   0  0  0  0  0  0  0  0  0  0  0  0
    1.6722   -2.7126    3.6361 N   0  0  0  0  0  0  0  0  0  0  0  0
    1.9728   -1.4790    3.0665 C   0  0  0  0  0  0  0  0  0  0  0  0
    1.3323   -0.3764    3.2405 N   0  0  0  0  0  0  0  0  0  0  0  0
    0.2387   -0.4491    4.0783 C   0  0  0  0  0  0  0  0  0  0  0  0
   -0.1453   -1.5891    4.6918 C   0  0  0  0  0  0  0  0  0  0  0  0
   -1.2963   -1.2855    5.4533 C   0  0  0  0  0  0  0  0  0  0  0  0
   -1.5845    0.0083    5.3299 N   0  0  0  0  0  0  0  0  0  0  0  0
   -0.6518    0.5228    4.4652 N   0  0  0  0  0  0  0  0  0  0  0  0
   -0.6616    1.9262    4.0940 C   0  0  0  0  0  0  0  0  0  0  0  0
   -0.3122    2.8196    5.2914 C   0  0  0  0  0  0  0  0  0  0  0  0
   -0.4653    4.3035    4.9291 C   0  0  0  0  0  0  0  0  0  0  0  0
   -1.7859    4.5418    4.4501 O   0  0  0  0  0  0  0  0  0  0  0  0
   -2.0690    3.8416    3.2446 C   0  0  0  0  0  0  0  0  0  0  0  0
   -2.0099    2.3368    3.4912 C   0  0  0  0  0  0  0  0  0  0  0  0
    2.8540   -1.5065    2.4159 H   0  0  0  0  0  0  0  0  0  0  0  0
   -1.9192   -1.9146    6.0744 H   0  0  0  0  0  0  0  0  0  0  0  0
    0.0976    2.0851    3.3271 H   0  0  0  0  0  0  0  0  0  0  0  0
   -0.9741    2.5878    6.1247 H   0  0  0  0  0  0  0  0  0  0  0  0
    0.7057    2.6173    5.6279 H   0  0  0  0  0  0  0  0  0  0  0  0
   -0.2985    4.9163    5.8160 H   0  0  0  0  0  0  0  0  0  0  0  0
    0.2729    4.6071    4.1829 H   0  0  0  0  0  0  0  0  0  0  0  0
   -3.0594    4.1160    2.8876 H   0  0  0  0  0  0  0  0  0  0  0  0
   -1.3579    4.1343    2.4799 H   0  0  0  0  0  0  0  0  0  0  0  0
   -2.1849    1.7883    2.5641 H   0  0  0  0  0  0  0  0  0  0  0  0
   -2.8167    2.0756    4.1709 H   0  0  0  0  0  0  0  0  0  0  0  0
  1  2  2  0
  2  7  1  0
  2  3  1  0
  3  4  1  0
  4  5  2  0
  4 17  1  0
  5  6  1  0
  6 10  1  0
  6  7  2  0
  7  8  1  0
  8  9  2  0
  8 18  1  0
  9 10  1  0
 10 11  1  0
 11 16  1  0
 11 12  1  0
 11 19  1  0
 12 13  1  0
 12 20  1  0
 12 21  1  0
 13 14  1  0
 13 22  1  0
 13 23  1  0
 14 15  1  0
 15 16  1  0
 15 24  1  0
 15 25  1  0
 16 26  1  0
 16 27  1  0
M  CHG  1   3  -1
M  END
>  <i_m_ct_stereo_status>  (90) 
1

>  <s_m_source_file>  (90) 
/var/tmp/pbs.5076255.sched01/tmpvsf1hu0j/0g1dnczxv.sdf

>  <i_m_source_file_index>  (90) 
38

>  <i_lp_mmshare_version>  (90) 
48012

>  <i_f3d_flags>  (90) 
0

>  <s_epik_input>  (90) 
W25IXTFbY0hdbmMoPU8pYyhjMTIpW2NIXW5uMltDSF0zW0NIMl1bQ0gyXU9bQ0gyXVtDSDJdMw==

>  <s_epik_cmdline>  (90) 
J2VwaWtfcHl0aG9uJywgJy1waHQnLCAnMi4wJywgJy1waCcsICc3LjAnLCAnLXRuJywgJzgnLCAnLW1hJywgJzIwMCcsICctaW1hZScsICc8aW5maWxlLm1hZT4nLCAnLW9tYWUnLCAnPG91dGZpbGUubWFlPic=

>  <r_epik_Ionization_Penalty>  (90) 
2.53103

>  <r_epik_Ionization_Penalty_Charging>  (90) 
9.49647e-10

>  <r_epik_Ionization_Penalty_Neutral>  (90) 
2.53103

>  <r_epik_State_Penalty>  (90) 
2.6982

>  <r_epik_Charging_Adjusted_Penalty>  (90) 
2.6982

>  <i_epik_Tot_Q>  (90) 
-1

>  <i_epik_Tot_abs_Q>  (90) 
1

>  <s_lp_Force_Field>  (90) 
OPLS3e

>  <r_lp_Energy>  (90) 
18.6563

>  <b_lp_Chiralities_Consistent>  (90) 
1

>  <s_lp_Variant>  (90) 
31:0-2

>  <s_i_glide_gridfile>  (90) 
pfpi4k_grid

>  <i_i_glide_lignum>  (90) 
38

>  <i_i_glide_rotatable_bonds>  (90) 
1

>  <r_i_docking_score>  (90) 
-2.80377

>  <r_i_glide_ligand_efficiency>  (90) 
-0.175235

>  <r_i_glide_ligand_efficiency_sa>  (90) 
-0.441566

>  <r_i_glide_ligand_efficiency_ln>  (90) 
-0.743195

>  <r_i_glide_gscore>  (90) 
-2.80377

>  <r_i_glide_lipo>  (90) 
-0.0290899

>  <r_i_glide_hbond>  (90) 
-0.100911

>  <r_i_glide_metal>  (90) 
-0

>  <r_i_glide_rewards>  (90) 
-1.91441

>  <r_i_glide_evdw>  (90) 
-16.8477

>  <r_i_glide_ecoul>  (90) 
-1.51774

>  <r_i_glide_erotb>  (90) 
0.350103

>  <r_i_glide_esite>  (90) 
-0.039417

>  <r_i_glide_emodel>  (90) 
-23.7245

>  <r_i_glide_energy>  (90) 
-18.3654

>  <r_i_glide_einternal>  (90) 
0.0568775

>  <r_i_glide_intrahb_reward>  (90) 
-0

>  <i_i_glide_confnum>  (90) 
1

>  <i_i_glide_posenum>  (90) 
3

>  <r_i_glide_eff_state_penalty>  (90) 
0

>  <ligand_id>  (90) 
31

>  <original_smiles>  (90) 
O=c1nc[nH]c2c1cnn2C1CCOCC1

>  <smiles>  (90) 
[H]c1nc2c(c([H])nn2C2([H])C([H])([H])C([H])([H])OC([H])([H])C2([H])[H])c(=O)[n-]1

$$$$
32:0:0
     RDKit          3D

106112  0  0  1  0  0  0  0  0999 V2000
    0.9281    4.1575    6.8062 C   0  0  0  0  0  0  0  0  0  0  0  0
    1.4344    3.4660    5.5287 C   0  0  2  0  0  0  0  0  0  0  0  0
    0.6385    3.8556    4.2912 C   0  0  0  0  0  0  0  0  0  0  0  0
    0.8694    2.7208    3.2943 C   0  0  1  0  0  0  0  0  0  0  0  0
    1.8159    3.1345    2.3463 O   0  0  0  0  0  0  0  0  0  0  0  0
    1.3896    1.4808    4.0812 C   0  0  1  0  0  0  0  0  0  0  0  0
    1.3416    1.9291    5.5601 C   0  0  1  0  0  0  0  0  0  0  0  0
    2.4105    1.3164    6.4897 C   0  0  0  0  0  0  0  0  0  0  0  0
    2.8960   -0.1220    6.2139 C   0  0  0  0  0  0  0  0  0  0  0  0
    1.8537   -1.2108    5.8408 C   0  0  2  0  0  0  0  0  0  0  0  0
    0.6766   -1.1719    6.8548 C   0  0  0  0  0  0  0  0  0  0  0  0
    2.4478   -2.6701    5.9068 C   0  0  2  0  0  0  0  0  0  0  0  0
    3.9897   -2.8120    5.7926 C   0  0  0  0  0  0  0  0  0  0  0  0
    4.4901   -4.2741    5.6033 C   0  0  0  0  0  0  0  0  0  0  0  0
    3.4847   -5.3051    4.9776 C   0  0  2  0  0  0  0  0  0  0  0  0
    2.7246   -5.9654    6.1759 C   0  0  0  0  0  0  0  0  0  0  0  0
    4.2392   -6.4211    4.1808 C   0  0  1  0  0  0  0  0  0  0  0  0
    5.2331   -7.0593    4.9595 O   0  0  0  0  0  0  0  0  0  0  0  0
    3.3141   -7.4783    3.5192 C   0  0  1  0  0  0  0  0  0  0  0  0
    2.9069   -8.3971    4.5165 O   0  0  0  0  0  0  0  0  0  0  0  0
    2.1241   -6.8681    2.7032 C   0  0  2  0  0  0  0  0  0  0  0  0
    1.5387   -5.5451    3.2583 C   0  0  1  0  0  0  0  0  0  0  0  0
    0.3549   -5.9159    3.9725 O   0  0  0  0  0  0  0  0  0  0  0  0
    0.0452   -7.2595    3.7717 C   0  0  1  0  0  0  0  0  0  0  0  0
   -1.3340   -7.5046    3.6620 O   0  0  0  0  0  0  0  0  0  0  0  0
    0.8282   -7.7110    2.5145 C   0  0  0  0  0  0  0  0  0  0  0  0
    0.0653   -7.2773    1.2352 C   0  0  0  0  0  0  0  0  0  0  0  0
    0.9573   -9.2555    2.4727 C   0  0  0  0  0  0  0  0  0  0  0  0
    2.5117   -4.5535    3.9845 C   0  0  2  0  0  0  0  0  0  0  0  0
    3.3245   -3.8020    2.8596 C   0  0  0  0  0  0  0  0  0  0  0  0
    3.8190   -4.6040    1.7920 O   0  0  0  0  0  0  0  0  0  0  0  0
    4.7220   -4.0088    0.8888 C   0  0  2  0  0  0  0  0  0  0  0  0
    5.0990   -2.6864    1.2338 O   0  0  0  0  0  0  0  0  0  0  0  0
    4.4505   -1.7270    0.3994 C   0  0  1  0  0  0  0  0  0  0  0  0
    5.4989   -0.9536   -0.4400 C   0  0  0  0  0  0  0  0  0  0  0  0
    6.4900   -1.8349   -0.9595 O   0  0  0  0  0  0  0  0  0  0  0  0
    3.4209   -2.5495   -0.3868 C   0  0  1  0  0  0  0  0  0  0  0  0
    3.0227   -2.0024   -1.6210 O   0  0  0  0  0  0  0  0  0  0  0  0
    4.0391   -3.9315   -0.4676 C   0  0  1  0  0  0  0  0  0  0  0  0
    4.9352   -4.1187   -1.5467 O   0  0  0  0  0  0  0  0  0  0  0  0
    1.6789   -3.5113    4.8347 C   0  0  2  0  0  0  0  0  0  0  0  0
    0.8232   -2.4992    4.0497 C   0  0  0  0  0  0  0  0  0  0  0  0
    1.4365   -1.1141    4.3395 C   0  0  1  0  0  0  0  0  0  0  0  0
    0.6689    0.1254    3.7364 C   0  0  0  0  0  0  0  0  0  0  0  0
   -0.8367    0.1497    4.1198 C   0  0  0  0  0  0  0  0  0  0  0  0
    0.7283   -0.0412    2.1908 C   0  0  0  0  0  0  0  0  0  0  0  0
   -0.1075    3.8919    7.0215 H   0  0  0  0  0  0  0  0  0  0  0  0
    0.9779    5.2428    6.7116 H   0  0  0  0  0  0  0  0  0  0  0  0
    1.5294    3.8767    7.6700 H   0  0  0  0  0  0  0  0  0  0  0  0
    2.4724    3.7556    5.3520 H   0  0  0  0  0  0  0  0  0  0  0  0
   -0.4255    3.9045    4.5293 H   0  0  0  0  0  0  0  0  0  0  0  0
    0.9249    4.8332    3.8958 H   0  0  0  0  0  0  0  0  0  0  0  0
   -0.0671    2.5459    2.7642 H   0  0  0  0  0  0  0  0  0  0  0  0
    1.3007    3.6575    1.7185 H   0  0  0  0  0  0  0  0  0  0  0  0
    2.4452    1.3677    3.8191 H   0  0  0  0  0  0  0  0  0  0  0  0
    0.3540    1.7031    5.9513 H   0  0  0  0  0  0  0  0  0  0  0  0
    3.2986    1.9501    6.4747 H   0  0  0  0  0  0  0  0  0  0  0  0
    2.0426    1.3821    7.5146 H   0  0  0  0  0  0  0  0  0  0  0  0
    3.6631   -0.0715    5.4391 H   0  0  0  0  0  0  0  0  0  0  0  0
    3.4168   -0.4349    7.1185 H   0  0  0  0  0  0  0  0  0  0  0  0
   -0.0965   -1.9008    6.6155 H   0  0  0  0  0  0  0  0  0  0  0  0
    0.1985   -0.2022    6.9362 H   0  0  0  0  0  0  0  0  0  0  0  0
    1.0319   -1.4030    7.8602 H   0  0  0  0  0  0  0  0  0  0  0  0
    2.2117   -3.0733    6.8965 H   0  0  0  0  0  0  0  0  0  0  0  0
    4.3447   -2.1647    4.9903 H   0  0  0  0  0  0  0  0  0  0  0  0
    4.4639   -2.4191    6.6925 H   0  0  0  0  0  0  0  0  0  0  0  0
    5.4287   -4.2685    5.0321 H   0  0  0  0  0  0  0  0  0  0  0  0
    4.7749   -4.6411    6.5804 H   0  0  0  0  0  0  0  0  0  0  0  0
    1.8489   -6.5180    5.8657 H   0  0  0  0  0  0  0  0  0  0  0  0
    2.3832   -5.2596    6.9253 H   0  0  0  0  0  0  0  0  0  0  0  0
    3.3532   -6.6783    6.7041 H   0  0  0  0  0  0  0  0  0  0  0  0
    4.8275   -5.9527    3.3976 H   0  0  0  0  0  0  0  0  0  0  0  0
    5.6789   -7.6839    4.4028 H   0  0  0  0  0  0  0  0  0  0  0  0
    3.9099   -8.0651    2.8198 H   0  0  0  0  0  0  0  0  0  0  0  0
    2.4965   -9.1426    4.0989 H   0  0  0  0  0  0  0  0  0  0  0  0
    2.5419   -6.6656    1.7159 H   0  0  0  0  0  0  0  0  0  0  0  0
    1.1541   -4.9888    2.3992 H   0  0  0  0  0  0  0  0  0  0  0  0
    0.3965   -7.7911    4.6561 H   0  0  0  0  0  0  0  0  0  0  0  0
   -1.4637   -8.4393    3.7366 H   0  0  0  0  0  0  0  0  0  0  0  0
   -0.8520   -7.8534    1.1204 H   0  0  0  0  0  0  0  0  0  0  0  0
    0.6701   -7.4529    0.3485 H   0  0  0  0  0  0  0  0  0  0  0  0
   -0.2244   -6.2325    1.2493 H   0  0  0  0  0  0  0  0  0  0  0  0
    0.0192   -9.6982    2.1431 H   0  0  0  0  0  0  0  0  0  0  0  0
    1.1565   -9.7168    3.4364 H   0  0  0  0  0  0  0  0  0  0  0  0
    1.7199   -9.5721    1.7635 H   0  0  0  0  0  0  0  0  0  0  0  0
    2.7198   -3.0173    2.4192 H   0  0  0  0  0  0  0  0  0  0  0  0
    4.1908   -3.3280    3.2889 H   0  0  0  0  0  0  0  0  0  0  0  0
    5.6132   -4.6320    0.8685 H   0  0  0  0  0  0  0  0  0  0  0  0
    3.9272   -1.0239    1.0499 H   0  0  0  0  0  0  0  0  0  0  0  0
    5.0332   -0.4584   -1.2970 H   0  0  0  0  0  0  0  0  0  0  0  0
    5.9562   -0.1440    0.1473 H   0  0  0  0  0  0  0  0  0  0  0  0
    6.0650   -2.6403   -1.2323 H   0  0  0  0  0  0  0  0  0  0  0  0
    2.5127   -2.6293    0.2160 H   0  0  0  0  0  0  0  0  0  0  0  0
    2.1836   -1.5436   -1.4602 H   0  0  0  0  0  0  0  0  0  0  0  0
    3.2875   -4.7134   -0.5163 H   0  0  0  0  0  0  0  0  0  0  0  0
    4.4109   -4.3288   -2.3151 H   0  0  0  0  0  0  0  0  0  0  0  0
    0.9529   -4.0802    5.4099 H   0  0  0  0  0  0  0  0  0  0  0  0
    0.7381   -2.7397    2.9905 H   0  0  0  0  0  0  0  0  0  0  0  0
   -0.1955   -2.5490    4.4263 H   0  0  0  0  0  0  0  0  0  0  0  0
    2.3875   -1.1167    3.8044 H   0  0  0  0  0  0  0  0  0  0  0  0
   -1.3634   -0.7116    3.7182 H   0  0  0  0  0  0  0  0  0  0  0  0
   -1.3498    1.0213    3.7166 H   0  0  0  0  0  0  0  0  0  0  0  0
   -1.0177    0.1526    5.1888 H   0  0  0  0  0  0  0  0  0  0  0  0
    0.2853   -0.9741    1.8596 H   0  0  0  0  0  0  0  0  0  0  0  0
    1.7549   -0.0289    1.8246 H   0  0  0  0  0  0  0  0  0  0  0  0
    0.1871    0.7314    1.6472 H   0  0  0  0  0  0  0  0  0  0  0  0
  1  2  1  0
  1 47  1  0
  1 48  1  0
  1 49  1  0
  2  7  1  0
  2  3  1  0
  2 50  1  6
  3  4  1  0
  3 51  1  0
  3 52  1  0
  4  5  1  0
  4  6  1  0
  4 53  1  6
  5 54  1  0
  6 44  1  0
  6  7  1  0
  6 55  1  6
  7  8  1  0
  7 56  1  1
  8  9  1  0
  8 57  1  0
  8 58  1  0
  9 10  1  0
  9 59  1  0
  9 60  1  0
 10 43  1  0
 10 11  1  1
 10 12  1  0
 11 61  1  0
 11 62  1  0
 11 63  1  0
 12 41  1  0
 12 13  1  0
 12 64  1  1
 13 14  1  0
 13 65  1  0
 13 66  1  0
 14 15  1  0
 14 67  1  0
 14 68  1  0
 15 29  1  0
 15 16  1  1
 15 17  1  0
 16 69  1  0
 16 70  1  0
 16 71  1  0
 17 18  1  0
 17 19  1  0
 17 72  1  6
 18 73  1  0
 19 20  1  0
 19 21  1  0
 19 74  1  6
 20 75  1  0
 21 26  1  0
 21 22  1  0
 21 76  1  6
 22 23  1  0
 22 29  1  0
 22 77  1  6
 23 24  1  0
 24 25  1  0
 24 26  1  0
 24 78  1  1
 25 79  1  0
 26 27  1  0
 26 28  1  0
 27 80  1  0
 27 81  1  0
 27 82  1  0
 28 83  1  0
 28 84  1  0
 28 85  1  0
 29 30  1  6
 29 41  1  0
 30 31  1  0
 30 86  1  0
 30 87  1  0
 31 32  1  0
 32 39  1  0
 32 33  1  0
 32 88  1  6
 33 34  1  0
 34 35  1  0
 34 37  1  0
 34 89  1  1
 35 36  1  0
 35 90  1  0
 35 91  1  0
 36 92  1  0
 37 38  1  0
 37 39  1  0
 37 93  1  1
 38 94  1  0
 39 40  1  0
 39 95  1  1
 40 96  1  0
 41 42  1  0
 41 97  1  1
 42 43  1  0
 42 98  1  0
 42 99  1  0
 43 44  1  0
 43100  1  6
 44 45  1  0
 44 46  1  0
 45101  1  0
 45102  1  0
 45103  1  0
 46104  1  0
 46105  1  0
 46106  1  0
M  END
>  <i_m_ct_stereo_status>  (91) 
1

>  <s_m_source_file>  (91) 
/var/tmp/pbs.5076255.sched01/tmpvsf1hu0j/0g1dnczxv.sdf

>  <i_m_source_file_index>  (91) 
39

>  <i_lp_mmshare_version>  (91) 
48012

>  <i_f3d_flags>  (91) 
0

>  <s_epik_input>  (91) 
W09IXVtDQEBIXTFbQ0gyXVtDQEBIXShbQ0gzXSlbQ0BIXShbQ0gyXVtDSDJdMilbQ0BIXTFDKFtDSDNdKShbQ0gzXSlbQ0BASF0zW0NIMl1bQ0BIXShbQ0BASF00W0NAQF0yM1tDSDNdKVtDQEBdNShbQ0gyXU9bQ0BASF02T1tDQEBIXShbQ0gyXVtPSF0pW0NAQEhdKFtPSF0pW0NASF02W09IXSlbQ0BdKFtDSDNdKShbQ0gyXVtDSDJdNClbQ0BASF0oW09IXSlbQ0BASF0oW09IXSlbQ0BASF03W0NASF01T1tDQEBIXShbT0hdKUM3KFtDSDNdKVtDSDNd

>  <s_epik_cmdline>  (91) 
J2VwaWtfcHl0aG9uJywgJy1waHQnLCAnMi4wJywgJy1waCcsICc3LjAnLCAnLXRuJywgJzgnLCAnLW1hJywgJzIwMCcsICctaW1hZScsICc8aW5maWxlLm1hZT4nLCAnLW9tYWUnLCAnPG91dGZpbGUubWFlPic=

>  <r_lp_tautomer_probability>  (91) 
1

>  <r_epik_Ionization_Penalty>  (91) 
5.32996e-06

>  <r_epik_Ionization_Penalty_Charging>  (91) 
0

>  <r_epik_Ionization_Penalty_Neutral>  (91) 
5.32996e-06

>  <r_epik_State_Penalty>  (91) 
-0

>  <r_epik_Charging_Adjusted_Penalty>  (91) 
0

>  <i_epik_Tot_Q>  (91) 
0

>  <i_epik_Tot_abs_Q>  (91) 
0

>  <s_epik_Chemistry_Notes>  (91) 
This compound contains an acetal/aminal-like group ( X-CH(R)-Y where X, Y are N, S, or O) that may be acid/base labile, releasing an aldehyde.

>  <s_lp_Force_Field>  (91) 
OPLS3e

>  <r_lp_Energy>  (91) 
91.0951

>  <b_lp_Chiralities_Consistent>  (91) 
1

>  <s_lp_Variant>  (91) 
32:0-1

>  <s_i_glide_gridfile>  (91) 
pfpi4k_grid

>  <i_i_glide_lignum>  (91) 
39

>  <i_i_glide_rotatable_bonds>  (91) 
11

>  <r_i_docking_score>  (91) 
-4.40717

>  <r_i_glide_ligand_efficiency>  (91) 
-0.0958081

>  <r_i_glide_ligand_efficiency_sa>  (91) 
-0.343285

>  <r_i_glide_ligand_efficiency_ln>  (91) 
-0.912715

>  <r_i_glide_gscore>  (91) 
-4.40717

>  <r_i_glide_lipo>  (91) 
-0.0724874

>  <r_i_glide_hbond>  (91) 
-0.150553

>  <r_i_glide_metal>  (91) 
-0

>  <r_i_glide_rewards>  (91) 
-0.543713

>  <r_i_glide_evdw>  (91) 
-27.553

>  <r_i_glide_ecoul>  (91) 
-15.1413

>  <r_i_glide_erotb>  (91) 
0.0469999

>  <r_i_glide_esite>  (91) 
-0.0385759

>  <r_i_glide_emodel>  (91) 
-50.3439

>  <r_i_glide_energy>  (91) 
-42.6943

>  <r_i_glide_einternal>  (91) 
19.0057

>  <r_i_glide_intrahb_reward>  (91) 
-0.5

>  <i_i_glide_confnum>  (91) 
4

>  <i_i_glide_posenum>  (91) 
9

>  <r_i_glide_eff_state_penalty>  (91) 
0

>  <ligand_id>  (91) 
32

>  <original_smiles>  (91) 
CC1CC(O)C2C1CCC1(C)C3CCC4(C)C(O)C(O)C5C(OC(O)C5(C)C)C4(COC4OC(CO)C(O)C4O)C3CC1C2(C)C

>  <smiles>  (91) 
[H]OC([H])([H])C1([H])OC([H])(OC([H])([H])C23C4([H])OC([H])(O[H])C(C([H])([H])[H])(C([H])([H])[H])C4([H])C([H])(O[H])C([H])(O[H])C2(C([H])([H])[H])C([H])([H])C([H])([H])C2([H])C3([H])C([H])([H])C3([H])C(C([H])([H])[H])(C([H])([H])[H])C4([H])C([H])(O[H])C([H])([H])C([H])(C([H])([H])[H])C4([H])C([H])([H])C([H])([H])C23C([H])([H])[H])C([H])(O[H])C1([H])O[H]

$$$$
32:0:1
     RDKit          3D

106112  0  0  1  0  0  0  0  0999 V2000
    1.4779    4.0812    6.6422 C   0  0  0  0  0  0  0  0  0  0  0  0
    1.8560    3.3506    5.3419 C   0  0  2  0  0  0  0  0  0  0  0  0
    0.9874    3.7598    4.1596 C   0  0  0  0  0  0  0  0  0  0  0  0
    1.0851    2.5997    3.1698 C   0  0  1  0  0  0  0  0  0  0  0  0
    1.9474    2.9451    2.1188 O   0  0  0  0  0  0  0  0  0  0  0  0
    1.6174    1.3509    3.9358 C   0  0  1  0  0  0  0  0  0  0  0  0
    1.6995    1.8196    5.4064 C   0  0  1  0  0  0  0  0  0  0  0  0
    2.8056    1.1720    6.2677 C   0  0  0  0  0  0  0  0  0  0  0  0
    3.2071   -0.2909    5.9830 C   0  0  0  0  0  0  0  0  0  0  0  0
    2.0919   -1.3369    5.7079 C   0  0  2  0  0  0  0  0  0  0  0  0
    0.9978   -1.2295    6.8050 C   0  0  0  0  0  0  0  0  0  0  0  0
    2.6226   -2.8217    5.7576 C   0  0  2  0  0  0  0  0  0  0  0  0
    4.1417   -3.0356    5.5253 C   0  0  0  0  0  0  0  0  0  0  0  0
    4.5666   -4.5244    5.3415 C   0  0  0  0  0  0  0  0  0  0  0  0
    3.4757   -5.5192    4.8104 C   0  0  2  0  0  0  0  0  0  0  0  0
    2.7781   -6.1289    6.0725 C   0  0  0  0  0  0  0  0  0  0  0  0
    4.1181   -6.6637    3.9604 C   0  0  1  0  0  0  0  0  0  0  0  0
    5.1426   -7.3349    4.6647 O   0  0  0  0  0  0  0  0  0  0  0  0
    3.1130   -7.6992    3.3980 C   0  0  1  0  0  0  0  0  0  0  0  0
    2.7702   -8.5843    4.4495 O   0  0  0  0  0  0  0  0  0  0  0  0
    1.8875   -7.0493    2.6692 C   0  0  2  0  0  0  0  0  0  0  0  0
    1.4009   -5.6907    3.2450 C   0  0  1  0  0  0  0  0  0  0  0  0
    0.2553   -5.9988    4.0469 O   0  0  0  0  0  0  0  0  0  0  0  0
   -0.1261   -7.3367    3.8932 C   0  0  1  0  0  0  0  0  0  0  0  0
   -1.5176   -7.5142    3.9074 O   0  0  0  0  0  0  0  0  0  0  0  0
    0.5468   -7.8298    2.5871 C   0  0  0  0  0  0  0  0  0  0  0  0
   -0.2877   -7.3663    1.3674 C   0  0  0  0  0  0  0  0  0  0  0  0
    0.5998   -9.3788    2.5578 C   0  0  0  0  0  0  0  0  0  0  0  0
    2.4658   -4.7392    3.8834 C   0  0  2  0  0  0  0  0  0  0  0  0
    3.2296   -4.0497    2.6886 C   0  0  0  0  0  0  0  0  0  0  0  0
    3.5612   -4.8504    1.5538 O   0  0  0  0  0  0  0  0  0  0  0  0
    4.4285   -4.3267    0.5696 C   0  0  2  0  0  0  0  0  0  0  0  0
    5.3630   -3.4003    1.0668 O   0  0  0  0  0  0  0  0  0  0  0  0
    5.0457   -2.0612    0.6863 C   0  0  1  0  0  0  0  0  0  0  0  0
    6.1526   -1.5490   -0.2549 C   0  0  0  0  0  0  0  0  0  0  0  0
    7.3375   -1.3025    0.4632 O   0  0  0  0  0  0  0  0  0  0  0  0
    3.6782   -2.1631   -0.0075 C   0  0  1  0  0  0  0  0  0  0  0  0
    3.4123   -1.1862   -0.9898 O   0  0  0  0  0  0  0  0  0  0  0  0
    3.6481   -3.5962   -0.5205 C   0  0  1  0  0  0  0  0  0  0  0  0
    4.2550   -3.7457   -1.7953 O   0  0  0  0  0  0  0  0  0  0  0  0
    1.7371   -3.6450    4.7676 C   0  0  2  0  0  0  0  0  0  0  0  0
    0.8721   -2.6022    4.0252 C   0  0  0  0  0  0  0  0  0  0  0  0
    1.5671   -1.2405    4.2406 C   0  0  1  0  0  0  0  0  0  0  0  0
    0.8146    0.0258    3.6753 C   0  0  0  0  0  0  0  0  0  0  0  0
   -0.6562    0.1190    4.1663 C   0  0  0  0  0  0  0  0  0  0  0  0
    0.7548   -0.1545    2.1350 C   0  0  0  0  0  0  0  0  0  0  0  0
    0.4501    3.8653    6.9376 H   0  0  0  0  0  0  0  0  0  0  0  0
    1.5669    5.1619    6.5236 H   0  0  0  0  0  0  0  0  0  0  0  0
    2.1291    3.7865    7.4645 H   0  0  0  0  0  0  0  0  0  0  0  0
    2.8908    3.5886    5.0846 H   0  0  0  0  0  0  0  0  0  0  0  0
   -0.0525    3.8569    4.4747 H   0  0  0  0  0  0  0  0  0  0  0  0
    1.2872    4.7199    3.7303 H   0  0  0  0  0  0  0  0  0  0  0  0
    0.1063    2.4641    2.7173 H   0  0  0  0  0  0  0  0  0  0  0  0
    1.4614    3.5553    1.5567 H   0  0  0  0  0  0  0  0  0  0  0  0
    2.6457    1.1914    3.5979 H   0  0  0  0  0  0  0  0  0  0  0  0
    0.7349    1.6439    5.8737 H   0  0  0  0  0  0  0  0  0  0  0  0
    3.7175    1.7657    6.1774 H   0  0  0  0  0  0  0  0  0  0  0  0
    2.5175    1.2692    7.3157 H   0  0  0  0  0  0  0  0  0  0  0  0
    3.9155   -0.2862    5.1537 H   0  0  0  0  0  0  0  0  0  0  0  0
    3.7798   -0.6130    6.8529 H   0  0  0  0  0  0  0  0  0  0  0  0
    0.1777   -1.9263    6.6378 H   0  0  0  0  0  0  0  0  0  0  0  0
    0.5692   -0.2393    6.9042 H   0  0  0  0  0  0  0  0  0  0  0  0
    1.4160   -1.4614    7.7858 H   0  0  0  0  0  0  0  0  0  0  0  0
    2.4513   -3.1970    6.7705 H   0  0  0  0  0  0  0  0  0  0  0  0
    4.4579   -2.4225    4.6848 H   0  0  0  0  0  0  0  0  0  0  0  0
    4.7070   -2.6412    6.3696 H   0  0  0  0  0  0  0  0  0  0  0  0
    5.4605   -4.5738    4.7098 H   0  0  0  0  0  0  0  0  0  0  0  0
    4.9071   -4.8810    6.3106 H   0  0  0  0  0  0  0  0  0  0  0  0
    1.8564   -6.6440    5.8357 H   0  0  0  0  0  0  0  0  0  0  0  0
    2.5212   -5.3916    6.8257 H   0  0  0  0  0  0  0  0  0  0  0  0
    3.4111   -6.8586    6.5754 H   0  0  0  0  0  0  0  0  0  0  0  0
    4.6503   -6.2212    3.1228 H   0  0  0  0  0  0  0  0  0  0  0  0
    4.7251   -7.9183    5.2872 H   0  0  0  0  0  0  0  0  0  0  0  0
    3.6321   -8.3147    2.6628 H   0  0  0  0  0  0  0  0  0  0  0  0
    2.3832   -9.3631    4.0732 H   0  0  0  0  0  0  0  0  0  0  0  0
    2.2303   -6.8855    1.6474 H   0  0  0  0  0  0  0  0  0  0  0  0
    0.9841   -5.1310    2.4077 H   0  0  0  0  0  0  0  0  0  0  0  0
    0.2797   -7.8672    4.7581 H   0  0  0  0  0  0  0  0  0  0  0  0
   -1.6806   -8.4290    4.1374 H   0  0  0  0  0  0  0  0  0  0  0  0
   -1.2312   -7.9095    1.3240 H   0  0  0  0  0  0  0  0  0  0  0  0
    0.2511   -7.5746    0.4461 H   0  0  0  0  0  0  0  0  0  0  0  0
   -0.5300   -6.3070    1.3782 H   0  0  0  0  0  0  0  0  0  0  0  0
   -0.3793   -9.7868    2.3059 H   0  0  0  0  0  0  0  0  0  0  0  0
    0.8552   -9.8279    3.5127 H   0  0  0  0  0  0  0  0  0  0  0  0
    1.2971   -9.7387    1.8019 H   0  0  0  0  0  0  0  0  0  0  0  0
    2.6555   -3.2083    2.3289 H   0  0  0  0  0  0  0  0  0  0  0  0
    4.1664   -3.6602    3.0425 H   0  0  0  0  0  0  0  0  0  0  0  0
    4.9575   -5.1948    0.1802 H   0  0  0  0  0  0  0  0  0  0  0  0
    4.9846   -1.4433    1.5855 H   0  0  0  0  0  0  0  0  0  0  0  0
    6.3478   -2.2617   -1.0585 H   0  0  0  0  0  0  0  0  0  0  0  0
    5.8584   -0.6099   -0.7280 H   0  0  0  0  0  0  0  0  0  0  0  0
    7.6355   -2.1202    0.8367 H   0  0  0  0  0  0  0  0  0  0  0  0
    2.8949   -2.0188    0.7342 H   0  0  0  0  0  0  0  0  0  0  0  0
    2.4555   -1.0582   -1.0382 H   0  0  0  0  0  0  0  0  0  0  0  0
    2.6438   -3.9999   -0.5758 H   0  0  0  0  0  0  0  0  0  0  0  0
    4.0266   -4.5939   -2.1683 H   0  0  0  0  0  0  0  0  0  0  0  0
    1.0286   -4.1693    5.4097 H   0  0  0  0  0  0  0  0  0  0  0  0
    0.6911   -2.8537    2.9827 H   0  0  0  0  0  0  0  0  0  0  0  0
   -0.1170   -2.6004    4.4792 H   0  0  0  0  0  0  0  0  0  0  0  0
    2.4767   -1.2916    3.6392 H   0  0  0  0  0  0  0  0  0  0  0  0
   -1.2453   -0.7257    3.8215 H   0  0  0  0  0  0  0  0  0  0  0  0
   -1.1601    1.0050    3.7859 H   0  0  0  0  0  0  0  0  0  0  0  0
   -0.7568    0.1459    5.2448 H   0  0  0  0  0  0  0  0  0  0  0  0
    0.2468   -1.0650    1.8534 H   0  0  0  0  0  0  0  0  0  0  0  0
    1.7513   -0.1881    1.6956 H   0  0  0  0  0  0  0  0  0  0  0  0
    0.2086    0.6326    1.6187 H   0  0  0  0  0  0  0  0  0  0  0  0
  1  2  1  0
  1 47  1  0
  1 48  1  0
  1 49  1  0
  2  7  1  0
  2  3  1  0
  2 50  1  6
  3  4  1  0
  3 51  1  0
  3 52  1  0
  4  5  1  0
  4  6  1  0
  4 53  1  6
  5 54  1  0
  6 44  1  0
  6  7  1  0
  6 55  1  6
  7  8  1  0
  7 56  1  1
  8  9  1  0
  8 57  1  0
  8 58  1  0
  9 10  1  0
  9 59  1  0
  9 60  1  0
 10 43  1  0
 10 11  1  1
 10 12  1  0
 11 61  1  0
 11 62  1  0
 11 63  1  0
 12 41  1  0
 12 13  1  0
 12 64  1  1
 13 14  1  0
 13 65  1  0
 13 66  1  0
 14 15  1  0
 14 67  1  0
 14 68  1  0
 15 29  1  0
 15 16  1  1
 15 17  1  0
 16 69  1  0
 16 70  1  0
 16 71  1  0
 17 18  1  0
 17 19  1  0
 17 72  1  6
 18 73  1  0
 19 20  1  0
 19 21  1  0
 19 74  1  6
 20 75  1  0
 21 26  1  0
 21 22  1  0
 21 76  1  6
 22 23  1  0
 22 29  1  0
 22 77  1  6
 23 24  1  0
 24 25  1  0
 24 26  1  0
 24 78  1  1
 25 79  1  0
 26 27  1  0
 26 28  1  0
 27 80  1  0
 27 81  1  0
 27 82  1  0
 28 83  1  0
 28 84  1  0
 28 85  1  0
 29 30  1  6
 29 41  1  0
 30 31  1  0
 30 86  1  0
 30 87  1  0
 31 32  1  0
 32 39  1  0
 32 33  1  0
 32 88  1  6
 33 34  1  0
 34 35  1  0
 34 37  1  0
 34 89  1  1
 35 36  1  0
 35 90  1  0
 35 91  1  0
 36 92  1  0
 37 38  1  0
 37 39  1  0
 37 93  1  1
 38 94  1  0
 39 40  1  0
 39 95  1  6
 40 96  1  0
 41 42  1  0
 41 97  1  1
 42 43  1  0
 42 98  1  0
 42 99  1  0
 43 44  1  0
 43100  1  6
 44 45  1  0
 44 46  1  0
 45101  1  0
 45102  1  0
 45103  1  0
 46104  1  0
 46105  1  0
 46106  1  0
M  END
>  <i_m_ct_stereo_status>  (92) 
1

>  <s_m_source_file>  (92) 
/var/tmp/pbs.5076255.sched01/tmpvsf1hu0j/0g1dnczxv.sdf

>  <i_m_source_file_index>  (92) 
39

>  <i_lp_mmshare_version>  (92) 
48012

>  <i_f3d_flags>  (92) 
0

>  <s_epik_input>  (92) 
W09IXVtDQEBIXTFbQ0gyXVtDQEBIXShbQ0gzXSlbQ0BIXShbQ0gyXVtDSDJdMilbQ0BIXTFDKFtDSDNdKShbQ0gzXSlbQ0BASF0zW0NIMl1bQ0BIXShbQ0BASF00W0NAQF0yM1tDSDNdKVtDQEBdNShbQ0gyXU9bQ0BASF02T1tDQEBIXShbQ0gyXVtPSF0pW0NAQEhdKFtPSF0pW0NASF02W09IXSlbQ0BdKFtDSDNdKShbQ0gyXVtDSDJdNClbQ0BASF0oW09IXSlbQ0BASF0oW09IXSlbQ0BASF03W0NASF01T1tDQEBIXShbT0hdKUM3KFtDSDNdKVtDSDNd

>  <s_epik_cmdline>  (92) 
J2VwaWtfcHl0aG9uJywgJy1waHQnLCAnMi4wJywgJy1waCcsICc3LjAnLCAnLXRuJywgJzgnLCAnLW1hJywgJzIwMCcsICctaW1hZScsICc8aW5maWxlLm1hZT4nLCAnLW9tYWUnLCAnPG91dGZpbGUubWFlPic=

>  <r_lp_tautomer_probability>  (92) 
1

>  <r_epik_Ionization_Penalty>  (92) 
5.32996e-06

>  <r_epik_Ionization_Penalty_Charging>  (92) 
0

>  <r_epik_Ionization_Penalty_Neutral>  (92) 
5.32996e-06

>  <r_epik_State_Penalty>  (92) 
-0

>  <r_epik_Charging_Adjusted_Penalty>  (92) 
0

>  <i_epik_Tot_Q>  (92) 
0

>  <i_epik_Tot_abs_Q>  (92) 
0

>  <s_epik_Chemistry_Notes>  (92) 
This compound contains an acetal/aminal-like group ( X-CH(R)-Y where X, Y are N, S, or O) that may be acid/base labile, releasing an aldehyde.

>  <s_lp_Force_Field>  (92) 
OPLS3e

>  <r_lp_Energy>  (92) 
91.0951

>  <b_lp_Chiralities_Consistent>  (92) 
1

>  <s_lp_Variant>  (92) 
32:0-1

>  <s_i_glide_gridfile>  (92) 
pfpi4k_grid

>  <i_i_glide_lignum>  (92) 
39

>  <i_i_glide_rotatable_bonds>  (92) 
11

>  <r_i_docking_score>  (92) 
-3.60822

>  <r_i_glide_ligand_efficiency>  (92) 
-0.0784396

>  <r_i_glide_ligand_efficiency_sa>  (92) 
-0.281053

>  <r_i_glide_ligand_efficiency_ln>  (92) 
-0.747254

>  <r_i_glide_gscore>  (92) 
-3.60822

>  <r_i_glide_lipo>  (92) 
-0.0897637

>  <r_i_glide_hbond>  (92) 
-0.144

>  <r_i_glide_metal>  (92) 
-0

>  <r_i_glide_rewards>  (92) 
-0.0452411

>  <r_i_glide_evdw>  (92) 
-27.3102

>  <r_i_glide_ecoul>  (92) 
-13.1395

>  <r_i_glide_erotb>  (92) 
0.0469999

>  <r_i_glide_esite>  (92) 
-0.0397829

>  <r_i_glide_emodel>  (92) 
-46.1402

>  <r_i_glide_energy>  (92) 
-40.4497

>  <r_i_glide_einternal>  (92) 
8.75737

>  <r_i_glide_intrahb_reward>  (92) 
-0

>  <i_i_glide_confnum>  (92) 
4

>  <i_i_glide_posenum>  (92) 
1

>  <r_i_glide_eff_state_penalty>  (92) 
0

>  <ligand_id>  (92) 
32

>  <original_smiles>  (92) 
CC1CC(O)C2C1CCC1(C)C3CCC4(C)C(O)C(O)C5C(OC(O)C5(C)C)C4(COC4OC(CO)C(O)C4O)C3CC1C2(C)C

>  <smiles>  (92) 
[H]OC([H])([H])C1([H])OC([H])(OC([H])([H])C23C4([H])OC([H])(O[H])C(C([H])([H])[H])(C([H])([H])[H])C4([H])C([H])(O[H])C([H])(O[H])C2(C([H])([H])[H])C([H])([H])C([H])([H])C2([H])C3([H])C([H])([H])C3([H])C(C([H])([H])[H])(C([H])([H])[H])C4([H])C([H])(O[H])C([H])([H])C([H])(C([H])([H])[H])C4([H])C([H])([H])C([H])([H])C23C([H])([H])[H])C([H])(O[H])C1([H])O[H]

$$$$
32:0:2
     RDKit          3D

106112  0  0  1  0  0  0  0  0999 V2000
    1.4005    3.9081    6.8777 C   0  0  0  0  0  0  0  0  0  0  0  0
    1.8998    3.1843    5.6156 C   0  0  2  0  0  0  0  0  0  0  0  0
    1.1754    3.6344    4.3573 C   0  0  0  0  0  0  0  0  0  0  0  0
    1.3522    2.4908    3.3686 C   0  0  1  0  0  0  0  0  0  0  0  0
    2.3720    2.8206    2.4570 O   0  0  0  0  0  0  0  0  0  0  0  0
    1.7512    1.2093    4.1593 C   0  0  1  0  0  0  0  0  0  0  0  0
    1.6943    1.6573    5.6351 C   0  0  1  0  0  0  0  0  0  0  0  0
    2.6855    0.9648    6.5929 C   0  0  0  0  0  0  0  0  0  0  0  0
    3.0741   -0.5046    6.3223 C   0  0  0  0  0  0  0  0  0  0  0  0
    1.9682   -1.5164    5.9132 C   0  0  2  0  0  0  0  0  0  0  0  0
    0.7640   -1.3917    6.8864 C   0  0  0  0  0  0  0  0  0  0  0  0
    2.4535   -3.0138    5.9949 C   0  0  2  0  0  0  0  0  0  0  0  0
    3.9819   -3.2725    5.9105 C   0  0  0  0  0  0  0  0  0  0  0  0
    4.3851   -4.7689    5.7535 C   0  0  0  0  0  0  0  0  0  0  0  0
    3.3276   -5.7263    5.0945 C   0  0  2  0  0  0  0  0  0  0  0  0
    2.4836   -6.3323    6.2629 C   0  0  0  0  0  0  0  0  0  0  0  0
    4.0252   -6.8736    4.2973 C   0  0  1  0  0  0  0  0  0  0  0  0
    4.9707   -7.5733    5.0851 O   0  0  0  0  0  0  0  0  0  0  0  0
    3.0574   -7.8665    3.6060 C   0  0  1  0  0  0  0  0  0  0  0  0
    2.5739   -8.7474    4.6036 O   0  0  0  0  0  0  0  0  0  0  0  0
    1.9359   -7.1699    2.7633 C   0  0  2  0  0  0  0  0  0  0  0  0
    1.4335   -5.8126    3.3136 C   0  0  1  0  0  0  0  0  0  0  0  0
    0.2063   -6.0942    3.9845 O   0  0  0  0  0  0  0  0  0  0  0  0
   -0.2043   -7.4070    3.7570 C   0  0  1  0  0  0  0  0  0  0  0  0
   -1.5955   -7.5642    3.6194 O   0  0  0  0  0  0  0  0  0  0  0  0
    0.5908   -7.9118    2.5252 C   0  0  0  0  0  0  0  0  0  0  0  0
   -0.0803   -7.4015    1.2301 C   0  0  0  0  0  0  0  0  0  0  0  0
    0.6075   -9.4608    2.4832 C   0  0  0  0  0  0  0  0  0  0  0  0
    2.4394   -4.9221    4.0931 C   0  0  2  0  0  0  0  0  0  0  0  0
    3.3508   -4.2491    2.9989 C   0  0  0  0  0  0  0  0  0  0  0  0
    3.7141   -5.0084    1.8307 O   0  0  0  0  0  0  0  0  0  0  0  0
    4.4831   -4.3763    0.8244 C   0  0  2  0  0  0  0  0  0  0  0  0
    5.5029   -3.5284    1.3268 O   0  0  0  0  0  0  0  0  0  0  0  0
    5.2280   -2.1510    1.0976 C   0  0  1  0  0  0  0  0  0  0  0  0
    6.2037   -1.5888    0.0558 C   0  0  0  0  0  0  0  0  0  0  0  0
    7.5063   -1.4332    0.5606 O   0  0  0  0  0  0  0  0  0  0  0  0
    3.7823   -2.1456    0.5591 C   0  0  1  0  0  0  0  0  0  0  0  0
    3.4251   -1.0547   -0.3025 O   0  0  0  0  0  0  0  0  0  0  0  0
    3.6130   -3.5280   -0.0773 C   0  0  1  0  0  0  0  0  0  0  0  0
    4.0249   -3.5483   -1.4311 O   0  0  0  0  0  0  0  0  0  0  0  0
    1.6616   -3.7985    4.8964 C   0  0  2  0  0  0  0  0  0  0  0  0
    0.9048   -2.7210    4.0834 C   0  0  0  0  0  0  0  0  0  0  0  0
    1.6003   -1.3835    4.4004 C   0  0  1  0  0  0  0  0  0  0  0  0
    0.9405   -0.0856    3.7873 C   0  0  0  0  0  0  0  0  0  0  0  0
   -0.5688    0.0453    4.1172 C   0  0  0  0  0  0  0  0  0  0  0  0
    1.0252   -0.2276    2.2444 C   0  0  0  0  0  0  0  0  0  0  0  0
    0.3420    3.7165    7.0538 H   0  0  0  0  0  0  0  0  0  0  0  0
    1.5300    4.9873    6.7882 H   0  0  0  0  0  0  0  0  0  0  0  0
    1.9504    3.5824    7.7590 H   0  0  0  0  0  0  0  0  0  0  0  0
    2.9604    3.4014    5.4754 H   0  0  0  0  0  0  0  0  0  0  0  0
    0.1114    3.7606    4.5566 H   0  0  0  0  0  0  0  0  0  0  0  0
    1.5383    4.5910    3.9706 H   0  0  0  0  0  0  0  0  0  0  0  0
    0.4326    2.4011    2.7968 H   0  0  0  0  0  0  0  0  0  0  0  0
    3.2070    2.8906    2.9110 H   0  0  0  0  0  0  0  0  0  0  0  0
    2.8056    1.0105    3.9310 H   0  0  0  0  0  0  0  0  0  0  0  0
    0.6793    1.5041    5.9932 H   0  0  0  0  0  0  0  0  0  0  0  0
    3.6158    1.5350    6.6107 H   0  0  0  0  0  0  0  0  0  0  0  0
    2.2890    1.0573    7.6063 H   0  0  0  0  0  0  0  0  0  0  0  0
    3.8707   -0.5094    5.5738 H   0  0  0  0  0  0  0  0  0  0  0  0
    3.5370   -0.8539    7.2433 H   0  0  0  0  0  0  0  0  0  0  0  0
   -0.0518   -2.0614    6.6172 H   0  0  0  0  0  0  0  0  0  0  0  0
    0.3546   -0.3899    6.9571 H   0  0  0  0  0  0  0  0  0  0  0  0
    1.0681   -1.6505    7.9007 H   0  0  0  0  0  0  0  0  0  0  0  0
    2.1615   -3.3964    6.9802 H   0  0  0  0  0  0  0  0  0  0  0  0
    4.3886   -2.6650    5.1063 H   0  0  0  0  0  0  0  0  0  0  0  0
    4.4675   -2.8910    6.8063 H   0  0  0  0  0  0  0  0  0  0  0  0
    5.3516   -4.8345    5.2148 H   0  0  0  0  0  0  0  0  0  0  0  0
    4.6013   -5.1355    6.7485 H   0  0  0  0  0  0  0  0  0  0  0  0
    1.5748   -6.8137    5.9133 H   0  0  0  0  0  0  0  0  0  0  0  0
    2.1633   -5.5954    6.9995 H   0  0  0  0  0  0  0  0  0  0  0  0
    3.0345   -7.0970    6.8209 H   0  0  0  0  0  0  0  0  0  0  0  0
    4.6476   -6.4344    3.5250 H   0  0  0  0  0  0  0  0  0  0  0  0
    4.4726   -8.0991    5.7072 H   0  0  0  0  0  0  0  0  0  0  0  0
    3.6351   -8.4910    2.9191 H   0  0  0  0  0  0  0  0  0  0  0  0
    2.1574   -9.4824    4.1679 H   0  0  0  0  0  0  0  0  0  0  0  0
    2.3899   -7.0096    1.7848 H   0  0  0  0  0  0  0  0  0  0  0  0
    1.1245   -5.2168    2.4423 H   0  0  0  0  0  0  0  0  0  0  0  0
    0.0875   -7.9652    4.6438 H   0  0  0  0  0  0  0  0  0  0  0  0
   -1.7958   -8.4784    3.7643 H   0  0  0  0  0  0  0  0  0  0  0  0
   -1.0237   -7.9186    1.0710 H   0  0  0  0  0  0  0  0  0  0  0  0
    0.5473   -7.6090    0.3711 H   0  0  0  0  0  0  0  0  0  0  0  0
   -0.3029   -6.3354    1.2348 H   0  0  0  0  0  0  0  0  0  0  0  0
   -0.3495   -9.8358    2.1177 H   0  0  0  0  0  0  0  0  0  0  0  0
    0.7410   -9.9379    3.4497 H   0  0  0  0  0  0  0  0  0  0  0  0
    1.3676   -9.8289    1.7971 H   0  0  0  0  0  0  0  0  0  0  0  0
    2.8041   -3.3674    2.6350 H   0  0  0  0  0  0  0  0  0  0  0  0
    4.2929   -3.9064    3.4109 H   0  0  0  0  0  0  0  0  0  0  0  0
    4.9510   -5.2041    0.3053 H   0  0  0  0  0  0  0  0  0  0  0  0
    5.2933   -1.6122    2.0591 H   0  0  0  0  0  0  0  0  0  0  0  0
    6.2339   -2.1961   -0.8506 H   0  0  0  0  0  0  0  0  0  0  0  0
    5.8944   -0.5884   -0.2446 H   0  0  0  0  0  0  0  0  0  0  0  0
    7.4615   -0.7954    1.2695 H   0  0  0  0  0  0  0  0  0  0  0  0
    3.1219   -2.0554    1.4365 H   0  0  0  0  0  0  0  0  0  0  0  0
    2.4733   -1.0423   -0.4074 H   0  0  0  0  0  0  0  0  0  0  0  0
    2.5892   -3.8768   -0.0160 H   0  0  0  0  0  0  0  0  0  0  0  0
    3.9040   -4.4225   -1.7989 H   0  0  0  0  0  0  0  0  0  0  0  0
    0.8752   -4.3060    5.4451 H   0  0  0  0  0  0  0  0  0  0  0  0
    0.8259   -2.9517    3.0230 H   0  0  0  0  0  0  0  0  0  0  0  0
   -0.1223   -2.6989    4.4293 H   0  0  0  0  0  0  0  0  0  0  0  0
    2.5650   -1.4440    3.8975 H   0  0  0  0  0  0  0  0  0  0  0  0
   -1.1348   -0.7783    3.6863 H   0  0  0  0  0  0  0  0  0  0  0  0
   -0.9983    0.9537    3.6956 H   0  0  0  0  0  0  0  0  0  0  0  0
   -0.7812    0.0567    5.1808 H   0  0  0  0  0  0  0  0  0  0  0  0
    0.5915   -1.1529    1.8742 H   0  0  0  0  0  0  0  0  0  0  0  0
    2.0655   -0.1980    1.9384 H   0  0  0  0  0  0  0  0  0  0  0  0
    0.5369    0.5693    1.6860 H   0  0  0  0  0  0  0  0  0  0  0  0
  1  2  1  0
  1 47  1  0
  1 48  1  0
  1 49  1  0
  2  7  1  0
  2  3  1  0
  2 50  1  6
  3  4  1  0
  3 51  1  0
  3 52  1  0
  4  5  1  0
  4  6  1  0
  4 53  1  6
  5 54  1  0
  6 44  1  0
  6  7  1  0
  6 55  1  6
  7  8  1  0
  7 56  1  1
  8  9  1  0
  8 57  1  0
  8 58  1  0
  9 10  1  0
  9 59  1  0
  9 60  1  0
 10 43  1  0
 10 11  1  1
 10 12  1  0
 11 61  1  0
 11 62  1  0
 11 63  1  0
 12 41  1  0
 12 13  1  0
 12 64  1  1
 13 14  1  0
 13 65  1  0
 13 66  1  0
 14 15  1  0
 14 67  1  0
 14 68  1  0
 15 29  1  0
 15 16  1  1
 15 17  1  0
 16 69  1  0
 16 70  1  0
 16 71  1  0
 17 18  1  0
 17 19  1  0
 17 72  1  6
 18 73  1  0
 19 20  1  0
 19 21  1  0
 19 74  1  6
 20 75  1  0
 21 26  1  0
 21 22  1  0
 21 76  1  6
 22 23  1  0
 22 29  1  0
 22 77  1  6
 23 24  1  0
 24 25  1  0
 24 26  1  0
 24 78  1  1
 25 79  1  0
 26 27  1  0
 26 28  1  0
 27 80  1  0
 27 81  1  0
 27 82  1  0
 28 83  1  0
 28 84  1  0
 28 85  1  0
 29 30  1  6
 29 41  1  0
 30 31  1  0
 30 86  1  0
 30 87  1  0
 31 32  1  0
 32 39  1  0
 32 33  1  0
 32 88  1  6
 33 34  1  0
 34 35  1  0
 34 37  1  0
 34 89  1  1
 35 36  1  0
 35 90  1  0
 35 91  1  0
 36 92  1  0
 37 38  1  0
 37 39  1  0
 37 93  1  1
 38 94  1  0
 39 40  1  0
 39 95  1  6
 40 96  1  0
 41 42  1  0
 41 97  1  1
 42 43  1  0
 42 98  1  0
 42 99  1  0
 43 44  1  0
 43100  1  6
 44 45  1  0
 44 46  1  0
 45101  1  0
 45102  1  0
 45103  1  0
 46104  1  0
 46105  1  0
 46106  1  0
M  END
>  <i_m_ct_stereo_status>  (93) 
1

>  <s_m_source_file>  (93) 
/var/tmp/pbs.5076255.sched01/tmpvsf1hu0j/0g1dnczxv.sdf

>  <i_m_source_file_index>  (93) 
39

>  <i_lp_mmshare_version>  (93) 
48012

>  <i_f3d_flags>  (93) 
0

>  <s_epik_input>  (93) 
W09IXVtDQEBIXTFbQ0gyXVtDQEBIXShbQ0gzXSlbQ0BIXShbQ0gyXVtDSDJdMilbQ0BIXTFDKFtDSDNdKShbQ0gzXSlbQ0BASF0zW0NIMl1bQ0BIXShbQ0BASF00W0NAQF0yM1tDSDNdKVtDQEBdNShbQ0gyXU9bQ0BASF02T1tDQEBIXShbQ0gyXVtPSF0pW0NAQEhdKFtPSF0pW0NASF02W09IXSlbQ0BdKFtDSDNdKShbQ0gyXVtDSDJdNClbQ0BASF0oW09IXSlbQ0BASF0oW09IXSlbQ0BASF03W0NASF01T1tDQEBIXShbT0hdKUM3KFtDSDNdKVtDSDNd

>  <s_epik_cmdline>  (93) 
J2VwaWtfcHl0aG9uJywgJy1waHQnLCAnMi4wJywgJy1waCcsICc3LjAnLCAnLXRuJywgJzgnLCAnLW1hJywgJzIwMCcsICctaW1hZScsICc8aW5maWxlLm1hZT4nLCAnLW9tYWUnLCAnPG91dGZpbGUubWFlPic=

>  <r_lp_tautomer_probability>  (93) 
1

>  <r_epik_Ionization_Penalty>  (93) 
5.32996e-06

>  <r_epik_Ionization_Penalty_Charging>  (93) 
0

>  <r_epik_Ionization_Penalty_Neutral>  (93) 
5.32996e-06

>  <r_epik_State_Penalty>  (93) 
-0

>  <r_epik_Charging_Adjusted_Penalty>  (93) 
0

>  <i_epik_Tot_Q>  (93) 
0

>  <i_epik_Tot_abs_Q>  (93) 
0

>  <s_epik_Chemistry_Notes>  (93) 
This compound contains an acetal/aminal-like group ( X-CH(R)-Y where X, Y are N, S, or O) that may be acid/base labile, releasing an aldehyde.

>  <s_lp_Force_Field>  (93) 
OPLS3e

>  <r_lp_Energy>  (93) 
91.0951

>  <b_lp_Chiralities_Consistent>  (93) 
1

>  <s_lp_Variant>  (93) 
32:0-1

>  <s_i_glide_gridfile>  (93) 
pfpi4k_grid

>  <i_i_glide_lignum>  (93) 
39

>  <i_i_glide_rotatable_bonds>  (93) 
11

>  <r_i_docking_score>  (93) 
-3.33528

>  <r_i_glide_ligand_efficiency>  (93) 
-0.0725061

>  <r_i_glide_ligand_efficiency_sa>  (93) 
-0.259793

>  <r_i_glide_ligand_efficiency_ln>  (93) 
-0.690728

>  <r_i_glide_gscore>  (93) 
-3.33528

>  <r_i_glide_lipo>  (93) 
-0.0996554

>  <r_i_glide_hbond>  (93) 
-0.00525638

>  <r_i_glide_metal>  (93) 
-0

>  <r_i_glide_rewards>  (93) 
-0.0428223

>  <r_i_glide_evdw>  (93) 
-29.2066

>  <r_i_glide_ecoul>  (93) 
-11.5369

>  <r_i_glide_erotb>  (93) 
0.0469999

>  <r_i_glide_esite>  (93) 
-0.0436863

>  <r_i_glide_emodel>  (93) 
-45.7533

>  <r_i_glide_energy>  (93) 
-40.7435

>  <r_i_glide_einternal>  (93) 
7.42239

>  <r_i_glide_intrahb_reward>  (93) 
-0

>  <i_i_glide_confnum>  (93) 
4

>  <i_i_glide_posenum>  (93) 
11

>  <r_i_glide_eff_state_penalty>  (93) 
0

>  <ligand_id>  (93) 
32

>  <original_smiles>  (93) 
CC1CC(O)C2C1CCC1(C)C3CCC4(C)C(O)C(O)C5C(OC(O)C5(C)C)C4(COC4OC(CO)C(O)C4O)C3CC1C2(C)C

>  <smiles>  (93) 
[H]OC([H])([H])C1([H])OC([H])(OC([H])([H])C23C4([H])OC([H])(O[H])C(C([H])([H])[H])(C([H])([H])[H])C4([H])C([H])(O[H])C([H])(O[H])C2(C([H])([H])[H])C([H])([H])C([H])([H])C2([H])C3([H])C([H])([H])C3([H])C(C([H])([H])[H])(C([H])([H])[H])C4([H])C([H])(O[H])C([H])([H])C([H])(C([H])([H])[H])C4([H])C([H])([H])C([H])([H])C23C([H])([H])[H])C([H])(O[H])C1([H])O[H]

$$$$
33:0:0
     RDKit          3D

 66 73  0  0  1  0  0  0  0  0999 V2000
    5.0410   -3.9982    3.7952 C   0  0  0  0  0  0  0  0  0  0  0  0
    4.1007   -3.0612    2.9997 C   0  0  1  0  0  0  0  0  0  0  0  0
    2.8062   -2.7941    3.8070 C   0  0  0  0  0  0  0  0  0  0  0  0
    2.0078   -1.5552    3.3184 C   0  0  0  0  0  0  0  0  0  0  0  0
    2.2132   -0.2508    4.1493 C   0  0  1  0  0  0  0  0  0  0  0  0
    3.6842   -0.0784    4.6205 C   0  0  2  0  0  0  0  0  0  0  0  0
    4.5931    0.5270    3.6812 O   0  0  0  0  0  0  0  0  0  0  0  0
    4.8727   -0.8261    3.9786 C   0  0  2  0  0  0  0  0  0  0  0  0
    4.8107   -1.7266    2.7951 C   0  0  0  0  0  0  0  0  0  0  0  0
    5.3745   -1.3835    1.6224 C   0  0  0  0  0  0  0  0  0  0  0  0
    5.4302   -2.2997    0.4734 C   0  0  0  0  0  0  0  0  0  0  0  0
    6.0429   -2.0291   -0.5549 O   0  0  0  0  0  0  0  0  0  0  0  0
    4.8289   -3.5002    0.6735 O   0  0  0  0  0  0  0  0  0  0  0  0
    3.7510   -3.6637    1.5959 C   0  0  1  0  0  0  0  0  0  0  0  0
    3.2693   -5.1092    1.5928 C   0  0  0  0  0  0  0  0  0  0  0  0
    3.9654   -6.2721    1.1330 C   0  0  0  0  0  0  0  0  0  0  0  0
    3.1222   -7.3326    1.3000 C   0  0  0  0  0  0  0  0  0  0  0  0
    1.9343   -6.9266    1.8126 O   0  0  0  0  0  0  0  0  0  0  0  0
    2.0494   -5.5865    1.9936 C   0  0  0  0  0  0  0  0  0  0  0  0
    3.7381    0.4941    6.0456 C   0  0  1  0  0  0  0  0  0  0  0  0
    5.0932    0.3861    6.7965 C   0  0  0  0  0  0  0  0  0  0  0  0
    5.8024    1.7371    6.5960 C   0  0  0  0  0  0  0  0  0  0  0  0
    4.6444    2.6505    6.3192 C   0  0  0  0  0  0  0  0  0  0  0  0
    3.5299    1.9842    6.0093 C   0  0  0  0  0  0  0  0  0  0  0  0
    2.2128    2.5902    5.7119 C   0  0  2  0  0  0  0  0  0  0  0  0
    1.0321    1.7858    5.9111 O   0  0  0  0  0  0  0  0  0  0  0  0
    1.3098    2.2075    4.5704 C   0  0  1  0  0  0  0  0  0  0  0  0
    0.4220    3.3442    4.0441 C   0  0  0  0  0  0  0  0  0  0  0  0
   -0.9644    2.8992    3.5468 C   0  0  1  0  0  0  0  0  0  0  0  0
   -1.5906    3.9937    2.9023 O   0  0  0  0  0  0  0  0  0  0  0  0
   -0.8552    1.7372    2.5625 C   0  0  0  0  0  0  0  0  0  0  0  0
    0.0397    0.6161    3.1096 C   0  0  0  0  0  0  0  0  0  0  0  0
    1.4804    1.0419    3.5501 C   0  0  2  0  0  0  0  0  0  0  0  0
    2.2390    1.5766    2.3104 C   0  0  0  0  0  0  0  0  0  0  0  0
    4.5760   -4.9504    4.0674 H   0  0  0  0  0  0  0  0  0  0  0  0
    5.3898   -3.5289    4.7198 H   0  0  0  0  0  0  0  0  0  0  0  0
    5.9351   -4.2339    3.2133 H   0  0  0  0  0  0  0  0  0  0  0  0
    2.1581   -3.6614    3.7416 H   0  0  0  0  0  0  0  0  0  0  0  0
    3.0091   -2.7179    4.8794 H   0  0  0  0  0  0  0  0  0  0  0  0
    2.1687   -1.3731    2.2546 H   0  0  0  0  0  0  0  0  0  0  0  0
    0.9604   -1.8435    3.3970 H   0  0  0  0  0  0  0  0  0  0  0  0
    1.6499   -0.4875    5.0521 H   0  0  0  0  0  0  0  0  0  0  0  0
    5.7937   -0.9730    4.5298 H   0  0  0  0  0  0  0  0  0  0  0  0
    5.8698   -0.4338    1.4928 H   0  0  0  0  0  0  0  0  0  0  0  0
    2.9202   -3.0983    1.1750 H   0  0  0  0  0  0  0  0  0  0  0  0
    4.9571   -6.3289    0.7091 H   0  0  0  0  0  0  0  0  0  0  0  0
    3.1887   -8.3921    1.0935 H   0  0  0  0  0  0  0  0  0  0  0  0
    1.1543   -5.1292    2.3937 H   0  0  0  0  0  0  0  0  0  0  0  0
    2.9662    0.0335    6.6650 H   0  0  0  0  0  0  0  0  0  0  0  0
    4.8555    0.3214    7.8607 H   0  0  0  0  0  0  0  0  0  0  0  0
    5.7029   -0.4921    6.5880 H   0  0  0  0  0  0  0  0  0  0  0  0
    6.3736    2.0480    7.4723 H   0  0  0  0  0  0  0  0  0  0  0  0
    6.4597    1.7171    5.7257 H   0  0  0  0  0  0  0  0  0  0  0  0
    4.7429    3.7217    6.3626 H   0  0  0  0  0  0  0  0  0  0  0  0
    2.1402    3.6016    6.0989 H   0  0  0  0  0  0  0  0  0  0  0  0
    0.2609    4.0611    4.8513 H   0  0  0  0  0  0  0  0  0  0  0  0
    0.9599    3.8879    3.2637 H   0  0  0  0  0  0  0  0  0  0  0  0
   -1.5812    2.5981    4.3978 H   0  0  0  0  0  0  0  0  0  0  0  0
   -1.0617    4.2005    2.1257 H   0  0  0  0  0  0  0  0  0  0  0  0
   -1.8456    1.3464    2.3520 H   0  0  0  0  0  0  0  0  0  0  0  0
   -0.4704    2.0797    1.6047 H   0  0  0  0  0  0  0  0  0  0  0  0
   -0.4656    0.1622    3.9606 H   0  0  0  0  0  0  0  0  0  0  0  0
    0.0892   -0.1388    2.3266 H   0  0  0  0  0  0  0  0  0  0  0  0
    1.6677    2.3097    1.7385 H   0  0  0  0  0  0  0  0  0  0  0  0
    2.5066    0.7742    1.6216 H   0  0  0  0  0  0  0  0  0  0  0  0
    3.1502    2.0970    2.6055 H   0  0  0  0  0  0  0  0  0  0  0  0
  2  1  1  1
  1 35  1  0
  1 36  1  0
  1 37  1  0
  2  9  1  0
  2 14  1  0
  2  3  1  0
  3  4  1  0
  3 38  1  0
  3 39  1  0
  4  5  1  0
  4 40  1  0
  4 41  1  0
  5 33  1  0
  5  6  1  0
  5 42  1  1
  6  8  1  0
  6  7  1  6
  6 20  1  0
  7  8  1  0
  8  9  1  0
  8 43  1  1
  9 10  2  0
 10 11  1  0
 10 44  1  0
 11 12  2  0
 11 13  1  0
 13 14  1  0
 14 15  1  0
 14 45  1  6
 15 19  2  0
 15 16  1  0
 16 17  2  0
 16 46  1  0
 17 18  1  0
 17 47  1  0
 18 19  1  0
 19 48  1  0
 20 24  1  0
 20 21  1  0
 20 49  1  1
 21 22  1  0
 21 50  1  0
 21 51  1  0
 22 23  1  0
 22 52  1  0
 22 53  1  0
 23 24  2  0
 23 54  1  0
 24 25  1  0
 25 27  1  0
 25 26  1  0
 25 55  1  1
 27 26  1  1
 27 33  1  0
 27 28  1  0
 28 29  1  0
 28 56  1  0
 28 57  1  0
 29 30  1  0
 29 31  1  0
 29 58  1  1
 30 59  1  0
 31 32  1  0
 31 60  1  0
 31 61  1  0
 32 33  1  0
 32 62  1  0
 32 63  1  0
 33 34  1  6
 34 64  1  0
 34 65  1  0
 34 66  1  0
M  END
>  <i_m_ct_stereo_status>  (94) 
1

>  <s_m_source_file>  (94) 
/var/tmp/pbs.5076255.sched01/tmpvsf1hu0j/0g1dnczxv.sdf

>  <i_m_source_file_index>  (94) 
40

>  <i_lp_mmshare_version>  (94) 
48012

>  <i_f3d_flags>  (94) 
0

>  <s_epik_input>  (94) 
W2NIXTFvW2NIXVtjSF1jMVtDQEBIXTJPQyg9TylbQ0hdPUMoW0NASF0zTzQpW0NAQF0yKFtDSDNdKVtDSDJdW0NIMl1bQ0BASF0oW0NAQF0zNDUpW0NAXTYoW0NIM10pW0NAXTcoW0NIMl1bQ0BASF0oW09IXSlbQ0gyXVtDSDJdNilbQ0BASF0oTzcpQzhbQ0BASF01W0NIMl1bQ0gyXVtDSF09OA==

>  <s_epik_cmdline>  (94) 
J2VwaWtfcHl0aG9uJywgJy1waHQnLCAnMi4wJywgJy1waCcsICc3LjAnLCAnLXRuJywgJzgnLCAnLW1hJywgJzIwMCcsICctaW1hZScsICc8aW5maWxlLm1hZT4nLCAnLW9tYWUnLCAnPG91dGZpbGUubWFlPic=

>  <r_lp_tautomer_probability>  (94) 
1

>  <r_epik_Ionization_Penalty>  (94) 
3.56051e-07

>  <r_epik_Ionization_Penalty_Charging>  (94) 
0

>  <r_epik_Ionization_Penalty_Neutral>  (94) 
3.56051e-07

>  <r_epik_State_Penalty>  (94) 
-0

>  <r_epik_Charging_Adjusted_Penalty>  (94) 
0

>  <i_epik_Tot_Q>  (94) 
0

>  <i_epik_Tot_abs_Q>  (94) 
0

>  <s_epik_Chemistry_Notes>  (94) 
This compound has an ester and may undergo hydrolysis at high or low pH.

>  <s_lp_Force_Field>  (94) 
OPLS3e

>  <r_lp_Energy>  (94) 
59.3028

>  <b_lp_Chiralities_Consistent>  (94) 
1

>  <s_lp_Variant>  (94) 
33:0-1

>  <s_i_glide_gridfile>  (94) 
pfpi4k_grid

>  <i_i_glide_lignum>  (94) 
40

>  <i_i_glide_rotatable_bonds>  (94) 
2

>  <r_i_docking_score>  (94) 
-3.25157

>  <r_i_glide_ligand_efficiency>  (94) 
-0.0956345

>  <r_i_glide_ligand_efficiency_sa>  (94) 
-0.309819

>  <r_i_glide_ligand_efficiency_ln>  (94) 
-0.718363

>  <r_i_glide_gscore>  (94) 
-3.25157

>  <r_i_glide_lipo>  (94) 
-0.52648

>  <r_i_glide_hbond>  (94) 
-0.16

>  <r_i_glide_metal>  (94) 
-0

>  <r_i_glide_rewards>  (94) 
-0.29652

>  <r_i_glide_evdw>  (94) 
-28.7852

>  <r_i_glide_ecoul>  (94) 
-6.15154

>  <r_i_glide_erotb>  (94) 
0.0934181

>  <r_i_glide_esite>  (94) 
0

>  <r_i_glide_emodel>  (94) 
-42.4011

>  <r_i_glide_energy>  (94) 
-34.9367

>  <r_i_glide_einternal>  (94) 
0.36499

>  <r_i_glide_intrahb_reward>  (94) 
-0

>  <i_i_glide_confnum>  (94) 
1

>  <i_i_glide_posenum>  (94) 
40

>  <r_i_glide_eff_state_penalty>  (94) 
0

>  <ligand_id>  (94) 
33

>  <original_smiles>  (94) 
CC12CCC3C4(OC4C1=CC(=O)OC2c1ccoc1)C1CCC=C1C1OC12CC(O)CCC32C

>  <smiles>  (94) 
[H]OC1([H])C([H])([H])C([H])([H])C2(C([H])([H])[H])C3([H])C([H])([H])C([H])([H])C4(C([H])([H])[H])C(=C([H])C(=O)OC4([H])c4c([H])oc([H])c4[H])C4([H])OC43C3([H])C(=C([H])C([H])([H])C3([H])[H])C3([H])OC32C1([H])[H]

$$$$
33:0:1
     RDKit          3D

 66 73  0  0  1  0  0  0  0  0999 V2000
    4.3711   -4.1479    3.6276 C   0  0  0  0  0  0  0  0  0  0  0  0
    3.4199   -3.1450    2.9112 C   0  0  1  0  0  0  0  0  0  0  0  0
    2.2254   -2.7281    3.8164 C   0  0  0  0  0  0  0  0  0  0  0  0
    1.5363   -1.3989    3.4021 C   0  0  0  0  0  0  0  0  0  0  0  0
    1.9729   -0.1277    4.1962 C   0  0  1  0  0  0  0  0  0  0  0  0
    3.4908   -0.1221    4.5230 C   0  0  2  0  0  0  0  0  0  0  0  0
    4.3695    0.3796    3.4945 O   0  0  0  0  0  0  0  0  0  0  0  0
    4.5176   -0.9991    3.7738 C   0  0  2  0  0  0  0  0  0  0  0  0
    4.2335   -1.8891    2.6154 C   0  0  0  0  0  0  0  0  0  0  0  0
    4.7122   -1.6098    1.3839 C   0  0  0  0  0  0  0  0  0  0  0  0
    4.5537   -2.5337    0.2476 C   0  0  0  0  0  0  0  0  0  0  0  0
    5.0882   -2.3373   -0.8420 O   0  0  0  0  0  0  0  0  0  0  0  0
    3.8485   -3.6611    0.5187 O   0  0  0  0  0  0  0  0  0  0  0  0
    2.8691   -3.7186    1.5579 C   0  0  1  0  0  0  0  0  0  0  0  0
    2.2197   -5.1031    1.6005 C   0  0  0  0  0  0  0  0  0  0  0  0
    1.8049   -5.8968    2.7171 C   0  0  0  0  0  0  0  0  0  0  0  0
    1.2577   -7.0468    2.2295 C   0  0  0  0  0  0  0  0  0  0  0  0
    1.2304   -7.0121    0.8779 O   0  0  0  0  0  0  0  0  0  0  0  0
    1.8311   -5.8467    0.5137 C   0  0  0  0  0  0  0  0  0  0  0  0
    3.7511    0.4358    5.9302 C   0  0  1  0  0  0  0  0  0  0  0  0
    5.1521    0.1758    6.5505 C   0  0  0  0  0  0  0  0  0  0  0  0
    5.9847    1.4364    6.2646 C   0  0  0  0  0  0  0  0  0  0  0  0
    4.9152    2.4760    6.0941 C   0  0  0  0  0  0  0  0  0  0  0  0
    3.7070    1.9415    5.9020 C   0  0  0  0  0  0  0  0  0  0  0  0
    2.4469    2.6975    5.7224 C   0  0  2  0  0  0  0  0  0  0  0  0
    1.2070    2.0335    6.0474 O   0  0  0  0  0  0  0  0  0  0  0  0
    1.3935    2.4181    4.6788 C   0  0  1  0  0  0  0  0  0  0  0  0
    0.5974    3.6515    4.2283 C   0  0  0  0  0  0  0  0  0  0  0  0
   -0.8704    3.3700    3.8685 C   0  0  1  0  0  0  0  0  0  0  0  0
   -1.4258    4.5335    3.2800 O   0  0  0  0  0  0  0  0  0  0  0  0
   -0.9976    2.1932    2.8995 C   0  0  0  0  0  0  0  0  0  0  0  0
   -0.1805    0.9798    3.3685 C   0  0  0  0  0  0  0  0  0  0  0  0
    1.3360    1.2401    3.6581 C   0  0  2  0  0  0  0  0  0  0  0  0
    2.0292    1.6876    2.3432 C   0  0  0  0  0  0  0  0  0  0  0  0
    3.8915   -5.0530    3.9982 H   0  0  0  0  0  0  0  0  0  0  0  0
    4.8537   -3.6898    4.4947 H   0  0  0  0  0  0  0  0  0  0  0  0
    5.1674   -4.4679    2.9480 H   0  0  0  0  0  0  0  0  0  0  0  0
    1.4585   -3.4971    3.7832 H   0  0  0  0  0  0  0  0  0  0  0  0
    2.5243   -2.6874    4.8659 H   0  0  0  0  0  0  0  0  0  0  0  0
    1.6082   -1.2387    2.3269 H   0  0  0  0  0  0  0  0  0  0  0  0
    0.4747   -1.5627    3.5923 H   0  0  0  0  0  0  0  0  0  0  0  0
    1.4768   -0.2983    5.1520 H   0  0  0  0  0  0  0  0  0  0  0  0
    5.4602   -1.2501    4.2421 H   0  0  0  0  0  0  0  0  0  0  0  0
    5.2953   -0.7210    1.2020 H   0  0  0  0  0  0  0  0  0  0  0  0
    2.0727   -3.0564    1.2111 H   0  0  0  0  0  0  0  0  0  0  0  0
    1.8944   -5.6900    3.7738 H   0  0  0  0  0  0  0  0  0  0  0  0
    0.8384   -7.9311    2.6861 H   0  0  0  0  0  0  0  0  0  0  0  0
    1.8896   -5.6847   -0.5542 H   0  0  0  0  0  0  0  0  0  0  0  0
    2.9973    0.0626    6.6235 H   0  0  0  0  0  0  0  0  0  0  0  0
    5.0117    0.1404    7.6336 H   0  0  0  0  0  0  0  0  0  0  0  0
    5.6315   -0.7648    6.2949 H   0  0  0  0  0  0  0  0  0  0  0  0
    6.6749    1.6758    7.0749 H   0  0  0  0  0  0  0  0  0  0  0  0
    6.5463    1.3377    5.3349 H   0  0  0  0  0  0  0  0  0  0  0  0
    5.1421    3.5296    6.1153 H   0  0  0  0  0  0  0  0  0  0  0  0
    2.5221    3.7142    6.1005 H   0  0  0  0  0  0  0  0  0  0  0  0
    0.5964    4.3818    5.0409 H   0  0  0  0  0  0  0  0  0  0  0  0
    1.1172    4.1317    3.3963 H   0  0  0  0  0  0  0  0  0  0  0  0
   -1.4322    3.1468    4.7804 H   0  0  0  0  0  0  0  0  0  0  0  0
   -1.0063    4.6459    2.4208 H   0  0  0  0  0  0  0  0  0  0  0  0
   -2.0459    1.9156    2.7968 H   0  0  0  0  0  0  0  0  0  0  0  0
   -0.6736    2.4854    1.9039 H   0  0  0  0  0  0  0  0  0  0  0  0
   -0.6490    0.5857    4.2699 H   0  0  0  0  0  0  0  0  0  0  0  0
   -0.3000    0.2258    2.5948 H   0  0  0  0  0  0  0  0  0  0  0  0
    1.4878    2.4791    1.8228 H   0  0  0  0  0  0  0  0  0  0  0  0
    2.1325    0.8615    1.6393 H   0  0  0  0  0  0  0  0  0  0  0  0
    3.0168    2.1021    2.5367 H   0  0  0  0  0  0  0  0  0  0  0  0
  2  1  1  1
  1 35  1  0
  1 36  1  0
  1 37  1  0
  2  9  1  0
  2 14  1  0
  2  3  1  0
  3  4  1  0
  3 38  1  0
  3 39  1  0
  4  5  1  0
  4 40  1  0
  4 41  1  0
  5 33  1  0
  5  6  1  0
  5 42  1  1
  6  8  1  0
  6  7  1  6
  6 20  1  0
  7  8  1  0
  8  9  1  0
  8 43  1  1
  9 10  2  0
 10 11  1  0
 10 44  1  0
 11 12  2  0
 11 13  1  0
 13 14  1  0
 14 15  1  0
 14 45  1  6
 15 19  2  0
 15 16  1  0
 16 17  2  0
 16 46  1  0
 17 18  1  0
 17 47  1  0
 18 19  1  0
 19 48  1  0
 20 24  1  0
 20 21  1  0
 20 49  1  1
 21 22  1  0
 21 50  1  0
 21 51  1  0
 22 23  1  0
 22 52  1  0
 22 53  1  0
 23 24  2  0
 23 54  1  0
 24 25  1  0
 25 27  1  0
 25 26  1  0
 25 55  1  1
 27 26  1  1
 27 33  1  0
 27 28  1  0
 28 29  1  0
 28 56  1  0
 28 57  1  0
 29 30  1  0
 29 31  1  0
 29 58  1  1
 30 59  1  0
 31 32  1  0
 31 60  1  0
 31 61  1  0
 32 33  1  0
 32 62  1  0
 32 63  1  0
 33 34  1  6
 34 64  1  0
 34 65  1  0
 34 66  1  0
M  END
>  <i_m_ct_stereo_status>  (95) 
1

>  <s_m_source_file>  (95) 
/var/tmp/pbs.5076255.sched01/tmpvsf1hu0j/0g1dnczxv.sdf

>  <i_m_source_file_index>  (95) 
40

>  <i_lp_mmshare_version>  (95) 
48012

>  <i_f3d_flags>  (95) 
0

>  <s_epik_input>  (95) 
W2NIXTFvW2NIXVtjSF1jMVtDQEBIXTJPQyg9TylbQ0hdPUMoW0NASF0zTzQpW0NAQF0yKFtDSDNdKVtDSDJdW0NIMl1bQ0BASF0oW0NAQF0zNDUpW0NAXTYoW0NIM10pW0NAXTcoW0NIMl1bQ0BASF0oW09IXSlbQ0gyXVtDSDJdNilbQ0BASF0oTzcpQzhbQ0BASF01W0NIMl1bQ0gyXVtDSF09OA==

>  <s_epik_cmdline>  (95) 
J2VwaWtfcHl0aG9uJywgJy1waHQnLCAnMi4wJywgJy1waCcsICc3LjAnLCAnLXRuJywgJzgnLCAnLW1hJywgJzIwMCcsICctaW1hZScsICc8aW5maWxlLm1hZT4nLCAnLW9tYWUnLCAnPG91dGZpbGUubWFlPic=

>  <r_lp_tautomer_probability>  (95) 
1

>  <r_epik_Ionization_Penalty>  (95) 
3.56051e-07

>  <r_epik_Ionization_Penalty_Charging>  (95) 
0

>  <r_epik_Ionization_Penalty_Neutral>  (95) 
3.56051e-07

>  <r_epik_State_Penalty>  (95) 
-0

>  <r_epik_Charging_Adjusted_Penalty>  (95) 
0

>  <i_epik_Tot_Q>  (95) 
0

>  <i_epik_Tot_abs_Q>  (95) 
0

>  <s_epik_Chemistry_Notes>  (95) 
This compound has an ester and may undergo hydrolysis at high or low pH.

>  <s_lp_Force_Field>  (95) 
OPLS3e

>  <r_lp_Energy>  (95) 
59.3028

>  <b_lp_Chiralities_Consistent>  (95) 
1

>  <s_lp_Variant>  (95) 
33:0-1

>  <s_i_glide_gridfile>  (95) 
pfpi4k_grid

>  <i_i_glide_lignum>  (95) 
40

>  <i_i_glide_rotatable_bonds>  (95) 
2

>  <r_i_docking_score>  (95) 
-3.16145

>  <r_i_glide_ligand_efficiency>  (95) 
-0.0929837

>  <r_i_glide_ligand_efficiency_sa>  (95) 
-0.301231

>  <r_i_glide_ligand_efficiency_ln>  (95) 
-0.698452

>  <r_i_glide_gscore>  (95) 
-3.16145

>  <r_i_glide_lipo>  (95) 
-0.221205

>  <r_i_glide_hbond>  (95) 
-0.27214

>  <r_i_glide_metal>  (95) 
-0

>  <r_i_glide_rewards>  (95) 
-0.241704

>  <r_i_glide_evdw>  (95) 
-29.5542

>  <r_i_glide_ecoul>  (95) 
-6.93584

>  <r_i_glide_erotb>  (95) 
0.0934181

>  <r_i_glide_esite>  (95) 
-0.00172991

>  <r_i_glide_emodel>  (95) 
-43.4841

>  <r_i_glide_energy>  (95) 
-36.49

>  <r_i_glide_einternal>  (95) 
0.854287

>  <r_i_glide_intrahb_reward>  (95) 
-0

>  <i_i_glide_confnum>  (95) 
5

>  <i_i_glide_posenum>  (95) 
20

>  <r_i_glide_eff_state_penalty>  (95) 
0

>  <ligand_id>  (95) 
33

>  <original_smiles>  (95) 
CC12CCC3C4(OC4C1=CC(=O)OC2c1ccoc1)C1CCC=C1C1OC12CC(O)CCC32C

>  <smiles>  (95) 
[H]OC1([H])C([H])([H])C([H])([H])C2(C([H])([H])[H])C3([H])C([H])([H])C([H])([H])C4(C([H])([H])[H])C(=C([H])C(=O)OC4([H])c4c([H])oc([H])c4[H])C4([H])OC43C3([H])C(=C([H])C([H])([H])C3([H])[H])C3([H])OC32C1([H])[H]

$$$$
33:0:2
     RDKit          3D

 66 73  0  0  1  0  0  0  0  0999 V2000
    4.2949   -3.9941    3.9257 C   0  0  0  0  0  0  0  0  0  0  0  0
    3.3709   -3.0139    3.1490 C   0  0  1  0  0  0  0  0  0  0  0  0
    2.1404   -2.5864    3.9982 C   0  0  0  0  0  0  0  0  0  0  0  0
    1.4551   -1.2832    3.5157 C   0  0  0  0  0  0  0  0  0  0  0  0
    1.8419    0.0124    4.2925 C   0  0  1  0  0  0  0  0  0  0  0  0
    3.3472    0.0479    4.6772 C   0  0  2  0  0  0  0  0  0  0  0  0
    4.2591    0.5363    3.6738 O   0  0  0  0  0  0  0  0  0  0  0  0
    4.4153   -0.8329    3.9937 C   0  0  2  0  0  0  0  0  0  0  0  0
    4.1868   -1.7589    2.8507 C   0  0  0  0  0  0  0  0  0  0  0  0
    4.7076   -1.5123    1.6326 C   0  0  0  0  0  0  0  0  0  0  0  0
    4.6018   -2.4683    0.5167 C   0  0  0  0  0  0  0  0  0  0  0  0
    5.1736   -2.2990   -0.5533 O   0  0  0  0  0  0  0  0  0  0  0  0
    3.8974   -3.5968    0.7949 O   0  0  0  0  0  0  0  0  0  0  0  0
    2.8794   -3.6322    1.7950 C   0  0  1  0  0  0  0  0  0  0  0  0
    2.2522   -5.0239    1.8673 C   0  0  0  0  0  0  0  0  0  0  0  0
    1.9748   -5.8876    0.7637 C   0  0  0  0  0  0  0  0  0  0  0  0
    1.3845   -7.0128    1.2708 C   0  0  0  0  0  0  0  0  0  0  0  0
    1.2429   -6.9172    2.6098 O   0  0  0  0  0  0  0  0  0  0  0  0
    1.7675   -5.7172    2.9528 C   0  0  0  0  0  0  0  0  0  0  0  0
    3.5413    0.6463    6.0791 C   0  0  1  0  0  0  0  0  0  0  0  0
    4.9178    0.4207    6.7614 C   0  0  0  0  0  0  0  0  0  0  0  0
    5.7476    1.6835    6.4761 C   0  0  0  0  0  0  0  0  0  0  0  0
    4.6730    2.7046    6.2321 C   0  0  0  0  0  0  0  0  0  0  0  0
    3.4802    2.1488    6.0064 C   0  0  0  0  0  0  0  0  0  0  0  0
    2.2154    2.8804    5.7589 C   0  0  2  0  0  0  0  0  0  0  0  0
    0.9740    2.2073    6.0519 O   0  0  0  0  0  0  0  0  0  0  0  0
    1.2108    2.5596    4.6837 C   0  0  1  0  0  0  0  0  0  0  0  0
    0.4157    3.7690    4.1680 C   0  0  0  0  0  0  0  0  0  0  0  0
   -1.0329    3.4567    3.7619 C   0  0  1  0  0  0  0  0  0  0  0  0
   -1.5778    4.5972    3.1164 O   0  0  0  0  0  0  0  0  0  0  0  0
   -1.1071    2.2506    2.8275 C   0  0  0  0  0  0  0  0  0  0  0  0
   -0.2922    1.0633    3.3563 C   0  0  0  0  0  0  0  0  0  0  0  0
    1.2087    1.3561    3.6930 C   0  0  2  0  0  0  0  0  0  0  0  0
    1.9497    1.7731    2.3955 C   0  0  0  0  0  0  0  0  0  0  0  0
    3.7967   -4.8921    4.2888 H   0  0  0  0  0  0  0  0  0  0  0  0
    4.7376   -3.5222    4.8054 H   0  0  0  0  0  0  0  0  0  0  0  0
    5.1197   -4.3306    3.2911 H   0  0  0  0  0  0  0  0  0  0  0  0
    1.3764   -3.3564    3.9608 H   0  0  0  0  0  0  0  0  0  0  0  0
    2.3998   -2.5127    5.0577 H   0  0  0  0  0  0  0  0  0  0  0  0
    1.5691   -1.1516    2.4388 H   0  0  0  0  0  0  0  0  0  0  0  0
    0.3891   -1.4579    3.6641 H   0  0  0  0  0  0  0  0  0  0  0  0
    1.3108   -0.1427    5.2312 H   0  0  0  0  0  0  0  0  0  0  0  0
    5.3453   -1.0603    4.5043 H   0  0  0  0  0  0  0  0  0  0  0  0
    5.2875   -0.6205    1.4455 H   0  0  0  0  0  0  0  0  0  0  0  0
    2.0858   -2.9945    1.4012 H   0  0  0  0  0  0  0  0  0  0  0  0
    2.1948   -5.7101   -0.2812 H   0  0  0  0  0  0  0  0  0  0  0  0
    1.0127   -7.9333    0.8429 H   0  0  0  0  0  0  0  0  0  0  0  0
    1.7148   -5.5332    4.0153 H   0  0  0  0  0  0  0  0  0  0  0  0
    2.7663    0.2780    6.7519 H   0  0  0  0  0  0  0  0  0  0  0  0
    4.7364    0.4099    7.8382 H   0  0  0  0  0  0  0  0  0  0  0  0
    5.4218   -0.5195    6.5478 H   0  0  0  0  0  0  0  0  0  0  0  0
    6.4003    1.9549    7.3065 H   0  0  0  0  0  0  0  0  0  0  0  0
    6.3485    1.5658    5.5740 H   0  0  0  0  0  0  0  0  0  0  0  0
    4.8830    3.7619    6.2333 H   0  0  0  0  0  0  0  0  0  0  0  0
    2.2643    3.9068    6.1127 H   0  0  0  0  0  0  0  0  0  0  0  0
    0.3743    4.5215    4.9588 H   0  0  0  0  0  0  0  0  0  0  0  0
    0.9629    4.2330    3.3445 H   0  0  0  0  0  0  0  0  0  0  0  0
   -1.6298    3.2560    4.6538 H   0  0  0  0  0  0  0  0  0  0  0  0
   -1.1006    4.7039    2.2921 H   0  0  0  0  0  0  0  0  0  0  0  0
   -2.1457    1.9558    2.6869 H   0  0  0  0  0  0  0  0  0  0  0  0
   -0.7430    2.5169    1.8392 H   0  0  0  0  0  0  0  0  0  0  0  0
   -0.7891    0.6843    4.2490 H   0  0  0  0  0  0  0  0  0  0  0  0
   -0.3721    0.2901    2.5959 H   0  0  0  0  0  0  0  0  0  0  0  0
    1.4198    2.5433    1.8328 H   0  0  0  0  0  0  0  0  0  0  0  0
    2.0910    0.9291    1.7191 H   0  0  0  0  0  0  0  0  0  0  0  0
    2.9276    2.2048    2.6137 H   0  0  0  0  0  0  0  0  0  0  0  0
  2  1  1  1
  1 35  1  0
  1 36  1  0
  1 37  1  0
  2  9  1  0
  2 14  1  0
  2  3  1  0
  3  4  1  0
  3 38  1  0
  3 39  1  0
  4  5  1  0
  4 40  1  0
  4 41  1  0
  5 33  1  0
  5  6  1  0
  5 42  1  1
  6  8  1  0
  6  7  1  6
  6 20  1  0
  7  8  1  0
  8  9  1  0
  8 43  1  1
  9 10  2  0
 10 11  1  0
 10 44  1  0
 11 12  2  0
 11 13  1  0
 13 14  1  0
 14 15  1  0
 14 45  1  6
 15 19  2  0
 15 16  1  0
 16 17  2  0
 16 46  1  0
 17 18  1  0
 17 47  1  0
 18 19  1  0
 19 48  1  0
 20 24  1  0
 20 21  1  0
 20 49  1  1
 21 22  1  0
 21 50  1  0
 21 51  1  0
 22 23  1  0
 22 52  1  0
 22 53  1  0
 23 24  2  0
 23 54  1  0
 24 25  1  0
 25 27  1  0
 25 26  1  0
 25 55  1  1
 27 26  1  1
 27 33  1  0
 27 28  1  0
 28 29  1  0
 28 56  1  0
 28 57  1  0
 29 30  1  0
 29 31  1  0
 29 58  1  1
 30 59  1  0
 31 32  1  0
 31 60  1  0
 31 61  1  0
 32 33  1  0
 32 62  1  0
 32 63  1  0
 33 34  1  6
 34 64  1  0
 34 65  1  0
 34 66  1  0
M  END
>  <i_m_ct_stereo_status>  (96) 
1

>  <s_m_source_file>  (96) 
/var/tmp/pbs.5076255.sched01/tmpvsf1hu0j/0g1dnczxv.sdf

>  <i_m_source_file_index>  (96) 
40

>  <i_lp_mmshare_version>  (96) 
48012

>  <i_f3d_flags>  (96) 
0

>  <s_epik_input>  (96) 
W2NIXTFvW2NIXVtjSF1jMVtDQEBIXTJPQyg9TylbQ0hdPUMoW0NASF0zTzQpW0NAQF0yKFtDSDNdKVtDSDJdW0NIMl1bQ0BASF0oW0NAQF0zNDUpW0NAXTYoW0NIM10pW0NAXTcoW0NIMl1bQ0BASF0oW09IXSlbQ0gyXVtDSDJdNilbQ0BASF0oTzcpQzhbQ0BASF01W0NIMl1bQ0gyXVtDSF09OA==

>  <s_epik_cmdline>  (96) 
J2VwaWtfcHl0aG9uJywgJy1waHQnLCAnMi4wJywgJy1waCcsICc3LjAnLCAnLXRuJywgJzgnLCAnLW1hJywgJzIwMCcsICctaW1hZScsICc8aW5maWxlLm1hZT4nLCAnLW9tYWUnLCAnPG91dGZpbGUubWFlPic=

>  <r_lp_tautomer_probability>  (96) 
1

>  <r_epik_Ionization_Penalty>  (96) 
3.56051e-07

>  <r_epik_Ionization_Penalty_Charging>  (96) 
0

>  <r_epik_Ionization_Penalty_Neutral>  (96) 
3.56051e-07

>  <r_epik_State_Penalty>  (96) 
-0

>  <r_epik_Charging_Adjusted_Penalty>  (96) 
0

>  <i_epik_Tot_Q>  (96) 
0

>  <i_epik_Tot_abs_Q>  (96) 
0

>  <s_epik_Chemistry_Notes>  (96) 
This compound has an ester and may undergo hydrolysis at high or low pH.

>  <s_lp_Force_Field>  (96) 
OPLS3e

>  <r_lp_Energy>  (96) 
59.3028

>  <b_lp_Chiralities_Consistent>  (96) 
1

>  <s_lp_Variant>  (96) 
33:0-1

>  <s_i_glide_gridfile>  (96) 
pfpi4k_grid

>  <i_i_glide_lignum>  (96) 
40

>  <i_i_glide_rotatable_bonds>  (96) 
2

>  <r_i_docking_score>  (96) 
-3.13366

>  <r_i_glide_ligand_efficiency>  (96) 
-0.0921663

>  <r_i_glide_ligand_efficiency_sa>  (96) 
-0.298583

>  <r_i_glide_ligand_efficiency_ln>  (96) 
-0.692312

>  <r_i_glide_gscore>  (96) 
-3.13366

>  <r_i_glide_lipo>  (96) 
-0.154229

>  <r_i_glide_hbond>  (96) 
-0.299483

>  <r_i_glide_metal>  (96) 
-0

>  <r_i_glide_rewards>  (96) 
-0.244559

>  <r_i_glide_evdw>  (96) 
-28.497

>  <r_i_glide_ecoul>  (96) 
-7.35968

>  <r_i_glide_erotb>  (96) 
0.0934181

>  <r_i_glide_esite>  (96) 
0

>  <r_i_glide_emodel>  (96) 
-42.7566

>  <r_i_glide_energy>  (96) 
-35.8567

>  <r_i_glide_einternal>  (96) 
0.937694

>  <r_i_glide_intrahb_reward>  (96) 
-0

>  <i_i_glide_confnum>  (96) 
1

>  <i_i_glide_posenum>  (96) 
36

>  <r_i_glide_eff_state_penalty>  (96) 
0

>  <ligand_id>  (96) 
33

>  <original_smiles>  (96) 
CC12CCC3C4(OC4C1=CC(=O)OC2c1ccoc1)C1CCC=C1C1OC12CC(O)CCC32C

>  <smiles>  (96) 
[H]OC1([H])C([H])([H])C([H])([H])C2(C([H])([H])[H])C3([H])C([H])([H])C([H])([H])C4(C([H])([H])[H])C(=C([H])C(=O)OC4([H])c4c([H])oc([H])c4[H])C4([H])OC43C3([H])C(=C([H])C([H])([H])C3([H])[H])C3([H])OC32C1([H])[H]

$$$$
34:0:0
     RDKit          3D

 53 56  0  0  1  0  0  0  0  0999 V2000
    5.6653   -0.1209    3.8379 C   0  0  0  0  0  0  0  0  0  0  0  0
    4.5255   -0.6604    2.9672 C   0  0  2  0  0  0  0  0  0  0  0  0
    3.1956   -0.6595    3.7474 C   0  0  0  0  0  0  0  0  0  0  0  0
    2.0480   -1.2974    2.9464 C   0  0  0  0  0  0  0  0  0  0  0  0
    2.4751   -2.6529    2.3235 C   0  0  2  0  0  0  0  0  0  0  0  0
    2.6539   -3.6792    3.4830 C   0  0  1  0  0  0  0  0  0  0  0  0
    1.8165   -4.9555    3.2726 C   0  0  0  0  0  0  0  0  0  0  0  0
    4.1489   -4.0301    3.7574 C   0  0  1  0  0  0  0  0  0  0  0  0
    4.4885   -5.1770    3.0453 O   0  0  0  0  0  0  0  0  0  0  0  0
    5.8443   -5.5808    3.0948 C   0  0  0  0  0  0  0  0  0  0  0  0
    6.5831   -5.0080    1.8798 C   0  0  0  0  0  0  0  0  0  0  0  0
    5.8181   -5.1857    0.5580 C   0  0  0  0  0  0  0  0  0  0  0  0
    5.1698   -3.9480    0.1169 N   0  0  0  0  0  0  0  0  0  0  0  0
    4.7495   -4.0943   -1.2756 C   0  0  0  0  0  0  0  0  0  0  0  0
    5.4280   -3.0222   -2.1389 C   0  0  0  0  0  0  0  0  0  0  0  0
    4.7418   -1.6477   -2.0596 C   0  0  0  0  0  0  0  0  0  0  0  0
    4.6565   -1.0659   -0.6398 C   0  0  0  0  0  0  0  0  0  0  0  0
    3.4607   -1.5779    0.2034 C   0  0  0  0  0  0  0  0  0  0  0  0
    3.7298   -2.5412    1.4122 C   0  0  2  0  0  0  0  0  0  0  0  0
    3.9325   -3.8600    0.8686 O   0  0  0  0  0  0  0  0  0  0  0  0
    4.8404   -2.0712    2.3935 C   0  0  2  0  0  0  0  0  0  0  0  0
    5.0036   -2.9294    3.5406 O   0  0  0  0  0  0  0  0  0  0  0  0
    5.8105   -0.7435    4.7225 H   0  0  0  0  0  0  0  0  0  0  0  0
    5.4507    0.8926    4.1777 H   0  0  0  0  0  0  0  0  0  0  0  0
    6.6050   -0.0962    3.2829 H   0  0  0  0  0  0  0  0  0  0  0  0
    4.4192    0.0425    2.1395 H   0  0  0  0  0  0  0  0  0  0  0  0
    3.3309   -1.1973    4.6872 H   0  0  0  0  0  0  0  0  0  0  0  0
    2.9217    0.3571    4.0244 H   0  0  0  0  0  0  0  0  0  0  0  0
    1.1832   -1.4411    3.5948 H   0  0  0  0  0  0  0  0  0  0  0  0
    1.6962   -0.6055    2.1856 H   0  0  0  0  0  0  0  0  0  0  0  0
    1.6487   -2.9831    1.6983 H   0  0  0  0  0  0  0  0  0  0  0  0
    2.2860   -3.2391    4.4092 H   0  0  0  0  0  0  0  0  0  0  0  0
    2.0886   -5.4596    2.3434 H   0  0  0  0  0  0  0  0  0  0  0  0
    0.7549   -4.7166    3.2184 H   0  0  0  0  0  0  0  0  0  0  0  0
    1.9553   -5.6661    4.0898 H   0  0  0  0  0  0  0  0  0  0  0  0
    4.2671   -4.2984    4.8093 H   0  0  0  0  0  0  0  0  0  0  0  0
    6.3291   -5.3123    4.0352 H   0  0  0  0  0  0  0  0  0  0  0  0
    5.8732   -6.6695    3.0401 H   0  0  0  0  0  0  0  0  0  0  0  0
    6.8402   -3.9659    2.0384 H   0  0  0  0  0  0  0  0  0  0  0  0
    7.5392   -5.5247    1.8095 H   0  0  0  0  0  0  0  0  0  0  0  0
    6.5614   -5.4587   -0.1872 H   0  0  0  0  0  0  0  0  0  0  0  0
    5.1089   -6.0154    0.6031 H   0  0  0  0  0  0  0  0  0  0  0  0
    5.0189   -5.0748   -1.6672 H   0  0  0  0  0  0  0  0  0  0  0  0
    3.6650   -4.0310   -1.3769 H   0  0  0  0  0  0  0  0  0  0  0  0
    6.4873   -2.9427   -1.8854 H   0  0  0  0  0  0  0  0  0  0  0  0
    5.4042   -3.3488   -3.1801 H   0  0  0  0  0  0  0  0  0  0  0  0
    5.3095   -0.9541   -2.6817 H   0  0  0  0  0  0  0  0  0  0  0  0
    3.7515   -1.6949   -2.5134 H   0  0  0  0  0  0  0  0  0  0  0  0
    5.6088   -1.1777   -0.1293 H   0  0  0  0  0  0  0  0  0  0  0  0
    4.5269    0.0078   -0.7532 H   0  0  0  0  0  0  0  0  0  0  0  0
    2.9719   -0.6743    0.5487 H   0  0  0  0  0  0  0  0  0  0  0  0
    2.7165   -2.0368   -0.4453 H   0  0  0  0  0  0  0  0  0  0  0  0
    5.8016   -2.0201    1.8842 H   0  0  0  0  0  0  0  0  0  0  0  0
  1  2  1  0
  1 23  1  0
  1 24  1  0
  1 25  1  0
  2 21  1  0
  2  3  1  0
  2 26  1  6
  3  4  1  0
  3 27  1  0
  3 28  1  0
  4  5  1  0
  4 29  1  0
  4 30  1  0
  5 19  1  0
  5  6  1  0
  5 31  1  6
  6  7  1  0
  6  8  1  0
  6 32  1  1
  7 33  1  0
  7 34  1  0
  7 35  1  0
  8 22  1  0
  8  9  1  0
  8 36  1  1
  9 10  1  0
 10 11  1  0
 10 37  1  0
 10 38  1  0
 11 12  1  0
 11 39  1  0
 11 40  1  0
 12 13  1  0
 12 41  1  0
 12 42  1  0
 13 20  1  0
 13 14  1  0
 14 15  1  0
 14 43  1  0
 14 44  1  0
 15 16  1  0
 15 45  1  0
 15 46  1  0
 16 17  1  0
 16 47  1  0
 16 48  1  0
 17 18  1  0
 17 49  1  0
 17 50  1  0
 19 18  1  6
 18 51  1  0
 18 52  1  0
 19 20  1  0
 19 21  1  0
 21 22  1  0
 21 53  1  6
M  END
>  <i_m_ct_stereo_status>  (97) 
1

>  <s_m_source_file>  (97) 
/var/tmp/pbs.5076255.sched01/tmpvsf1hu0j/0g1dnczxv.sdf

>  <i_m_source_file_index>  (97) 
41

>  <i_lp_mmshare_version>  (97) 
48012

>  <i_f3d_flags>  (97) 
0

>  <s_epik_input>  (97) 
W0NAQF0xMjNbQ0BASF00W0NIMl1bQ0gyXVtDQEBIXShbQ0gzXSlbQ0BIXTNPW0NAQEhdKFtDQEBIXTRbQ0gzXSlPW0NIMl1bQ0gyXVtDSDJdTihPMilbQ0gyXVtDSDJdW0NIMl1bQ0gyXVtDSDJdMQ==

>  <s_epik_cmdline>  (97) 
J2VwaWtfcHl0aG9uJywgJy1waHQnLCAnMi4wJywgJy1waCcsICc3LjAnLCAnLXRuJywgJzgnLCAnLW1hJywgJzIwMCcsICctaW1hZScsICc8aW5maWxlLm1hZT4nLCAnLW9tYWUnLCAnPG91dGZpbGUubWFlPic=

>  <r_epik_Ionization_Penalty>  (97) 
0.01171

>  <r_epik_Ionization_Penalty_Charging>  (97) 
0

>  <r_epik_Ionization_Penalty_Neutral>  (97) 
0.01171

>  <r_epik_State_Penalty>  (97) 
0.00902645

>  <r_epik_Charging_Adjusted_Penalty>  (97) 
0.00902645

>  <i_epik_Tot_Q>  (97) 
0

>  <i_epik_Tot_abs_Q>  (97) 
0

>  <s_epik_Chemistry_Notes>  (97) 
This compound contains an acetal/aminal-like group ( X-CH(R)-Y where X, Y are N, S, or O) that may be acid/base labile, releasing an aldehyde. This compound has a N-S or N-O group and may undergo hydrolysis at high or low pH.

>  <s_lp_Force_Field>  (97) 
OPLS3e

>  <r_lp_Energy>  (97) 
51.6295

>  <b_lp_Chiralities_Consistent>  (97) 
1

>  <s_lp_Variant>  (97) 
34:0-1

>  <s_i_glide_gridfile>  (97) 
pfpi4k_grid

>  <i_i_glide_lignum>  (97) 
41

>  <i_i_glide_rotatable_bonds>  (97) 
0

>  <r_i_docking_score>  (97) 
-3.13159

>  <r_i_glide_ligand_efficiency>  (97) 
-0.142345

>  <r_i_glide_ligand_efficiency_sa>  (97) 
-0.398857

>  <r_i_glide_ligand_efficiency_ln>  (97) 
-0.765475

>  <r_i_glide_gscore>  (97) 
-3.13159

>  <r_i_glide_lipo>  (97) 
-0.536558

>  <r_i_glide_hbond>  (97) 
0

>  <r_i_glide_metal>  (97) 
-0

>  <r_i_glide_rewards>  (97) 
-1.37029

>  <r_i_glide_evdw>  (97) 
-20.9099

>  <r_i_glide_ecoul>  (97) 
-1.19504

>  <r_i_glide_erotb>  (97) 
0

>  <r_i_glide_esite>  (97) 
0

>  <r_i_glide_emodel>  (97) 
-26.3833

>  <r_i_glide_energy>  (97) 
-22.1049

>  <r_i_glide_einternal>  (97) 
0

>  <r_i_glide_intrahb_reward>  (97) 
-0

>  <i_i_glide_confnum>  (97) 
2

>  <i_i_glide_posenum>  (97) 
29

>  <r_i_glide_eff_state_penalty>  (97) 
0

>  <ligand_id>  (97) 
34

>  <original_smiles>  (97) 
CC1CCC2C(C)C3OCCCN4CCCCCC2(O4)C1O3

>  <smiles>  (97) 
[H]C([H])([H])C1([H])C([H])([H])C([H])([H])C2([H])C([H])(C([H])([H])[H])C3([H])OC([H])([H])C([H])([H])C([H])([H])N4OC2(C([H])([H])C([H])([H])C([H])([H])C([H])([H])C4([H])[H])C1([H])O3

$$$$
34:0:1
     RDKit          3D

 53 56  0  0  1  0  0  0  0  0999 V2000
    7.8672   -3.0608    0.3488 C   0  0  0  0  0  0  0  0  0  0  0  0
    6.3547   -3.0535    0.0736 C   0  0  2  0  0  0  0  0  0  0  0  0
    5.9633   -1.8695   -0.8310 C   0  0  0  0  0  0  0  0  0  0  0  0
    4.4424   -1.7608   -1.0423 C   0  0  0  0  0  0  0  0  0  0  0  0
    3.6765   -1.8693    0.3021 C   0  0  2  0  0  0  0  0  0  0  0  0
    3.9700   -0.5799    1.1252 C   0  0  1  0  0  0  0  0  0  0  0  0
    2.6849    0.1396    1.5816 C   0  0  0  0  0  0  0  0  0  0  0  0
    4.9088   -0.8400    2.3417 C   0  0  1  0  0  0  0  0  0  0  0  0
    4.1345   -1.0782    3.4738 O   0  0  0  0  0  0  0  0  0  0  0  0
    4.8235   -1.4301    4.6563 C   0  0  0  0  0  0  0  0  0  0  0  0
    4.8826   -2.9566    4.7691 C   0  0  0  0  0  0  0  0  0  0  0  0
    3.5282   -3.6330    4.4967 C   0  0  0  0  0  0  0  0  0  0  0  0
    3.4555   -4.2347    3.1618 N   0  0  0  0  0  0  0  0  0  0  0  0
    2.2913   -5.1147    3.1025 C   0  0  0  0  0  0  0  0  0  0  0  0
    2.7508   -6.5400    2.7702 C   0  0  0  0  0  0  0  0  0  0  0  0
    3.0391   -6.7682    1.2795 C   0  0  0  0  0  0  0  0  0  0  0  0
    4.1056   -5.8387    0.6767 C   0  0  0  0  0  0  0  0  0  0  0  0
    3.5869   -4.4446    0.2405 C   0  0  0  0  0  0  0  0  0  0  0  0
    3.9905   -3.1793    1.0788 C   0  0  2  0  0  0  0  0  0  0  0  0
    3.1466   -3.1503    2.2479 O   0  0  0  0  0  0  0  0  0  0  0  0
    5.5135   -3.0495    1.3823 C   0  0  2  0  0  0  0  0  0  0  0  0
    5.8686   -1.8328    2.0659 O   0  0  0  0  0  0  0  0  0  0  0  0
    8.1788   -2.1567    0.8738 H   0  0  0  0  0  0  0  0  0  0  0  0
    8.4357   -3.1160   -0.5808 H   0  0  0  0  0  0  0  0  0  0  0  0
    8.1465   -3.9169    0.9640 H   0  0  0  0  0  0  0  0  0  0  0  0
    6.1485   -3.9708   -0.4805 H   0  0  0  0  0  0  0  0  0  0  0  0
    6.3318   -0.9464   -0.3815 H   0  0  0  0  0  0  0  0  0  0  0  0
    6.4548   -1.9582   -1.7981 H   0  0  0  0  0  0  0  0  0  0  0  0
    4.2070   -0.8133   -1.5315 H   0  0  0  0  0  0  0  0  0  0  0  0
    4.1135   -2.5150   -1.7531 H   0  0  0  0  0  0  0  0  0  0  0  0
    2.6129   -1.8767    0.0567 H   0  0  0  0  0  0  0  0  0  0  0  0
    4.4980    0.1378    0.4955 H   0  0  0  0  0  0  0  0  0  0  0  0
    2.0651   -0.5140    2.1982 H   0  0  0  0  0  0  0  0  0  0  0  0
    2.0789    0.4356    0.7248 H   0  0  0  0  0  0  0  0  0  0  0  0
    2.9087    1.0400    2.1574 H   0  0  0  0  0  0  0  0  0  0  0  0
    5.4730    0.0683    2.5620 H   0  0  0  0  0  0  0  0  0  0  0  0
    5.8082   -0.9652    4.7124 H   0  0  0  0  0  0  0  0  0  0  0  0
    4.2628   -1.0375    5.5036 H   0  0  0  0  0  0  0  0  0  0  0  0
    5.6589   -3.3737    4.1349 H   0  0  0  0  0  0  0  0  0  0  0  0
    5.1946   -3.1937    5.7853 H   0  0  0  0  0  0  0  0  0  0  0  0
    3.4284   -4.4300    5.2328 H   0  0  0  0  0  0  0  0  0  0  0  0
    2.6929   -2.9503    4.6692 H   0  0  0  0  0  0  0  0  0  0  0  0
    1.7632   -5.1384    4.0556 H   0  0  0  0  0  0  0  0  0  0  0  0
    1.5664   -4.7657    2.3663 H   0  0  0  0  0  0  0  0  0  0  0  0
    3.6187   -6.8100    3.3771 H   0  0  0  0  0  0  0  0  0  0  0  0
    1.9635   -7.2371    3.0636 H   0  0  0  0  0  0  0  0  0  0  0  0
    3.3787   -7.8005    1.1682 H   0  0  0  0  0  0  0  0  0  0  0  0
    2.1131   -6.7002    0.7103 H   0  0  0  0  0  0  0  0  0  0  0  0
    4.9644   -5.7805    1.3425 H   0  0  0  0  0  0  0  0  0  0  0  0
    4.4791   -6.3376   -0.2175 H   0  0  0  0  0  0  0  0  0  0  0  0
    3.9382   -4.3407   -0.7788 H   0  0  0  0  0  0  0  0  0  0  0  0
    2.5040   -4.4651    0.1341 H   0  0  0  0  0  0  0  0  0  0  0  0
    5.8509   -3.8804    1.9972 H   0  0  0  0  0  0  0  0  0  0  0  0
  1  2  1  0
  1 23  1  0
  1 24  1  0
  1 25  1  0
  2 21  1  0
  2  3  1  0
  2 26  1  6
  3  4  1  0
  3 27  1  0
  3 28  1  0
  4  5  1  0
  4 29  1  0
  4 30  1  0
  5 19  1  0
  5  6  1  0
  5 31  1  6
  6  7  1  0
  6  8  1  0
  6 32  1  6
  7 33  1  0
  7 34  1  0
  7 35  1  0
  8 22  1  0
  8  9  1  0
  8 36  1  1
  9 10  1  0
 10 11  1  0
 10 37  1  0
 10 38  1  0
 11 12  1  0
 11 39  1  0
 11 40  1  0
 12 13  1  0
 12 41  1  0
 12 42  1  0
 13 20  1  0
 13 14  1  0
 14 15  1  0
 14 43  1  0
 14 44  1  0
 15 16  1  0
 15 45  1  0
 15 46  1  0
 16 17  1  0
 16 47  1  0
 16 48  1  0
 17 18  1  0
 17 49  1  0
 17 50  1  0
 19 18  1  6
 18 51  1  0
 18 52  1  0
 19 20  1  0
 19 21  1  0
 21 22  1  0
 21 53  1  1
M  END
>  <i_m_ct_stereo_status>  (98) 
1

>  <s_m_source_file>  (98) 
/var/tmp/pbs.5076255.sched01/tmpvsf1hu0j/0g1dnczxv.sdf

>  <i_m_source_file_index>  (98) 
41

>  <i_lp_mmshare_version>  (98) 
48012

>  <i_f3d_flags>  (98) 
0

>  <s_epik_input>  (98) 
W0NAQF0xMjNbQ0BASF00W0NIMl1bQ0gyXVtDQEBIXShbQ0gzXSlbQ0BIXTNPW0NAQEhdKFtDQEBIXTRbQ0gzXSlPW0NIMl1bQ0gyXVtDSDJdTihPMilbQ0gyXVtDSDJdW0NIMl1bQ0gyXVtDSDJdMQ==

>  <s_epik_cmdline>  (98) 
J2VwaWtfcHl0aG9uJywgJy1waHQnLCAnMi4wJywgJy1waCcsICc3LjAnLCAnLXRuJywgJzgnLCAnLW1hJywgJzIwMCcsICctaW1hZScsICc8aW5maWxlLm1hZT4nLCAnLW9tYWUnLCAnPG91dGZpbGUubWFlPic=

>  <r_epik_Ionization_Penalty>  (98) 
0.01171

>  <r_epik_Ionization_Penalty_Charging>  (98) 
0

>  <r_epik_Ionization_Penalty_Neutral>  (98) 
0.01171

>  <r_epik_State_Penalty>  (98) 
0.00902645

>  <r_epik_Charging_Adjusted_Penalty>  (98) 
0.00902645

>  <i_epik_Tot_Q>  (98) 
0

>  <i_epik_Tot_abs_Q>  (98) 
0

>  <s_epik_Chemistry_Notes>  (98) 
This compound contains an acetal/aminal-like group ( X-CH(R)-Y where X, Y are N, S, or O) that may be acid/base labile, releasing an aldehyde. This compound has a N-S or N-O group and may undergo hydrolysis at high or low pH.

>  <s_lp_Force_Field>  (98) 
OPLS3e

>  <r_lp_Energy>  (98) 
51.6295

>  <b_lp_Chiralities_Consistent>  (98) 
1

>  <s_lp_Variant>  (98) 
34:0-1

>  <s_i_glide_gridfile>  (98) 
pfpi4k_grid

>  <i_i_glide_lignum>  (98) 
41

>  <i_i_glide_rotatable_bonds>  (98) 
0

>  <r_i_docking_score>  (98) 
-3.10092

>  <r_i_glide_ligand_efficiency>  (98) 
-0.140951

>  <r_i_glide_ligand_efficiency_sa>  (98) 
-0.39495

>  <r_i_glide_ligand_efficiency_ln>  (98) 
-0.757978

>  <r_i_glide_gscore>  (98) 
-3.10092

>  <r_i_glide_lipo>  (98) 
-0.587148

>  <r_i_glide_hbond>  (98) 
0

>  <r_i_glide_metal>  (98) 
-0

>  <r_i_glide_rewards>  (98) 
-1.44422

>  <r_i_glide_evdw>  (98) 
-23.4168

>  <r_i_glide_ecoul>  (98) 
0.677432

>  <r_i_glide_erotb>  (98) 
0

>  <r_i_glide_esite>  (98) 
-0.0003219

>  <r_i_glide_emodel>  (98) 
-26.9834

>  <r_i_glide_energy>  (98) 
-22.7394

>  <r_i_glide_einternal>  (98) 
0

>  <r_i_glide_intrahb_reward>  (98) 
-0

>  <i_i_glide_confnum>  (98) 
1

>  <i_i_glide_posenum>  (98) 
1

>  <r_i_glide_eff_state_penalty>  (98) 
0

>  <ligand_id>  (98) 
34

>  <original_smiles>  (98) 
CC1CCC2C(C)C3OCCCN4CCCCCC2(O4)C1O3

>  <smiles>  (98) 
[H]C([H])([H])C1([H])C([H])([H])C([H])([H])C2([H])C([H])(C([H])([H])[H])C3([H])OC([H])([H])C([H])([H])C([H])([H])N4OC2(C([H])([H])C([H])([H])C([H])([H])C([H])([H])C4([H])[H])C1([H])O3

$$$$
34:0:2
     RDKit          3D

 53 56  0  0  1  0  0  0  0  0999 V2000
    4.8138   -1.2452    3.8539 C   0  0  0  0  0  0  0  0  0  0  0  0
    4.1413   -2.1622    2.8166 C   0  0  2  0  0  0  0  0  0  0  0  0
    3.4789   -3.3766    3.4888 C   0  0  0  0  0  0  0  0  0  0  0  0
    2.8978   -4.3745    2.4633 C   0  0  0  0  0  0  0  0  0  0  0  0
    3.9146   -4.7052    1.3328 C   0  0  2  0  0  0  0  0  0  0  0  0
    5.0612   -5.5362    1.9643 C   0  0  1  0  0  0  0  0  0  0  0  0
    5.3062   -6.8610    1.2298 C   0  0  0  0  0  0  0  0  0  0  0  0
    6.3927   -4.7313    2.0803 C   0  0  1  0  0  0  0  0  0  0  0  0
    7.1985   -4.9485    0.9624 O   0  0  0  0  0  0  0  0  0  0  0  0
    8.3998   -4.2003    0.8968 C   0  0  0  0  0  0  0  0  0  0  0  0
    8.1829   -2.8897    0.1191 C   0  0  0  0  0  0  0  0  0  0  0  0
    7.4224   -3.1181   -1.1854 C   0  0  0  0  0  0  0  0  0  0  0  0
    5.9875   -2.8129   -1.1220 N   0  0  0  0  0  0  0  0  0  0  0  0
    5.4078   -2.8335   -2.4612 C   0  0  0  0  0  0  0  0  0  0  0  0
    4.8500   -1.4424   -2.7639 C   0  0  0  0  0  0  0  0  0  0  0  0
    3.4973   -1.1494   -2.1543 C   0  0  0  0  0  0  0  0  0  0  0  0
    3.5051   -1.2606   -0.6210 C   0  0  0  0  0  0  0  0  0  0  0  0
    3.2585   -2.6877   -0.1030 C   0  0  0  0  0  0  0  0  0  0  0  0
    4.4280   -3.4383    0.5906 C   0  0  2  0  0  0  0  0  0  0  0  0
    5.3328   -3.9071   -0.4333 O   0  0  0  0  0  0  0  0  0  0  0  0
    5.1353   -2.6209    1.7094 C   0  0  2  0  0  0  0  0  0  0  0  0
    6.1489   -3.3760    2.3728 O   0  0  0  0  0  0  0  0  0  0  0  0
    5.5976   -1.7715    4.3955 H   0  0  0  0  0  0  0  0  0  0  0  0
    4.0857   -0.8966    4.5849 H   0  0  0  0  0  0  0  0  0  0  0  0
    5.2573   -0.3698    3.3790 H   0  0  0  0  0  0  0  0  0  0  0  0
    3.3537   -1.5646    2.3589 H   0  0  0  0  0  0  0  0  0  0  0  0
    4.2108   -3.8782    4.1202 H   0  0  0  0  0  0  0  0  0  0  0  0
    2.6888   -3.0465    4.1590 H   0  0  0  0  0  0  0  0  0  0  0  0
    2.6018   -5.2874    2.9816 H   0  0  0  0  0  0  0  0  0  0  0  0
    1.9689   -3.9768    2.0622 H   0  0  0  0  0  0  0  0  0  0  0  0
    3.3903   -5.3407    0.6080 H   0  0  0  0  0  0  0  0  0  0  0  0
    4.7948   -5.8112    2.9836 H   0  0  0  0  0  0  0  0  0  0  0  0
    5.5518   -6.6557    0.1841 H   0  0  0  0  0  0  0  0  0  0  0  0
    4.4137   -7.4947    1.2476 H   0  0  0  0  0  0  0  0  0  0  0  0
    6.1311   -7.4247    1.6740 H   0  0  0  0  0  0  0  0  0  0  0  0
    6.9556   -5.1310    2.9267 H   0  0  0  0  0  0  0  0  0  0  0  0
    8.8347   -4.0131    1.8747 H   0  0  0  0  0  0  0  0  0  0  0  0
    9.1304   -4.8163    0.3802 H   0  0  0  0  0  0  0  0  0  0  0  0
    7.7033   -2.1230    0.7219 H   0  0  0  0  0  0  0  0  0  0  0  0
    9.1687   -2.4946   -0.1412 H   0  0  0  0  0  0  0  0  0  0  0  0
    7.8901   -2.5367   -1.9841 H   0  0  0  0  0  0  0  0  0  0  0  0
    7.5968   -4.1515   -1.4326 H   0  0  0  0  0  0  0  0  0  0  0  0
    6.1573   -3.0851   -3.2160 H   0  0  0  0  0  0  0  0  0  0  0  0
    4.6120   -3.5795   -2.5556 H   0  0  0  0  0  0  0  0  0  0  0  0
    5.5450   -0.6793   -2.4208 H   0  0  0  0  0  0  0  0  0  0  0  0
    4.7588   -1.3229   -3.8441 H   0  0  0  0  0  0  0  0  0  0  0  0
    3.2748   -0.1414   -2.4801 H   0  0  0  0  0  0  0  0  0  0  0  0
    2.7153   -1.7693   -2.5942 H   0  0  0  0  0  0  0  0  0  0  0  0
    4.4069   -0.8017   -0.2211 H   0  0  0  0  0  0  0  0  0  0  0  0
    2.6978   -0.6422   -0.2231 H   0  0  0  0  0  0  0  0  0  0  0  0
    2.4223   -2.5821    0.5681 H   0  0  0  0  0  0  0  0  0  0  0  0
    2.8558   -3.3047   -0.9039 H   0  0  0  0  0  0  0  0  0  0  0  0
    5.6104   -1.7383    1.2945 H   0  0  0  0  0  0  0  0  0  0  0  0
  1  2  1  0
  1 23  1  0
  1 24  1  0
  1 25  1  0
  2 21  1  0
  2  3  1  0
  2 26  1  6
  3  4  1  0
  3 27  1  0
  3 28  1  0
  4  5  1  0
  4 29  1  0
  4 30  1  0
  5 19  1  0
  5  6  1  0
  5 31  1  6
  6  7  1  0
  6  8  1  0
  6 32  1  1
  7 33  1  0
  7 34  1  0
  7 35  1  0
  8 22  1  0
  8  9  1  0
  8 36  1  1
  9 10  1  0
 10 11  1  0
 10 37  1  0
 10 38  1  0
 11 12  1  0
 11 39  1  0
 11 40  1  0
 12 13  1  0
 12 41  1  0
 12 42  1  0
 13 20  1  0
 13 14  1  0
 14 15  1  0
 14 43  1  0
 14 44  1  0
 15 16  1  0
 15 45  1  0
 15 46  1  0
 16 17  1  0
 16 47  1  0
 16 48  1  0
 17 18  1  0
 17 49  1  0
 17 50  1  0
 19 18  1  6
 18 51  1  0
 18 52  1  0
 19 20  1  0
 19 21  1  0
 21 22  1  0
 21 53  1  6
M  END
>  <i_m_ct_stereo_status>  (99) 
1

>  <s_m_source_file>  (99) 
/var/tmp/pbs.5076255.sched01/tmpvsf1hu0j/0g1dnczxv.sdf

>  <i_m_source_file_index>  (99) 
41

>  <i_lp_mmshare_version>  (99) 
48012

>  <i_f3d_flags>  (99) 
0

>  <s_epik_input>  (99) 
W0NAQF0xMjNbQ0BASF00W0NIMl1bQ0gyXVtDQEBIXShbQ0gzXSlbQ0BIXTNPW0NAQEhdKFtDQEBIXTRbQ0gzXSlPW0NIMl1bQ0gyXVtDSDJdTihPMilbQ0gyXVtDSDJdW0NIMl1bQ0gyXVtDSDJdMQ==

>  <s_epik_cmdline>  (99) 
J2VwaWtfcHl0aG9uJywgJy1waHQnLCAnMi4wJywgJy1waCcsICc3LjAnLCAnLXRuJywgJzgnLCAnLW1hJywgJzIwMCcsICctaW1hZScsICc8aW5maWxlLm1hZT4nLCAnLW9tYWUnLCAnPG91dGZpbGUubWFlPic=

>  <r_epik_Ionization_Penalty>  (99) 
0.01171

>  <r_epik_Ionization_Penalty_Charging>  (99) 
0

>  <r_epik_Ionization_Penalty_Neutral>  (99) 
0.01171

>  <r_epik_State_Penalty>  (99) 
0.00902645

>  <r_epik_Charging_Adjusted_Penalty>  (99) 
0.00902645

>  <i_epik_Tot_Q>  (99) 
0

>  <i_epik_Tot_abs_Q>  (99) 
0

>  <s_epik_Chemistry_Notes>  (99) 
This compound contains an acetal/aminal-like group ( X-CH(R)-Y where X, Y are N, S, or O) that may be acid/base labile, releasing an aldehyde. This compound has a N-S or N-O group and may undergo hydrolysis at high or low pH.

>  <s_lp_Force_Field>  (99) 
OPLS3e

>  <r_lp_Energy>  (99) 
51.6295

>  <b_lp_Chiralities_Consistent>  (99) 
1

>  <s_lp_Variant>  (99) 
34:0-1

>  <s_i_glide_gridfile>  (99) 
pfpi4k_grid

>  <i_i_glide_lignum>  (99) 
41

>  <i_i_glide_rotatable_bonds>  (99) 
0

>  <r_i_docking_score>  (99) 
-2.82203

>  <r_i_glide_ligand_efficiency>  (99) 
-0.128274

>  <r_i_glide_ligand_efficiency_sa>  (99) 
-0.359429

>  <r_i_glide_ligand_efficiency_ln>  (99) 
-0.689807

>  <r_i_glide_gscore>  (99) 
-2.82203

>  <r_i_glide_lipo>  (99) 
-0.650183

>  <r_i_glide_hbond>  (99) 
0

>  <r_i_glide_metal>  (99) 
-0

>  <r_i_glide_rewards>  (99) 
-1.35666

>  <r_i_glide_evdw>  (99) 
-15.1376

>  <r_i_glide_ecoul>  (99) 
-0.386411

>  <r_i_glide_erotb>  (99) 
0

>  <r_i_glide_esite>  (99) 
-0.000345225

>  <r_i_glide_emodel>  (99) 
-19.1863

>  <r_i_glide_energy>  (99) 
-15.524

>  <r_i_glide_einternal>  (99) 
0

>  <r_i_glide_intrahb_reward>  (99) 
-0

>  <i_i_glide_confnum>  (99) 
2

>  <i_i_glide_posenum>  (99) 
33

>  <r_i_glide_eff_state_penalty>  (99) 
0

>  <ligand_id>  (99) 
34

>  <original_smiles>  (99) 
CC1CCC2C(C)C3OCCCN4CCCCCC2(O4)C1O3

>  <smiles>  (99) 
[H]C([H])([H])C1([H])C([H])([H])C([H])([H])C2([H])C([H])(C([H])([H])[H])C3([H])OC([H])([H])C([H])([H])C([H])([H])N4OC2(C([H])([H])C([H])([H])C([H])([H])C([H])([H])C4([H])[H])C1([H])O3

$$$$
34:1:0
     RDKit          3D

 54 57  0  0  1  0  0  0  0  0999 V2000
    4.5495   -2.9938   -3.5975 C   0  0  0  0  0  0  0  0  0  0  0  0
    3.9459   -3.2591   -2.2150 C   0  0  2  0  0  0  0  0  0  0  0  0
    3.4990   -1.9497   -1.5462 C   0  0  0  0  0  0  0  0  0  0  0  0
    3.1633   -2.1191   -0.0482 C   0  0  0  0  0  0  0  0  0  0  0  0
    4.2472   -2.9203    0.6899 C   0  0  2  0  0  0  0  0  0  0  0  0
    5.5320   -2.0627    0.5987 C   0  0  1  0  0  0  0  0  0  0  0  0
    6.2117   -1.8084    1.9475 C   0  0  0  0  0  0  0  0  0  0  0  0
    6.5036   -2.4980   -0.5553 C   0  0  1  0  0  0  0  0  0  0  0  0
    7.8205   -2.3735   -0.1224 O   0  0  0  0  0  0  0  0  0  0  0  0
    8.6662   -3.5247   -0.1455 C   0  0  0  0  0  0  0  0  0  0  0  0
    8.5334   -4.4464    1.0886 C   0  0  0  0  0  0  0  0  0  0  0  0
    7.4015   -5.4850    1.0664 C   0  0  0  0  0  0  0  0  0  0  0  0
    6.1010   -5.0050    1.5341 N   0  0  2  0  0  0  0  0  0  0  0  0
    5.7836   -5.4932    2.8805 C   0  0  0  0  0  0  0  0  0  0  0  0
    4.3410   -5.1935    3.3852 C   0  0  0  0  0  0  0  0  0  0  0  0
    3.1901   -5.9791    2.6939 C   0  0  0  0  0  0  0  0  0  0  0  0
    2.3619   -5.2136    1.6263 C   0  0  0  0  0  0  0  0  0  0  0  0
    2.9496   -5.1023    0.1939 C   0  0  0  0  0  0  0  0  0  0  0  0
    4.3114   -4.3652    0.0956 C   0  0  2  0  0  0  0  0  0  0  0  0
    5.0974   -5.4340    0.6347 O   0  0  0  0  0  0  0  0  0  0  0  0
    4.8549   -4.1633   -1.3215 C   0  0  2  0  0  0  0  0  0  0  0  0
    6.1994   -3.7308   -1.1306 O   0  0  0  0  0  0  0  0  0  0  0  0
    5.4362   -2.3727   -3.5055 H   0  0  0  0  0  0  0  0  0  0  0  0
    3.8385   -2.4659   -4.2381 H   0  0  0  0  0  0  0  0  0  0  0  0
    4.8256   -3.9210   -4.1023 H   0  0  0  0  0  0  0  0  0  0  0  0
    3.0300   -3.8095   -2.4076 H   0  0  0  0  0  0  0  0  0  0  0  0
    4.2417   -1.1709   -1.6884 H   0  0  0  0  0  0  0  0  0  0  0  0
    2.6154   -1.5753   -2.0714 H   0  0  0  0  0  0  0  0  0  0  0  0
    3.0274   -1.1346    0.4050 H   0  0  0  0  0  0  0  0  0  0  0  0
    2.1935   -2.5944    0.0720 H   0  0  0  0  0  0  0  0  0  0  0  0
    3.9288   -2.9500    1.7250 H   0  0  0  0  0  0  0  0  0  0  0  0
    5.2595   -1.0436    0.3294 H   0  0  0  0  0  0  0  0  0  0  0  0
    6.5973   -2.7085    2.4054 H   0  0  0  0  0  0  0  0  0  0  0  0
    5.4891   -1.3821    2.6463 H   0  0  0  0  0  0  0  0  0  0  0  0
    7.0185   -1.0773    1.8639 H   0  0  0  0  0  0  0  0  0  0  0  0
    6.4090   -1.7806   -1.3673 H   0  0  0  0  0  0  0  0  0  0  0  0
    8.6143   -4.0749   -1.0886 H   0  0  0  0  0  0  0  0  0  0  0  0
    9.6811   -3.1170   -0.1280 H   0  0  0  0  0  0  0  0  0  0  0  0
    9.4570   -5.0089    1.1616 H   0  0  0  0  0  0  0  0  0  0  0  0
    8.5235   -3.8683    2.0090 H   0  0  0  0  0  0  0  0  0  0  0  0
    7.3046   -5.8490    0.0438 H   0  0  0  0  0  0  0  0  0  0  0  0
    7.7247   -6.3712    1.6227 H   0  0  0  0  0  0  0  0  0  0  0  0
    5.9231   -6.5805    2.9363 H   0  0  0  0  0  0  0  0  0  0  0  0
    6.4869   -5.0561    3.5896 H   0  0  0  0  0  0  0  0  0  0  0  0
    4.3269   -5.5076    4.4314 H   0  0  0  0  0  0  0  0  0  0  0  0
    4.1273   -4.1274    3.4332 H   0  0  0  0  0  0  0  0  0  0  0  0
    3.5354   -6.9409    2.3088 H   0  0  0  0  0  0  0  0  0  0  0  0
    2.4814   -6.2401    3.4858 H   0  0  0  0  0  0  0  0  0  0  0  0
    1.4139   -5.7494    1.5338 H   0  0  0  0  0  0  0  0  0  0  0  0
    2.0882   -4.2311    2.0148 H   0  0  0  0  0  0  0  0  0  0  0  0
    3.0556   -6.1121   -0.2077 H   0  0  0  0  0  0  0  0  0  0  0  0
    2.1954   -4.6539   -0.4513 H   0  0  0  0  0  0  0  0  0  0  0  0
    4.9457   -5.1289   -1.8185 H   0  0  0  0  0  0  0  0  0  0  0  0
    6.1361   -3.9882    1.5575 H   0  0  0  0  0  0  0  0  0  0  0  0
  1  2  1  0
  1 23  1  0
  1 24  1  0
  1 25  1  0
  2 21  1  0
  2  3  1  0
  2 26  1  6
  3  4  1  0
  3 27  1  0
  3 28  1  0
  4  5  1  0
  4 29  1  0
  4 30  1  0
  5 19  1  0
  5  6  1  0
  5 31  1  1
  6  7  1  0
  6  8  1  0
  6 32  1  6
  7 33  1  0
  7 34  1  0
  7 35  1  0
  8 22  1  0
  8  9  1  0
  8 36  1  6
  9 10  1  0
 10 11  1  0
 10 37  1  0
 10 38  1  0
 11 12  1  0
 11 39  1  0
 11 40  1  0
 12 13  1  0
 12 41  1  0
 12 42  1  0
 13 20  1  0
 13 14  1  0
 13 54  1  1
 14 15  1  0
 14 43  1  0
 14 44  1  0
 15 16  1  0
 15 45  1  0
 15 46  1  0
 16 17  1  0
 16 47  1  0
 16 48  1  0
 17 18  1  0
 17 49  1  0
 17 50  1  0
 19 18  1  6
 18 51  1  0
 18 52  1  0
 19 20  1  0
 19 21  1  0
 21 22  1  0
 21 53  1  6
M  CHG  1  13   1
M  END
>  <i_m_ct_stereo_status>  (100) 
1

>  <s_m_source_file>  (100) 
/var/tmp/pbs.5076255.sched01/tmpvsf1hu0j/0g1dnczxv.sdf

>  <i_m_source_file_index>  (100) 
42

>  <i_lp_mmshare_version>  (100) 
48012

>  <i_f3d_flags>  (100) 
0

>  <s_epik_input>  (100) 
W0NAQF0xMjNbQ0BASF00W0NIMl1bQ0gyXVtDQEBIXShbQ0gzXSlbQ0BIXTNPW0NAQEhdKFtDQEBIXTRbQ0gzXSlPW0NIMl1bQ0gyXVtDSDJdTihPMilbQ0gyXVtDSDJdW0NIMl1bQ0gyXVtDSDJdMQ==

>  <s_epik_cmdline>  (100) 
J2VwaWtfcHl0aG9uJywgJy1waHQnLCAnMi4wJywgJy1waCcsICc3LjAnLCAnLXRuJywgJzgnLCAnLW1hJywgJzIwMCcsICctaW1hZScsICc8aW5maWxlLm1hZT4nLCAnLW9tYWUnLCAnPG91dGZpbGUubWFlPic=

>  <r_epik_Ionization_Penalty>  (100) 
2.33069

>  <r_epik_Ionization_Penalty_Charging>  (100) 
2.33069

>  <r_epik_Ionization_Penalty_Neutral>  (100) 
8.72231e-14

>  <r_epik_State_Penalty>  (100) 
2.48357

>  <r_epik_Charging_Adjusted_Penalty>  (100) 
4.81426

>  <i_epik_Tot_Q>  (100) 
1

>  <i_epik_Tot_abs_Q>  (100) 
1

>  <s_epik_Chemistry_Notes>  (100) 
This compound contains an acetal/aminal-like group ( X-CH(R)-Y where X, Y are N, S, or O) that may be acid/base labile, releasing an aldehyde. This compound has a N-S or N-O group and may undergo hydrolysis at high or low pH.

>  <s_lp_Force_Field>  (100) 
OPLS3e

>  <r_lp_Energy>  (100) 
70.9811

>  <b_lp_Chiralities_Consistent>  (100) 
1

>  <s_lp_Variant>  (100) 
34:0-2

>  <s_i_glide_gridfile>  (100) 
pfpi4k_grid

>  <i_i_glide_lignum>  (100) 
42

>  <i_i_glide_rotatable_bonds>  (100) 
0

>  <r_i_docking_score>  (100) 
-3.22649

>  <r_i_glide_ligand_efficiency>  (100) 
-0.146659

>  <r_i_glide_ligand_efficiency_sa>  (100) 
-0.410943

>  <r_i_glide_ligand_efficiency_ln>  (100) 
-0.788672

>  <r_i_glide_gscore>  (100) 
-3.22649

>  <r_i_glide_lipo>  (100) 
-0.538162

>  <r_i_glide_hbond>  (100) 
-0.0340597

>  <r_i_glide_metal>  (100) 
-0

>  <r_i_glide_rewards>  (100) 
-1.29238

>  <r_i_glide_evdw>  (100) 
-21.1755

>  <r_i_glide_ecoul>  (100) 
-1.88056

>  <r_i_glide_erotb>  (100) 
0

>  <r_i_glide_esite>  (100) 
-0.0210342

>  <r_i_glide_emodel>  (100) 
-26.917

>  <r_i_glide_energy>  (100) 
-23.056

>  <r_i_glide_einternal>  (100) 
0

>  <r_i_glide_intrahb_reward>  (100) 
-0

>  <i_i_glide_confnum>  (100) 
1

>  <i_i_glide_posenum>  (100) 
1

>  <r_i_glide_eff_state_penalty>  (100) 
0

>  <ligand_id>  (100) 
34

>  <original_smiles>  (100) 
CC1CCC2C(C)C3OCCCN4CCCCCC2(O4)C1O3

>  <smiles>  (100) 
[H]C([H])([H])C1([H])C([H])([H])C([H])([H])C2([H])C([H])(C([H])([H])[H])C3([H])OC([H])([H])C([H])([H])C([H])([H])[N+]4([H])OC2(C([H])([H])C([H])([H])C([H])([H])C([H])([H])C4([H])[H])C1([H])O3

$$$$
35:0:0
     RDKit          3D

 43 46  0  0  1  0  0  0  0  0999 V2000
    6.0334   -1.4083    0.4895 C   0  0  0  0  0  0  0  0  0  0  0  0
    4.9688   -2.3682   -0.0808 C   0  0  1  0  0  0  0  0  0  0  0  0
    3.7903   -1.5208   -0.6309 C   0  0  0  0  0  0  0  0  0  0  0  0
    3.8397   -1.2138   -2.1270 C   0  0  0  0  0  0  0  0  0  0  0  0
    3.8936   -2.5164   -2.9096 C   0  0  1  0  0  0  0  0  0  0  0  0
    3.8041   -2.2507   -4.3017 O   0  0  0  0  0  0  0  0  0  0  0  0
    5.1942   -3.2677   -2.6010 C   0  0  0  0  0  0  0  0  0  0  0  0
    5.5917   -3.3815   -1.1026 C   0  0  2  0  0  0  0  0  0  0  0  0
    5.3006   -4.7451   -0.4385 C   0  0  1  0  0  0  0  0  0  0  0  0
    6.2417   -4.8534    0.7825 C   0  0  0  0  0  0  0  0  0  0  0  0
    5.4692   -4.0592    1.8538 C   0  0  2  0  0  0  0  0  0  0  0  0
    4.8265   -5.0205    2.8826 C   0  0  1  0  0  0  0  0  0  0  0  0
    4.0094   -4.2914    3.7776 O   0  0  0  0  0  0  0  0  0  0  0  0
    4.0213   -6.1436    2.1863 C   0  0  1  0  0  0  0  0  0  0  0  0
    3.2309   -6.8518    3.1233 O   0  0  0  0  0  0  0  0  0  0  0  0
    3.2282   -5.6726    0.9439 C   0  0  1  0  0  0  0  0  0  0  0  0
    1.9517   -5.2062    1.3346 O   0  0  0  0  0  0  0  0  0  0  0  0
    3.9068   -4.5226    0.1508 C   0  0  1  0  0  0  0  0  0  0  0  0
    4.3898   -3.3423    0.9997 C   0  0  2  0  0  0  0  0  0  0  0  0
    5.6521   -0.8592    1.3508 H   0  0  0  0  0  0  0  0  0  0  0  0
    6.3397   -0.6759   -0.2529 H   0  0  0  0  0  0  0  0  0  0  0  0
    6.9344   -1.9278    0.8134 H   0  0  0  0  0  0  0  0  0  0  0  0
    2.8421   -2.0205   -0.4377 H   0  0  0  0  0  0  0  0  0  0  0  0
    3.7189   -0.5809   -0.0864 H   0  0  0  0  0  0  0  0  0  0  0  0
    2.9444   -0.6558   -2.4061 H   0  0  0  0  0  0  0  0  0  0  0  0
    4.6993   -0.5924   -2.3670 H   0  0  0  0  0  0  0  0  0  0  0  0
    3.0397   -3.1351   -2.6407 H   0  0  0  0  0  0  0  0  0  0  0  0
    2.9305   -1.9298   -4.4869 H   0  0  0  0  0  0  0  0  0  0  0  0
    5.1318   -4.2555   -3.0597 H   0  0  0  0  0  0  0  0  0  0  0  0
    5.9944   -2.7437   -3.1172 H   0  0  0  0  0  0  0  0  0  0  0  0
    6.6738   -3.2529   -1.1213 H   0  0  0  0  0  0  0  0  0  0  0  0
    5.3694   -5.5949   -1.1183 H   0  0  0  0  0  0  0  0  0  0  0  0
    6.4460   -5.8846    1.0660 H   0  0  0  0  0  0  0  0  0  0  0  0
    7.2229   -4.4148    0.5996 H   0  0  0  0  0  0  0  0  0  0  0  0
    6.1129   -3.3589    2.3833 H   0  0  0  0  0  0  0  0  0  0  0  0
    5.6109   -5.4859    3.4810 H   0  0  0  0  0  0  0  0  0  0  0  0
    3.6876   -4.9113    4.4173 H   0  0  0  0  0  0  0  0  0  0  0  0
    4.7328   -6.8865    1.8283 H   0  0  0  0  0  0  0  0  0  0  0  0
    2.8934   -7.6267    2.6979 H   0  0  0  0  0  0  0  0  0  0  0  0
    3.0758   -6.5220    0.2769 H   0  0  0  0  0  0  0  0  0  0  0  0
    2.0940   -4.4868    1.9342 H   0  0  0  0  0  0  0  0  0  0  0  0
    3.2122   -4.2261   -0.6356 H   0  0  0  0  0  0  0  0  0  0  0  0
    3.6145   -2.8796    1.6108 H   0  0  0  0  0  0  0  0  0  0  0  0
  2  1  1  1
  1 20  1  0
  1 21  1  0
  1 22  1  0
  2  8  1  0
  2 19  1  0
  2  3  1  0
  3  4  1  0
  3 23  1  0
  3 24  1  0
  4  5  1  0
  4 25  1  0
  4 26  1  0
  5  6  1  0
  5  7  1  0
  5 27  1  1
  6 28  1  0
  7  8  1  0
  7 29  1  0
  7 30  1  0
  8  9  1  0
  8 31  1  6
  9 18  1  0
  9 10  1  0
  9 32  1  6
 10 11  1  0
 10 33  1  0
 10 34  1  0
 11 19  1  0
 11 12  1  0
 11 35  1  1
 12 13  1  0
 12 14  1  0
 12 36  1  1
 13 37  1  0
 14 15  1  0
 14 16  1  0
 14 38  1  6
 15 39  1  0
 16 17  1  0
 16 18  1  0
 16 40  1  6
 17 41  1  0
 18 19  1  0
 18 42  1  6
 19 43  1  1
M  END
>  <i_m_ct_stereo_status>  (101) 
1

>  <s_m_source_file>  (101) 
/var/tmp/pbs.5076255.sched01/tmpvsf1hu0j/0g1dnczxv.sdf

>  <i_m_source_file_index>  (101) 
43

>  <i_lp_mmshare_version>  (101) 
48012

>  <i_f3d_flags>  (101) 
0

>  <s_epik_input>  (101) 
W0NIMl0xW0NIMl1bQ0BASF0oW09IXSlbQ0gyXVtDQEBIXShbQ0BAXTEyW0NIM10pW0NAQEhdM1tDQEBIXTRbQ0BIXTJbQ0BIXShbQ0gyXTMpW0NAQEhdKFtPSF0pW0NAQEhdKFtPSF0pW0NASF00W09IXQ==

>  <s_epik_cmdline>  (101) 
J2VwaWtfcHl0aG9uJywgJy1waHQnLCAnMi4wJywgJy1waCcsICc3LjAnLCAnLXRuJywgJzgnLCAnLW1hJywgJzIwMCcsICctaW1hZScsICc8aW5maWxlLm1hZT4nLCAnLW9tYWUnLCAnPG91dGZpbGUubWFlPic=

>  <r_lp_tautomer_probability>  (101) 
1

>  <r_epik_Ionization_Penalty>  (101) 
3.70479e-06

>  <r_epik_Ionization_Penalty_Charging>  (101) 
0

>  <r_epik_Ionization_Penalty_Neutral>  (101) 
3.70479e-06

>  <r_epik_State_Penalty>  (101) 
-0

>  <r_epik_Charging_Adjusted_Penalty>  (101) 
0

>  <i_epik_Tot_Q>  (101) 
0

>  <i_epik_Tot_abs_Q>  (101) 
0

>  <s_lp_Force_Field>  (101) 
OPLS3e

>  <r_lp_Energy>  (101) 
61.8416

>  <b_lp_Chiralities_Consistent>  (101) 
1

>  <s_lp_Variant>  (101) 
35:0-1

>  <s_i_glide_gridfile>  (101) 
pfpi4k_grid

>  <i_i_glide_lignum>  (101) 
43

>  <i_i_glide_rotatable_bonds>  (101) 
4

>  <r_i_docking_score>  (101) 
-4.70971

>  <r_i_glide_ligand_efficiency>  (101) 
-0.247879

>  <r_i_glide_ligand_efficiency_sa>  (101) 
-0.661441

>  <r_i_glide_ligand_efficiency_ln>  (101) 
-1.19401

>  <r_i_glide_gscore>  (101) 
-4.70971

>  <r_i_glide_lipo>  (101) 
-0.706929

>  <r_i_glide_hbond>  (101) 
-0.32

>  <r_i_glide_metal>  (101) 
-0

>  <r_i_glide_rewards>  (101) 
-1.57944

>  <r_i_glide_evdw>  (101) 
-22.4874

>  <r_i_glide_ecoul>  (101) 
-6.52643

>  <r_i_glide_erotb>  (101) 
0

>  <r_i_glide_esite>  (101) 
0

>  <r_i_glide_emodel>  (101) 
-38.8984

>  <r_i_glide_energy>  (101) 
-29.0139

>  <r_i_glide_einternal>  (101) 
1.09065

>  <r_i_glide_intrahb_reward>  (101) 
-0

>  <i_i_glide_confnum>  (101) 
1

>  <i_i_glide_posenum>  (101) 
21

>  <r_i_glide_eff_state_penalty>  (101) 
0

>  <ligand_id>  (101) 
35

>  <original_smiles>  (101) 
CC12CCC(O)CC1C1CC3C(O)C(O)C(O)C1C32

>  <smiles>  (101) 
[H]OC1([H])C([H])([H])C([H])([H])C2(C([H])([H])[H])C([H])(C1([H])[H])C1([H])C([H])([H])C3([H])C([H])(O[H])C([H])(O[H])C([H])(O[H])C1([H])C32[H]

$$$$
35:0:1
     RDKit          3D

 43 46  0  0  1  0  0  0  0  0999 V2000
    5.8507   -4.8006    2.2739 C   0  0  0  0  0  0  0  0  0  0  0  0
    4.6984   -4.8587    1.2529 C   0  0  1  0  0  0  0  0  0  0  0  0
    4.6420   -6.2910    0.6370 C   0  0  0  0  0  0  0  0  0  0  0  0
    3.6815   -7.2541    1.3401 C   0  0  0  0  0  0  0  0  0  0  0  0
    2.2815   -6.6548    1.2876 C   0  0  1  0  0  0  0  0  0  0  0  0
    1.3117   -7.5612    1.7692 O   0  0  0  0  0  0  0  0  0  0  0  0
    2.2352   -5.3863    2.1389 C   0  0  0  0  0  0  0  0  0  0  0  0
    3.3588   -4.3447    1.8740 C   0  0  2  0  0  0  0  0  0  0  0  0
    2.9917   -3.1296    0.9851 C   0  0  1  0  0  0  0  0  0  0  0  0
    4.0024   -2.0152    1.3445 C   0  0  0  0  0  0  0  0  0  0  0  0
    5.2356   -2.4072    0.5110 C   0  0  2  0  0  0  0  0  0  0  0  0
    5.3872   -1.4663   -0.7104 C   0  0  1  0  0  0  0  0  0  0  0  0
    6.4743   -1.9209   -1.4925 O   0  0  0  0  0  0  0  0  0  0  0  0
    4.0681   -1.3802   -1.5181 C   0  0  1  0  0  0  0  0  0  0  0  0
    4.2381   -0.7125   -2.7532 O   0  0  0  0  0  0  0  0  0  0  0  0
    3.3005   -2.7152   -1.6311 C   0  0  1  0  0  0  0  0  0  0  0  0
    3.7835   -3.4507   -2.7434 O   0  0  0  0  0  0  0  0  0  0  0  0
    3.4374   -3.6325   -0.3919 C   0  0  1  0  0  0  0  0  0  0  0  0
    4.8791   -3.8554    0.0718 C   0  0  2  0  0  0  0  0  0  0  0  0
    6.8159   -4.9371    1.7942 H   0  0  0  0  0  0  0  0  0  0  0  0
    5.7460   -5.5659    3.0356 H   0  0  0  0  0  0  0  0  0  0  0  0
    5.8784   -3.8483    2.7925 H   0  0  0  0  0  0  0  0  0  0  0  0
    4.3952   -6.2621   -0.4296 H   0  0  0  0  0  0  0  0  0  0  0  0
    5.6326   -6.7374    0.6839 H   0  0  0  0  0  0  0  0  0  0  0  0
    3.7125   -8.2275    0.8429 H   0  0  0  0  0  0  0  0  0  0  0  0
    3.9872   -7.4241    2.3771 H   0  0  0  0  0  0  0  0  0  0  0  0
    2.0326   -6.4096    0.2519 H   0  0  0  0  0  0  0  0  0  0  0  0
    1.3511   -8.3695    1.2736 H   0  0  0  0  0  0  0  0  0  0  0  0
    1.2630   -4.9308    1.9849 H   0  0  0  0  0  0  0  0  0  0  0  0
    2.2651   -5.6860    3.1924 H   0  0  0  0  0  0  0  0  0  0  0  0
    3.5597   -3.9617    2.8710 H   0  0  0  0  0  0  0  0  0  0  0  0
    1.9523   -2.8110    1.0718 H   0  0  0  0  0  0  0  0  0  0  0  0
    3.6228   -1.0216    1.1189 H   0  0  0  0  0  0  0  0  0  0  0  0
    4.2407   -1.9892    2.4079 H   0  0  0  0  0  0  0  0  0  0  0  0
    6.1500   -2.3634    1.1026 H   0  0  0  0  0  0  0  0  0  0  0  0
    5.6386   -0.4603   -0.3581 H   0  0  0  0  0  0  0  0  0  0  0  0
    6.2153   -2.7453   -1.8907 H   0  0  0  0  0  0  0  0  0  0  0  0
    3.4142   -0.7128   -0.9645 H   0  0  0  0  0  0  0  0  0  0  0  0
    3.3763   -0.4967   -3.0806 H   0  0  0  0  0  0  0  0  0  0  0  0
    2.2470   -2.5079   -1.8057 H   0  0  0  0  0  0  0  0  0  0  0  0
    3.3759   -4.3012   -2.7441 H   0  0  0  0  0  0  0  0  0  0  0  0
    2.9258   -4.5629   -0.6316 H   0  0  0  0  0  0  0  0  0  0  0  0
    5.5429   -4.2330   -0.7054 H   0  0  0  0  0  0  0  0  0  0  0  0
  2  1  1  1
  1 20  1  0
  1 21  1  0
  1 22  1  0
  2  8  1  0
  2 19  1  0
  2  3  1  0
  3  4  1  0
  3 23  1  0
  3 24  1  0
  4  5  1  0
  4 25  1  0
  4 26  1  0
  5  6  1  0
  5  7  1  0
  5 27  1  6
  6 28  1  0
  7  8  1  0
  7 29  1  0
  7 30  1  0
  8  9  1  0
  8 31  1  1
  9 18  1  0
  9 10  1  0
  9 32  1  6
 10 11  1  0
 10 33  1  0
 10 34  1  0
 11 19  1  0
 11 12  1  0
 11 35  1  1
 12 13  1  0
 12 14  1  0
 12 36  1  1
 13 37  1  0
 14 15  1  0
 14 16  1  0
 14 38  1  1
 15 39  1  0
 16 17  1  0
 16 18  1  0
 16 40  1  6
 17 41  1  0
 18 19  1  0
 18 42  1  6
 19 43  1  6
M  END
>  <i_m_ct_stereo_status>  (102) 
1

>  <s_m_source_file>  (102) 
/var/tmp/pbs.5076255.sched01/tmpvsf1hu0j/0g1dnczxv.sdf

>  <i_m_source_file_index>  (102) 
43

>  <i_lp_mmshare_version>  (102) 
48012

>  <i_f3d_flags>  (102) 
0

>  <s_epik_input>  (102) 
W0NIMl0xW0NIMl1bQ0BASF0oW09IXSlbQ0gyXVtDQEBIXShbQ0BAXTEyW0NIM10pW0NAQEhdM1tDQEBIXTRbQ0BIXTJbQ0BIXShbQ0gyXTMpW0NAQEhdKFtPSF0pW0NAQEhdKFtPSF0pW0NASF00W09IXQ==

>  <s_epik_cmdline>  (102) 
J2VwaWtfcHl0aG9uJywgJy1waHQnLCAnMi4wJywgJy1waCcsICc3LjAnLCAnLXRuJywgJzgnLCAnLW1hJywgJzIwMCcsICctaW1hZScsICc8aW5maWxlLm1hZT4nLCAnLW9tYWUnLCAnPG91dGZpbGUubWFlPic=

>  <r_lp_tautomer_probability>  (102) 
1

>  <r_epik_Ionization_Penalty>  (102) 
3.70479e-06

>  <r_epik_Ionization_Penalty_Charging>  (102) 
0

>  <r_epik_Ionization_Penalty_Neutral>  (102) 
3.70479e-06

>  <r_epik_State_Penalty>  (102) 
-0

>  <r_epik_Charging_Adjusted_Penalty>  (102) 
0

>  <i_epik_Tot_Q>  (102) 
0

>  <i_epik_Tot_abs_Q>  (102) 
0

>  <s_lp_Force_Field>  (102) 
OPLS3e

>  <r_lp_Energy>  (102) 
61.8416

>  <b_lp_Chiralities_Consistent>  (102) 
1

>  <s_lp_Variant>  (102) 
35:0-1

>  <s_i_glide_gridfile>  (102) 
pfpi4k_grid

>  <i_i_glide_lignum>  (102) 
43

>  <i_i_glide_rotatable_bonds>  (102) 
4

>  <r_i_docking_score>  (102) 
-4.65317

>  <r_i_glide_ligand_efficiency>  (102) 
-0.244904

>  <r_i_glide_ligand_efficiency_sa>  (102) 
-0.653502

>  <r_i_glide_ligand_efficiency_ln>  (102) 
-1.17968

>  <r_i_glide_gscore>  (102) 
-4.65317

>  <r_i_glide_lipo>  (102) 
-0.353575

>  <r_i_glide_hbond>  (102) 
0

>  <r_i_glide_metal>  (102) 
-0

>  <r_i_glide_rewards>  (102) 
-1.57944

>  <r_i_glide_evdw>  (102) 
-22.3843

>  <r_i_glide_ecoul>  (102) 
-10.6729

>  <r_i_glide_erotb>  (102) 
0

>  <r_i_glide_esite>  (102) 
0

>  <r_i_glide_emodel>  (102) 
-42.8217

>  <r_i_glide_energy>  (102) 
-33.0573

>  <r_i_glide_einternal>  (102) 
1.22437

>  <r_i_glide_intrahb_reward>  (102) 
-0

>  <i_i_glide_confnum>  (102) 
1

>  <i_i_glide_posenum>  (102) 
9

>  <r_i_glide_eff_state_penalty>  (102) 
0

>  <ligand_id>  (102) 
35

>  <original_smiles>  (102) 
CC12CCC(O)CC1C1CC3C(O)C(O)C(O)C1C32

>  <smiles>  (102) 
[H]OC1([H])C([H])([H])C([H])([H])C2(C([H])([H])[H])C([H])(C1([H])[H])C1([H])C([H])([H])C3([H])C([H])(O[H])C([H])(O[H])C([H])(O[H])C1([H])C32[H]

$$$$
35:0:2
     RDKit          3D

 43 46  0  0  1  0  0  0  0  0999 V2000
    5.8058   -4.9445    1.3249 C   0  0  0  0  0  0  0  0  0  0  0  0
    4.4041   -4.7770    0.6820 C   0  0  1  0  0  0  0  0  0  0  0  0
    3.8114   -6.2062    0.5326 C   0  0  0  0  0  0  0  0  0  0  0  0
    2.9097   -6.6820    1.6636 C   0  0  0  0  0  0  0  0  0  0  0  0
    1.7893   -5.6842    1.7974 C   0  0  1  0  0  0  0  0  0  0  0  0
    0.7791   -6.1417    2.6623 O   0  0  0  0  0  0  0  0  0  0  0  0
    2.3224   -4.3339    2.2702 C   0  0  0  0  0  0  0  0  0  0  0  0
    3.5336   -3.7619    1.4938 C   0  0  2  0  0  0  0  0  0  0  0  0
    3.2151   -2.6651    0.4312 C   0  0  1  0  0  0  0  0  0  0  0  0
    4.5445   -1.8947    0.2365 C   0  0  0  0  0  0  0  0  0  0  0  0
    5.2914   -2.8005   -0.7631 C   0  0  2  0  0  0  0  0  0  0  0  0
    5.2739   -2.1677   -2.1746 C   0  0  1  0  0  0  0  0  0  0  0  0
    5.8106   -3.1088   -3.0836 O   0  0  0  0  0  0  0  0  0  0  0  0
    3.8675   -1.7005   -2.6009 C   0  0  1  0  0  0  0  0  0  0  0  0
    3.8503   -1.3498   -3.9736 O   0  0  0  0  0  0  0  0  0  0  0  0
    2.7898   -2.7226   -2.2252 C   0  0  1  0  0  0  0  0  0  0  0  0
    2.6680   -3.5656   -3.3488 O   0  0  0  0  0  0  0  0  0  0  0  0
    3.0437   -3.4829   -0.8700 C   0  0  1  0  0  0  0  0  0  0  0  0
    4.4447   -4.0986   -0.7217 C   0  0  2  0  0  0  0  0  0  0  0  0
    6.4797   -5.4752    0.6571 H   0  0  0  0  0  0  0  0  0  0  0  0
    5.7586   -5.5052    2.2543 H   0  0  0  0  0  0  0  0  0  0  0  0
    6.2713   -3.9906    1.5601 H   0  0  0  0  0  0  0  0  0  0  0  0
    3.1862   -6.2443   -0.3541 H   0  0  0  0  0  0  0  0  0  0  0  0
    4.5940   -6.9431    0.3891 H   0  0  0  0  0  0  0  0  0  0  0  0
    2.5073   -7.6648    1.4162 H   0  0  0  0  0  0  0  0  0  0  0  0
    3.4709   -6.7846    2.5999 H   0  0  0  0  0  0  0  0  0  0  0  0
    1.3431   -5.5627    0.8027 H   0  0  0  0  0  0  0  0  0  0  0  0
    1.2075   -6.4034    3.4672 H   0  0  0  0  0  0  0  0  0  0  0  0
    1.4958   -3.6265    2.2426 H   0  0  0  0  0  0  0  0  0  0  0  0
    2.6113   -4.4274    3.3201 H   0  0  0  0  0  0  0  0  0  0  0  0
    4.1413   -3.2929    2.2630 H   0  0  0  0  0  0  0  0  0  0  0  0
    2.3736   -2.0178    0.6996 H   0  0  0  0  0  0  0  0  0  0  0  0
    4.4024   -0.8824   -0.1260 H   0  0  0  0  0  0  0  0  0  0  0  0
    5.1084   -1.7809    1.1609 H   0  0  0  0  0  0  0  0  0  0  0  0
    6.3237   -2.9679   -0.4610 H   0  0  0  0  0  0  0  0  0  0  0  0
    5.8920   -1.2742   -2.1678 H   0  0  0  0  0  0  0  0  0  0  0  0
    5.2384   -3.8641   -3.1057 H   0  0  0  0  0  0  0  0  0  0  0  0
    3.6125   -0.7748   -2.0805 H   0  0  0  0  0  0  0  0  0  0  0  0
    2.9340   -1.2192   -4.2060 H   0  0  0  0  0  0  0  0  0  0  0  0
    1.8152   -2.2428   -2.1641 H   0  0  0  0  0  0  0  0  0  0  0  0
    2.6063   -4.4710   -3.0631 H   0  0  0  0  0  0  0  0  0  0  0  0
    2.2487   -4.2203   -0.7463 H   0  0  0  0  0  0  0  0  0  0  0  0
    4.7096   -4.8033   -1.5041 H   0  0  0  0  0  0  0  0  0  0  0  0
  2  1  1  1
  1 20  1  0
  1 21  1  0
  1 22  1  0
  2  8  1  0
  2 19  1  0
  2  3  1  0
  3  4  1  0
  3 23  1  0
  3 24  1  0
  4  5  1  0
  4 25  1  0
  4 26  1  0
  5  6  1  0
  5  7  1  0
  5 27  1  6
  6 28  1  0
  7  8  1  0
  7 29  1  0
  7 30  1  0
  8  9  1  0
  8 31  1  1
  9 18  1  0
  9 10  1  0
  9 32  1  1
 10 11  1  0
 10 33  1  0
 10 34  1  0
 11 19  1  0
 11 12  1  0
 11 35  1  1
 12 13  1  0
 12 14  1  0
 12 36  1  1
 13 37  1  0
 14 15  1  0
 14 16  1  0
 14 38  1  1
 15 39  1  0
 16 17  1  0
 16 18  1  0
 16 40  1  1
 17 41  1  0
 18 19  1  0
 18 42  1  1
 19 43  1  6
M  END
>  <i_m_ct_stereo_status>  (103) 
1

>  <s_m_source_file>  (103) 
/var/tmp/pbs.5076255.sched01/tmpvsf1hu0j/0g1dnczxv.sdf

>  <i_m_source_file_index>  (103) 
43

>  <i_lp_mmshare_version>  (103) 
48012

>  <i_f3d_flags>  (103) 
0

>  <s_epik_input>  (103) 
W0NIMl0xW0NIMl1bQ0BASF0oW09IXSlbQ0gyXVtDQEBIXShbQ0BAXTEyW0NIM10pW0NAQEhdM1tDQEBIXTRbQ0BIXTJbQ0BIXShbQ0gyXTMpW0NAQEhdKFtPSF0pW0NAQEhdKFtPSF0pW0NASF00W09IXQ==

>  <s_epik_cmdline>  (103) 
J2VwaWtfcHl0aG9uJywgJy1waHQnLCAnMi4wJywgJy1waCcsICc3LjAnLCAnLXRuJywgJzgnLCAnLW1hJywgJzIwMCcsICctaW1hZScsICc8aW5maWxlLm1hZT4nLCAnLW9tYWUnLCAnPG91dGZpbGUubWFlPic=

>  <r_lp_tautomer_probability>  (103) 
1

>  <r_epik_Ionization_Penalty>  (103) 
3.70479e-06

>  <r_epik_Ionization_Penalty_Charging>  (103) 
0

>  <r_epik_Ionization_Penalty_Neutral>  (103) 
3.70479e-06

>  <r_epik_State_Penalty>  (103) 
-0

>  <r_epik_Charging_Adjusted_Penalty>  (103) 
0

>  <i_epik_Tot_Q>  (103) 
0

>  <i_epik_Tot_abs_Q>  (103) 
0

>  <s_lp_Force_Field>  (103) 
OPLS3e

>  <r_lp_Energy>  (103) 
61.8416

>  <b_lp_Chiralities_Consistent>  (103) 
1

>  <s_lp_Variant>  (103) 
35:0-1

>  <s_i_glide_gridfile>  (103) 
pfpi4k_grid

>  <i_i_glide_lignum>  (103) 
43

>  <i_i_glide_rotatable_bonds>  (103) 
4

>  <r_i_docking_score>  (103) 
-4.35538

>  <r_i_glide_ligand_efficiency>  (103) 
-0.229231

>  <r_i_glide_ligand_efficiency_sa>  (103) 
-0.611679

>  <r_i_glide_ligand_efficiency_ln>  (103) 
-1.10418

>  <r_i_glide_gscore>  (103) 
-4.35538

>  <r_i_glide_lipo>  (103) 
-0.260317

>  <r_i_glide_hbond>  (103) 
0

>  <r_i_glide_metal>  (103) 
-0

>  <r_i_glide_rewards>  (103) 
-1.57944

>  <r_i_glide_evdw>  (103) 
-22.1298

>  <r_i_glide_ecoul>  (103) 
-9.39423

>  <r_i_glide_erotb>  (103) 
0

>  <r_i_glide_esite>  (103) 
0

>  <r_i_glide_emodel>  (103) 
-39.3188

>  <r_i_glide_energy>  (103) 
-31.524

>  <r_i_glide_einternal>  (103) 
1.90597

>  <r_i_glide_intrahb_reward>  (103) 
-0

>  <i_i_glide_confnum>  (103) 
1

>  <i_i_glide_posenum>  (103) 
22

>  <r_i_glide_eff_state_penalty>  (103) 
0

>  <ligand_id>  (103) 
35

>  <original_smiles>  (103) 
CC12CCC(O)CC1C1CC3C(O)C(O)C(O)C1C32

>  <smiles>  (103) 
[H]OC1([H])C([H])([H])C([H])([H])C2(C([H])([H])[H])C([H])(C1([H])[H])C1([H])C([H])([H])C3([H])C([H])(O[H])C([H])(O[H])C([H])(O[H])C1([H])C32[H]

$$$$
36:0:0
     RDKit          3D

 23 25  0  0  1  0  0  0  0  0999 V2000
   -8.6555   -3.7951   -5.6735 F   0  0  0  0  0  0  0  0  0  0  0  0
   -7.7759   -4.8264   -5.6304 C   0  0  0  0  0  0  0  0  0  0  0  0
   -6.6988   -4.8013   -4.7165 C   0  0  0  0  0  0  0  0  0  0  0  0
   -5.7904   -5.8803   -4.6592 C   0  0  0  0  0  0  0  0  0  0  0  0
   -5.9615   -6.9856   -5.5127 C   0  0  0  0  0  0  0  0  0  0  0  0
   -7.0357   -7.0039   -6.4242 C   0  0  0  0  0  0  0  0  0  0  0  0
   -7.9459   -5.9303   -6.4898 C   0  0  0  0  0  0  0  0  0  0  0  0
   -7.1470   -8.2476   -7.2825 C   0  0  2  0  0  0  0  0  0  0  0  0
   -6.9818   -9.5738   -6.5428 C   0  0  0  0  0  0  0  0  0  0  0  0
   -5.4932   -9.2179   -6.5556 C   0  0  2  0  0  0  0  0  0  0  0  0
   -5.0007   -8.1749   -5.5306 C   0  0  0  0  0  0  0  0  0  0  0  0
   -5.8214   -8.5506   -7.8257 N   0  0  0  0  0  0  0  0  0  0  0  0
   -6.5723   -3.9551   -4.0590 H   0  0  0  0  0  0  0  0  0  0  0  0
   -4.9831   -5.8692   -3.9472 H   0  0  0  0  0  0  0  0  0  0  0  0
   -8.7783   -5.9547   -7.1800 H   0  0  0  0  0  0  0  0  0  0  0  0
   -7.9400   -8.2219   -8.0335 H   0  0  0  0  0  0  0  0  0  0  0  0
   -7.4386   -9.5855   -5.5468 H   0  0  0  0  0  0  0  0  0  0  0  0
   -7.2331  -10.4557   -7.1367 H   0  0  0  0  0  0  0  0  0  0  0  0
   -4.8452  -10.0865   -6.6840 H   0  0  0  0  0  0  0  0  0  0  0  0
   -3.9928   -7.8263   -5.7590 H   0  0  0  0  0  0  0  0  0  0  0  0
   -4.9619   -8.6159   -4.5342 H   0  0  0  0  0  0  0  0  0  0  0  0
   -5.8741   -9.1983   -8.5977 H   0  0  0  0  0  0  0  0  0  0  0  0
   -5.2746   -7.7146   -7.9971 H   0  0  0  0  0  0  0  0  0  0  0  0
  1  2  1  0
  2  7  2  0
  2  3  1  0
  3  4  2  0
  3 13  1  0
  4  5  1  0
  4 14  1  0
  5 11  1  0
  5  6  2  0
  6  7  1  0
  6  8  1  0
  7 15  1  0
  8 12  1  0
  8  9  1  0
  8 16  1  6
  9 10  1  0
  9 17  1  0
  9 18  1  0
 10 11  1  0
 10 12  1  0
 10 19  1  6
 11 20  1  0
 11 21  1  0
 12 22  1  0
 12 23  1  0
M  CHG  1  12   1
M  END
>  <i_m_ct_stereo_status>  (104) 
1

>  <s_m_source_file>  (104) 
/var/tmp/pbs.5076255.sched01/tmpvsf1hu0j/0g1dnczxv.sdf

>  <i_m_source_file_index>  (104) 
44

>  <i_lp_mmshare_version>  (104) 
48012

>  <i_f3d_flags>  (104) 
0

>  <s_epik_input>  (104) 
W2NIXTFbY0hdYyhGKVtjSF1jKGMxMilbQ0BASF0zW0NIMl1bQ0BIXShbQ0gyXTIpW05IXTM=

>  <s_epik_cmdline>  (104) 
J2VwaWtfcHl0aG9uJywgJy1waHQnLCAnMi4wJywgJy1waCcsICc3LjAnLCAnLXRuJywgJzgnLCAnLW1hJywgJzIwMCcsICctaW1hZScsICc8aW5maWxlLm1hZT4nLCAnLW9tYWUnLCAnPG91dGZpbGUubWFlPic=

>  <r_epik_Ionization_Penalty>  (104) 
0.00539516

>  <r_epik_Ionization_Penalty_Charging>  (104) 
0.00539516

>  <r_epik_Ionization_Penalty_Neutral>  (104) 
0

>  <r_epik_State_Penalty>  (104) 
0.00394259

>  <r_epik_Charging_Adjusted_Penalty>  (104) 
0.00933775

>  <i_epik_Tot_Q>  (104) 
1

>  <i_epik_Tot_abs_Q>  (104) 
1

>  <s_lp_Force_Field>  (104) 
OPLS3e

>  <r_lp_Energy>  (104) 
35.235

>  <b_lp_Chiralities_Consistent>  (104) 
1

>  <s_lp_Variant>  (104) 
36:0-1

>  <s_i_glide_gridfile>  (104) 
pfpi4k_grid

>  <i_i_glide_lignum>  (104) 
44

>  <i_i_glide_rotatable_bonds>  (104) 
0

>  <r_i_docking_score>  (104) 
-6.96335

>  <r_i_glide_ligand_efficiency>  (104) 
-0.580279

>  <r_i_glide_ligand_efficiency_sa>  (104) 
-1.32851

>  <r_i_glide_ligand_efficiency_ln>  (104) 
-1.99815

>  <r_i_glide_gscore>  (104) 
-6.96335

>  <r_i_glide_lipo>  (104) 
-2.6232

>  <r_i_glide_hbond>  (104) 
0

>  <r_i_glide_metal>  (104) 
-0

>  <r_i_glide_rewards>  (104) 
-3.20833

>  <r_i_glide_evdw>  (104) 
-21.0043

>  <r_i_glide_ecoul>  (104) 
-0.544

>  <r_i_glide_erotb>  (104) 
0

>  <r_i_glide_esite>  (104) 
0

>  <r_i_glide_emodel>  (104) 
-37.016

>  <r_i_glide_energy>  (104) 
-21.5483

>  <r_i_glide_einternal>  (104) 
0

>  <r_i_glide_intrahb_reward>  (104) 
-0

>  <i_i_glide_confnum>  (104) 
1

>  <i_i_glide_posenum>  (104) 
4

>  <r_i_glide_eff_state_penalty>  (104) 
0

>  <ligand_id>  (104) 
36

>  <original_smiles>  (104) 
Fc1ccc2c(c1)C1CC(C2)N1

>  <smiles>  (104) 
[H]c1c([H])c2c(c([H])c1F)C1([H])C([H])([H])C([H])(C2([H])[H])[N+]1([H])[H]

$$$$
36:0:1
     RDKit          3D

 23 25  0  0  1  0  0  0  0  0999 V2000
   -7.1851   -4.3025   -4.5121 F   0  0  0  0  0  0  0  0  0  0  0  0
   -6.9290   -5.4544   -5.1771 C   0  0  0  0  0  0  0  0  0  0  0  0
   -5.8361   -6.2627   -4.7923 C   0  0  0  0  0  0  0  0  0  0  0  0
   -5.5538   -7.4630   -5.4827 C   0  0  0  0  0  0  0  0  0  0  0  0
   -6.3854   -7.8556   -6.5503 C   0  0  0  0  0  0  0  0  0  0  0  0
   -7.4759   -7.0469   -6.9280 C   0  0  0  0  0  0  0  0  0  0  0  0
   -7.7580   -5.8476   -6.2460 C   0  0  0  0  0  0  0  0  0  0  0  0
   -8.3195   -7.5694   -8.0737 C   0  0  2  0  0  0  0  0  0  0  0  0
   -8.6942   -9.0476   -7.9925 C   0  0  0  0  0  0  0  0  0  0  0  0
   -7.2458   -9.2765   -8.4318 C   0  0  2  0  0  0  0  0  0  0  0  0
   -6.1408   -9.1235   -7.3642 C   0  0  0  0  0  0  0  0  0  0  0  0
   -7.4227   -8.0062   -9.1493 N   0  0  0  0  0  0  0  0  0  0  0  0
   -5.2142   -5.9551   -3.9681 H   0  0  0  0  0  0  0  0  0  0  0  0
   -4.7175   -8.0819   -5.1846 H   0  0  0  0  0  0  0  0  0  0  0  0
   -8.6027   -5.2345   -6.5310 H   0  0  0  0  0  0  0  0  0  0  0  0
   -9.1208   -6.9023   -8.4032 H   0  0  0  0  0  0  0  0  0  0  0  0
   -8.9242   -9.3914   -6.9774 H   0  0  0  0  0  0  0  0  0  0  0  0
   -9.4353   -9.3675   -8.7277 H   0  0  0  0  0  0  0  0  0  0  0  0
   -7.1318  -10.1300   -9.1031 H   0  0  0  0  0  0  0  0  0  0  0  0
   -5.1473   -9.0798   -7.8150 H   0  0  0  0  0  0  0  0  0  0  0  0
   -6.1506   -9.9780   -6.6895 H   0  0  0  0  0  0  0  0  0  0  0  0
   -7.9130   -8.1345  -10.0219 H   0  0  0  0  0  0  0  0  0  0  0  0
   -6.5729   -7.4562   -9.2046 H   0  0  0  0  0  0  0  0  0  0  0  0
  1  2  1  0
  2  7  2  0
  2  3  1  0
  3  4  2  0
  3 13  1  0
  4  5  1  0
  4 14  1  0
  5 11  1  0
  5  6  2  0
  6  7  1  0
  6  8  1  0
  7 15  1  0
  8 12  1  0
  8  9  1  0
  8 16  1  6
  9 10  1  0
  9 17  1  0
  9 18  1  0
 10 11  1  0
 10 12  1  0
 10 19  1  6
 11 20  1  0
 11 21  1  0
 12 22  1  0
 12 23  1  0
M  CHG  1  12   1
M  END
>  <i_m_ct_stereo_status>  (105) 
1

>  <s_m_source_file>  (105) 
/var/tmp/pbs.5076255.sched01/tmpvsf1hu0j/0g1dnczxv.sdf

>  <i_m_source_file_index>  (105) 
44

>  <i_lp_mmshare_version>  (105) 
48012

>  <i_f3d_flags>  (105) 
0

>  <s_epik_input>  (105) 
W2NIXTFbY0hdYyhGKVtjSF1jKGMxMilbQ0BASF0zW0NIMl1bQ0BIXShbQ0gyXTIpW05IXTM=

>  <s_epik_cmdline>  (105) 
J2VwaWtfcHl0aG9uJywgJy1waHQnLCAnMi4wJywgJy1waCcsICc3LjAnLCAnLXRuJywgJzgnLCAnLW1hJywgJzIwMCcsICctaW1hZScsICc8aW5maWxlLm1hZT4nLCAnLW9tYWUnLCAnPG91dGZpbGUubWFlPic=

>  <r_epik_Ionization_Penalty>  (105) 
0.00539516

>  <r_epik_Ionization_Penalty_Charging>  (105) 
0.00539516

>  <r_epik_Ionization_Penalty_Neutral>  (105) 
0

>  <r_epik_State_Penalty>  (105) 
0.00394259

>  <r_epik_Charging_Adjusted_Penalty>  (105) 
0.00933775

>  <i_epik_Tot_Q>  (105) 
1

>  <i_epik_Tot_abs_Q>  (105) 
1

>  <s_lp_Force_Field>  (105) 
OPLS3e

>  <r_lp_Energy>  (105) 
35.235

>  <b_lp_Chiralities_Consistent>  (105) 
1

>  <s_lp_Variant>  (105) 
36:0-1

>  <s_i_glide_gridfile>  (105) 
pfpi4k_grid

>  <i_i_glide_lignum>  (105) 
44

>  <i_i_glide_rotatable_bonds>  (105) 
0

>  <r_i_docking_score>  (105) 
-5.83202

>  <r_i_glide_ligand_efficiency>  (105) 
-0.486001

>  <r_i_glide_ligand_efficiency_sa>  (105) 
-1.11267

>  <r_i_glide_ligand_efficiency_ln>  (105) 
-1.67351

>  <r_i_glide_gscore>  (105) 
-5.83202

>  <r_i_glide_lipo>  (105) 
-2.20683

>  <r_i_glide_hbond>  (105) 
0

>  <r_i_glide_metal>  (105) 
-0

>  <r_i_glide_rewards>  (105) 
-2.7

>  <r_i_glide_evdw>  (105) 
-18.2563

>  <r_i_glide_ecoul>  (105) 
-0.0825028

>  <r_i_glide_erotb>  (105) 
0

>  <r_i_glide_esite>  (105) 
0

>  <r_i_glide_emodel>  (105) 
-31.2917

>  <r_i_glide_energy>  (105) 
-18.3388

>  <r_i_glide_einternal>  (105) 
0

>  <r_i_glide_intrahb_reward>  (105) 
-0

>  <i_i_glide_confnum>  (105) 
1

>  <i_i_glide_posenum>  (105) 
13

>  <r_i_glide_eff_state_penalty>  (105) 
0

>  <ligand_id>  (105) 
36

>  <original_smiles>  (105) 
Fc1ccc2c(c1)C1CC(C2)N1

>  <smiles>  (105) 
[H]c1c([H])c2c(c([H])c1F)C1([H])C([H])([H])C([H])(C2([H])[H])[N+]1([H])[H]

$$$$
36:0:2
     RDKit          3D

 23 25  0  0  1  0  0  0  0  0999 V2000
   -2.7742    3.4673    6.1233 F   0  0  0  0  0  0  0  0  0  0  0  0
   -1.6591    3.2439    5.3885 C   0  0  0  0  0  0  0  0  0  0  0  0
   -0.4647    3.9432    5.6817 C   0  0  0  0  0  0  0  0  0  0  0  0
    0.7062    3.7091    4.9281 C   0  0  0  0  0  0  0  0  0  0  0  0
    0.6709    2.7662    3.8843 C   0  0  0  0  0  0  0  0  0  0  0  0
   -0.5222    2.0788    3.5972 C   0  0  0  0  0  0  0  0  0  0  0  0
   -1.6913    2.3084    4.3411 C   0  0  0  0  0  0  0  0  0  0  0  0
   -0.4515    1.0819    2.4607 C   0  0  2  0  0  0  0  0  0  0  0  0
    0.7546    0.1476    2.4910 C   0  0  0  0  0  0  0  0  0  0  0  0
    1.5080    1.3746    1.9694 C   0  0  2  0  0  0  0  0  0  0  0  0
    1.8791    2.4712    2.9938 C   0  0  0  0  0  0  0  0  0  0  0  0
    0.2322    1.7116    1.3245 N   0  0  0  0  0  0  0  0  0  0  0  0
   -0.4465    4.6660    6.4823 H   0  0  0  0  0  0  0  0  0  0  0  0
    1.6215    4.2422    5.1463 H   0  0  0  0  0  0  0  0  0  0  0  0
   -2.5971    1.7659    4.1073 H   0  0  0  0  0  0  0  0  0  0  0  0
   -1.4003    0.6041    2.1969 H   0  0  0  0  0  0  0  0  0  0  0  0
    1.0512   -0.1723    3.4964 H   0  0  0  0  0  0  0  0  0  0  0  0
    0.7241   -0.6754    1.7735 H   0  0  0  0  0  0  0  0  0  0  0  0
    2.3003    1.1147    1.2638 H   0  0  0  0  0  0  0  0  0  0  0  0
    2.2014    3.3869    2.4946 H   0  0  0  0  0  0  0  0  0  0  0  0
    2.7088    2.1364    3.6186 H   0  0  0  0  0  0  0  0  0  0  0  0
    0.0562    1.1851    0.4764 H   0  0  0  0  0  0  0  0  0  0  0  0
    0.0953    2.7252    1.2417 H   0  0  0  0  0  0  0  0  0  0  0  0
  1  2  1  0
  2  7  2  0
  2  3  1  0
  3  4  2  0
  3 13  1  0
  4  5  1  0
  4 14  1  0
  5 11  1  0
  5  6  2  0
  6  7  1  0
  6  8  1  0
  7 15  1  0
  8 12  1  0
  8  9  1  0
  8 16  1  6
  9 10  1  0
  9 17  1  0
  9 18  1  0
 10 11  1  0
 10 12  1  0
 10 19  1  6
 11 20  1  0
 11 21  1  0
 12 22  1  0
 12 23  1  0
M  CHG  1  12   1
M  END
>  <i_m_ct_stereo_status>  (106) 
1

>  <s_m_source_file>  (106) 
/var/tmp/pbs.5076255.sched01/tmpvsf1hu0j/0g1dnczxv.sdf

>  <i_m_source_file_index>  (106) 
44

>  <i_lp_mmshare_version>  (106) 
48012

>  <i_f3d_flags>  (106) 
0

>  <s_epik_input>  (106) 
W2NIXTFbY0hdYyhGKVtjSF1jKGMxMilbQ0BASF0zW0NIMl1bQ0BIXShbQ0gyXTIpW05IXTM=

>  <s_epik_cmdline>  (106) 
J2VwaWtfcHl0aG9uJywgJy1waHQnLCAnMi4wJywgJy1waCcsICc3LjAnLCAnLXRuJywgJzgnLCAnLW1hJywgJzIwMCcsICctaW1hZScsICc8aW5maWxlLm1hZT4nLCAnLW9tYWUnLCAnPG91dGZpbGUubWFlPic=

>  <r_epik_Ionization_Penalty>  (106) 
0.00539516

>  <r_epik_Ionization_Penalty_Charging>  (106) 
0.00539516

>  <r_epik_Ionization_Penalty_Neutral>  (106) 
0

>  <r_epik_State_Penalty>  (106) 
0.00394259

>  <r_epik_Charging_Adjusted_Penalty>  (106) 
0.00933775

>  <i_epik_Tot_Q>  (106) 
1

>  <i_epik_Tot_abs_Q>  (106) 
1

>  <s_lp_Force_Field>  (106) 
OPLS3e

>  <r_lp_Energy>  (106) 
35.235

>  <b_lp_Chiralities_Consistent>  (106) 
1

>  <s_lp_Variant>  (106) 
36:0-1

>  <s_i_glide_gridfile>  (106) 
pfpi4k_grid

>  <i_i_glide_lignum>  (106) 
44

>  <i_i_glide_rotatable_bonds>  (106) 
0

>  <r_i_docking_score>  (106) 
-4.77084

>  <r_i_glide_ligand_efficiency>  (106) 
-0.39757

>  <r_i_glide_ligand_efficiency_sa>  (106) 
-0.910208

>  <r_i_glide_ligand_efficiency_ln>  (106) 
-1.369

>  <r_i_glide_gscore>  (106) 
-4.77084

>  <r_i_glide_lipo>  (106) 
0

>  <r_i_glide_hbond>  (106) 
-0.4

>  <r_i_glide_metal>  (106) 
-0

>  <r_i_glide_rewards>  (106) 
-2.35234

>  <r_i_glide_evdw>  (106) 
-12.6741

>  <r_i_glide_ecoul>  (106) 
-8.69925

>  <r_i_glide_erotb>  (106) 
0

>  <r_i_glide_esite>  (106) 
-0.0799056

>  <r_i_glide_emodel>  (106) 
-31.932

>  <r_i_glide_energy>  (106) 
-21.3733

>  <r_i_glide_einternal>  (106) 
0

>  <r_i_glide_intrahb_reward>  (106) 
-0

>  <i_i_glide_confnum>  (106) 
1

>  <i_i_glide_posenum>  (106) 
1

>  <r_i_glide_eff_state_penalty>  (106) 
0

>  <ligand_id>  (106) 
36

>  <original_smiles>  (106) 
Fc1ccc2c(c1)C1CC(C2)N1

>  <smiles>  (106) 
[H]c1c([H])c2c(c([H])c1F)C1([H])C([H])([H])C([H])(C2([H])[H])[N+]1([H])[H]

$$$$
37:0:0
     RDKit          3D

 40 45  0  0  1  0  0  0  0  0999 V2000
    4.2315   -3.4041   -3.2043 C   0  0  0  0  0  0  0  0  0  0  0  0
    4.3551   -3.0291   -1.9159 C   0  0  0  0  0  0  0  0  0  0  0  0
    4.7617   -4.0400   -0.7957 C   0  0  1  0  0  0  0  0  0  0  0  0
    5.9518   -3.4331   -0.1522 C   0  0  0  0  0  0  0  0  0  0  0  0
    5.4320   -2.1592    0.5954 C   0  0  2  0  0  0  0  0  0  0  0  0
    6.5793   -1.3598    0.2551 O   0  0  0  0  0  0  0  0  0  0  0  0
    4.9644   -2.1565    2.1205 C   0  0  2  0  0  0  0  0  0  0  0  0
    5.2656   -3.5787    2.5485 C   0  0  0  0  0  0  0  0  0  0  0  0
    4.3839   -4.4442    1.6982 O   0  0  0  0  0  0  0  0  0  0  0  0
    3.7501   -4.1483    0.3950 C   0  0  2  0  0  0  0  0  0  0  0  0
    2.8054   -5.1604    0.0797 O   0  0  0  0  0  0  0  0  0  0  0  0
    3.0223   -2.7743    0.3575 C   0  0  0  0  0  0  0  0  0  0  0  0
    4.1186   -1.5983    0.1277 C   0  0  2  0  0  0  0  0  0  0  0  0
    4.0917   -1.5664   -1.4304 C   0  0  1  0  0  0  0  0  0  0  0  0
    5.0118   -0.6583   -2.0052 O   0  0  0  0  0  0  0  0  0  0  0  0
    4.1258   -0.3255    1.1470 C   0  0  1  0  0  0  0  0  0  0  0  0
    2.7612   -0.2521    1.7570 C   0  0  2  0  0  0  0  0  0  0  0  0
    2.7033    0.1317    3.1438 O   0  0  0  0  0  0  0  0  0  0  0  0
    2.5033   -1.2649    2.8206 C   0  0  2  0  0  0  0  0  0  0  0  0
    3.6598   -2.1664    2.8691 O   0  0  0  0  0  0  0  0  0  0  0  0
    5.2069   -0.6739    2.3309 C   0  0  1  0  0  0  0  0  0  0  0  0
    5.1787   -0.2075    3.6752 O   0  0  0  0  0  0  0  0  0  0  0  0
    3.9414   -2.6952   -3.9609 H   0  0  0  0  0  0  0  0  0  0  0  0
    4.4128   -4.4247   -3.5077 H   0  0  0  0  0  0  0  0  0  0  0  0
    4.9988   -5.0254   -1.1861 H   0  0  0  0  0  0  0  0  0  0  0  0
    6.5221   -4.1447    0.4368 H   0  0  0  0  0  0  0  0  0  0  0  0
    6.6327   -3.2037   -0.9708 H   0  0  0  0  0  0  0  0  0  0  0  0
    6.5336   -0.5227    0.6864 H   0  0  0  0  0  0  0  0  0  0  0  0
    6.3156   -3.8370    2.4569 H   0  0  0  0  0  0  0  0  0  0  0  0
    5.0303   -3.7552    3.5967 H   0  0  0  0  0  0  0  0  0  0  0  0
    2.9878   -5.4592   -0.7949 H   0  0  0  0  0  0  0  0  0  0  0  0
    2.3161   -2.7961   -0.4713 H   0  0  0  0  0  0  0  0  0  0  0  0
    2.2896   -2.7844    1.1448 H   0  0  0  0  0  0  0  0  0  0  0  0
    3.1065   -1.2573   -1.7890 H   0  0  0  0  0  0  0  0  0  0  0  0
    4.8175    0.2054   -1.6917 H   0  0  0  0  0  0  0  0  0  0  0  0
    4.3625    0.6158    0.6484 H   0  0  0  0  0  0  0  0  0  0  0  0
    1.9217    0.0444    1.1366 H   0  0  0  0  0  0  0  0  0  0  0  0
    1.5162   -1.6753    3.0513 H   0  0  0  0  0  0  0  0  0  0  0  0
    6.2013   -0.2914    2.1394 H   0  0  0  0  0  0  0  0  0  0  0  0
    4.9686    0.7133    3.6764 H   0  0  0  0  0  0  0  0  0  0  0  0
  1  2  2  0
  1 23  1  0
  1 24  1  0
  2 14  1  0
  2  3  1  0
  3 10  1  0
  3  4  1  0
  3 25  1  6
  4  5  1  0
  4 26  1  0
  4 27  1  0
  5 13  1  0
  5  6  1  1
  5  7  1  0
  6 28  1  0
  7 20  1  6
  7 21  1  0
  7  8  1  0
  8  9  1  0
  8 29  1  0
  8 30  1  0
  9 10  1  0
 10 11  1  6
 10 12  1  0
 11 31  1  0
 13 12  1  1
 12 32  1  0
 12 33  1  0
 13 14  1  0
 13 16  1  0
 14 15  1  0
 14 34  1  1
 15 35  1  0
 16 17  1  0
 16 21  1  0
 16 36  1  6
 17 19  1  0
 17 18  1  0
 17 37  1  6
 18 19  1  0
 19 20  1  0
 19 38  1  6
 21 22  1  0
 21 39  1  6
 22 40  1  0
M  END
>  <i_m_ct_stereo_status>  (107) 
1

>  <s_m_source_file>  (107) 
/var/tmp/pbs.5076255.sched01/tmpvsf1hu0j/0g1dnczxv.sdf

>  <i_m_source_file_index>  (107) 
45

>  <i_lp_mmshare_version>  (107) 
48012

>  <i_f3d_flags>  (107) 
2

>  <s_epik_input>  (107) 
W09IXVtDQEhdMUMoPVtDSDJdKVtDQEBIXShbQ0gyXTIpW0NAQF0oW09IXSkoT1tDSDJdMylbQ0gyXVtDQF0xKFtDQF0yKEMzNDUpW09IXSlbQ0BASF0oW0NASF02W0NASF0oTzYpTzQpW0NASF01W09IXQ==

>  <s_epik_cmdline>  (107) 
J2VwaWtfcHl0aG9uJywgJy1waHQnLCAnMi4wJywgJy1waCcsICc3LjAnLCAnLXRuJywgJzgnLCAnLW1hJywgJzIwMCcsICctaW1hZScsICc8aW5maWxlLm1hZT4nLCAnLW9tYWUnLCAnPG91dGZpbGUubWFlPic=

>  <r_lp_tautomer_probability>  (107) 
1

>  <r_epik_Ionization_Penalty>  (107) 
1.33501e-06

>  <r_epik_Ionization_Penalty_Charging>  (107) 
0

>  <r_epik_Ionization_Penalty_Neutral>  (107) 
1.33501e-06

>  <r_epik_State_Penalty>  (107) 
-0

>  <r_epik_Charging_Adjusted_Penalty>  (107) 
0

>  <i_epik_Tot_Q>  (107) 
0

>  <i_epik_Tot_abs_Q>  (107) 
0

>  <s_epik_Chemistry_Notes>  (107) 
This compound contains an acetal/aminal-like group ( X-CH(R)-Y where X, Y are N, S, or O) that may be acid/base labile, releasing an aldehyde.

>  <s_lp_Force_Field>  (107) 
OPLS3e

>  <r_lp_Energy>  (107) 
215.021

>  <b_lp_Chiralities_Consistent>  (107) 
0

>  <s_lp_Variant>  (107) 
37:0-1

>  <s_i_glide_gridfile>  (107) 
pfpi4k_grid

>  <i_i_glide_lignum>  (107) 
45

>  <i_i_glide_rotatable_bonds>  (107) 
4

>  <r_i_docking_score>  (107) 
-4.63437

>  <r_i_glide_ligand_efficiency>  (107) 
-0.210653

>  <r_i_glide_ligand_efficiency_sa>  (107) 
-0.590258

>  <r_i_glide_ligand_efficiency_ln>  (107) 
-1.13281

>  <r_i_glide_gscore>  (107) 
-4.63437

>  <r_i_glide_lipo>  (107) 
-0.535876

>  <r_i_glide_hbond>  (107) 
0

>  <r_i_glide_metal>  (107) 
-0

>  <r_i_glide_rewards>  (107) 
-1.29683

>  <r_i_glide_evdw>  (107) 
-26.0834

>  <r_i_glide_ecoul>  (107) 
-9.92244

>  <r_i_glide_erotb>  (107) 
0

>  <r_i_glide_esite>  (107) 
-0.00912448

>  <r_i_glide_emodel>  (107) 
-45.3272

>  <r_i_glide_energy>  (107) 
-36.0059

>  <r_i_glide_einternal>  (107) 
2.84044

>  <r_i_glide_intrahb_reward>  (107) 
-0

>  <i_i_glide_confnum>  (107) 
1

>  <i_i_glide_posenum>  (107) 
32

>  <r_i_glide_eff_state_penalty>  (107) 
0

>  <ligand_id>  (107) 
37

>  <original_smiles>  (107) 
C=C1C2CC3(O)C45COC2(O)CC3(C1O)C(C1OC1O4)C5O

>  <smiles>  (107) 
[H]OC1([H])C(=C([H])[H])C2([H])C([H])([H])C3(O[H])C45OC6([H])OC6([H])C([H])(C4([H])O[H])C13C([H])([H])C2(O[H])OC5([H])[H]

$$$$
37:0:1
     RDKit          3D

 40 45  0  0  1  0  0  0  0  0999 V2000
    4.0364   -3.2469   -3.2417 C   0  0  0  0  0  0  0  0  0  0  0  0
    4.2393   -2.9695   -1.9492 C   0  0  0  0  0  0  0  0  0  0  0  0
    4.6089   -4.0734   -0.8998 C   0  0  1  0  0  0  0  0  0  0  0  0
    5.8700   -3.6043   -0.2798 C   0  0  0  0  0  0  0  0  0  0  0  0
    5.4822   -2.3393    0.5625 C   0  0  2  0  0  0  0  0  0  0  0  0
    6.6555   -1.5872    0.2048 O   0  0  0  0  0  0  0  0  0  0  0  0
    5.0803   -2.3883    2.0971 C   0  0  2  0  0  0  0  0  0  0  0  0
    5.2805   -3.8583    2.4374 C   0  0  0  0  0  0  0  0  0  0  0  0
    4.3008   -4.5982    1.5783 O   0  0  0  0  0  0  0  0  0  0  0  0
    3.6331   -4.1725    0.3231 C   0  0  2  0  0  0  0  0  0  0  0  0
    2.5882   -5.0631    0.0118 O   0  0  0  0  0  0  0  0  0  0  0  0
    3.0221   -2.7428    0.3985 C   0  0  0  0  0  0  0  0  0  0  0  0
    4.1989   -1.6505    0.1878 C   0  0  2  0  0  0  0  0  0  0  0  0
    4.1162   -1.5245   -1.3656 C   0  0  1  0  0  0  0  0  0  0  0  0
    5.0746   -0.6829   -1.9409 O   0  0  0  0  0  0  0  0  0  0  0  0
    4.3579   -0.4454    1.2710 C   0  0  1  0  0  0  0  0  0  0  0  0
    3.0211   -0.2953    1.9542 C   0  0  2  0  0  0  0  0  0  0  0  0
    3.0425    0.0053    3.3433 O   0  0  0  0  0  0  0  0  0  0  0  0
    2.7406   -1.3358    2.9556 C   0  0  2  0  0  0  0  0  0  0  0  0
    3.7964   -2.3451    2.8985 O   0  0  0  0  0  0  0  0  0  0  0  0
    5.4456   -0.9484    2.3923 C   0  0  1  0  0  0  0  0  0  0  0  0
    5.4867   -0.5672    3.7580 O   0  0  0  0  0  0  0  0  0  0  0  0
    3.7739   -2.4716   -3.9475 H   0  0  0  0  0  0  0  0  0  0  0  0
    4.1234   -4.2582   -3.6154 H   0  0  0  0  0  0  0  0  0  0  0  0
    4.7495   -5.0541   -1.3606 H   0  0  0  0  0  0  0  0  0  0  0  0
    6.3997   -4.3978    0.2394 H   0  0  0  0  0  0  0  0  0  0  0  0
    6.5384   -3.3792   -1.1137 H   0  0  0  0  0  0  0  0  0  0  0  0
    7.4022   -1.9598    0.6602 H   0  0  0  0  0  0  0  0  0  0  0  0
    6.3077   -4.1879    2.2875 H   0  0  0  0  0  0  0  0  0  0  0  0
    5.0746   -4.0797    3.4855 H   0  0  0  0  0  0  0  0  0  0  0  0
    2.7798   -5.4336   -0.8502 H   0  0  0  0  0  0  0  0  0  0  0  0
    2.2816   -2.6592   -0.4016 H   0  0  0  0  0  0  0  0  0  0  0  0
    2.3219   -2.7452    1.2135 H   0  0  0  0  0  0  0  0  0  0  0  0
    3.1472   -1.1189   -1.6623 H   0  0  0  0  0  0  0  0  0  0  0  0
    4.9421    0.2066   -1.6022 H   0  0  0  0  0  0  0  0  0  0  0  0
    4.6503    0.4998    0.8182 H   0  0  0  0  0  0  0  0  0  0  0  0
    2.1900    0.0986    1.3677 H   0  0  0  0  0  0  0  0  0  0  0  0
    1.7153   -1.6997    3.2053 H   0  0  0  0  0  0  0  0  0  0  0  0
    6.4680   -0.6393    2.1713 H   0  0  0  0  0  0  0  0  0  0  0  0
    5.5079    0.3804    3.8085 H   0  0  0  0  0  0  0  0  0  0  0  0
  1  2  2  0
  1 23  1  0
  1 24  1  0
  2 14  1  0
  2  3  1  0
  3 10  1  0
  3  4  1  0
  3 25  1  6
  4  5  1  0
  4 26  1  0
  4 27  1  0
  5 13  1  0
  5  6  1  1
  5  7  1  0
  6 28  1  0
  7 20  1  6
  7 21  1  0
  7  8  1  0
  8  9  1  0
  8 29  1  0
  8 30  1  0
  9 10  1  0
 10 11  1  6
 10 12  1  0
 11 31  1  0
 13 12  1  1
 12 32  1  0
 12 33  1  0
 13 14  1  0
 13 16  1  0
 14 15  1  0
 14 34  1  1
 15 35  1  0
 16 17  1  0
 16 21  1  0
 16 36  1  6
 17 19  1  0
 17 18  1  0
 17 37  1  6
 18 19  1  0
 19 20  1  0
 19 38  1  6
 21 22  1  0
 21 39  1  6
 22 40  1  0
M  END
>  <i_m_ct_stereo_status>  (108) 
1

>  <s_m_source_file>  (108) 
/var/tmp/pbs.5076255.sched01/tmpvsf1hu0j/0g1dnczxv.sdf

>  <i_m_source_file_index>  (108) 
45

>  <i_lp_mmshare_version>  (108) 
48012

>  <i_f3d_flags>  (108) 
2

>  <s_epik_input>  (108) 
W09IXVtDQEhdMUMoPVtDSDJdKVtDQEBIXShbQ0gyXTIpW0NAQF0oW09IXSkoT1tDSDJdMylbQ0gyXVtDQF0xKFtDQF0yKEMzNDUpW09IXSlbQ0BASF0oW0NASF02W0NASF0oTzYpTzQpW0NASF01W09IXQ==

>  <s_epik_cmdline>  (108) 
J2VwaWtfcHl0aG9uJywgJy1waHQnLCAnMi4wJywgJy1waCcsICc3LjAnLCAnLXRuJywgJzgnLCAnLW1hJywgJzIwMCcsICctaW1hZScsICc8aW5maWxlLm1hZT4nLCAnLW9tYWUnLCAnPG91dGZpbGUubWFlPic=

>  <r_lp_tautomer_probability>  (108) 
1

>  <r_epik_Ionization_Penalty>  (108) 
1.33501e-06

>  <r_epik_Ionization_Penalty_Charging>  (108) 
0

>  <r_epik_Ionization_Penalty_Neutral>  (108) 
1.33501e-06

>  <r_epik_State_Penalty>  (108) 
-0

>  <r_epik_Charging_Adjusted_Penalty>  (108) 
0

>  <i_epik_Tot_Q>  (108) 
0

>  <i_epik_Tot_abs_Q>  (108) 
0

>  <s_epik_Chemistry_Notes>  (108) 
This compound contains an acetal/aminal-like group ( X-CH(R)-Y where X, Y are N, S, or O) that may be acid/base labile, releasing an aldehyde.

>  <s_lp_Force_Field>  (108) 
OPLS3e

>  <r_lp_Energy>  (108) 
215.021

>  <b_lp_Chiralities_Consistent>  (108) 
0

>  <s_lp_Variant>  (108) 
37:0-1

>  <s_i_glide_gridfile>  (108) 
pfpi4k_grid

>  <i_i_glide_lignum>  (108) 
45

>  <i_i_glide_rotatable_bonds>  (108) 
4

>  <r_i_docking_score>  (108) 
-4.4337

>  <r_i_glide_ligand_efficiency>  (108) 
-0.201532

>  <r_i_glide_ligand_efficiency_sa>  (108) 
-0.5647

>  <r_i_glide_ligand_efficiency_ln>  (108) 
-1.08376

>  <r_i_glide_gscore>  (108) 
-4.4337

>  <r_i_glide_lipo>  (108) 
-0.517611

>  <r_i_glide_hbond>  (108) 
0

>  <r_i_glide_metal>  (108) 
-0

>  <r_i_glide_rewards>  (108) 
-1.29341

>  <r_i_glide_evdw>  (108) 
-25.0867

>  <r_i_glide_ecoul>  (108) 
-9.0681

>  <r_i_glide_erotb>  (108) 
0

>  <r_i_glide_esite>  (108) 
-0.00812112

>  <r_i_glide_emodel>  (108) 
-43.0155

>  <r_i_glide_energy>  (108) 
-34.1548

>  <r_i_glide_einternal>  (108) 
2.58321

>  <r_i_glide_intrahb_reward>  (108) 
-0

>  <i_i_glide_confnum>  (108) 
1

>  <i_i_glide_posenum>  (108) 
13

>  <r_i_glide_eff_state_penalty>  (108) 
0

>  <ligand_id>  (108) 
37

>  <original_smiles>  (108) 
C=C1C2CC3(O)C45COC2(O)CC3(C1O)C(C1OC1O4)C5O

>  <smiles>  (108) 
[H]OC1([H])C(=C([H])[H])C2([H])C([H])([H])C3(O[H])C45OC6([H])OC6([H])C([H])(C4([H])O[H])C13C([H])([H])C2(O[H])OC5([H])[H]

$$$$
37:0:2
     RDKit          3D

 40 45  0  0  1  0  0  0  0  0999 V2000
    3.6411   -3.0562   -3.3058 C   0  0  0  0  0  0  0  0  0  0  0  0
    3.9394   -2.8919   -2.0009 C   0  0  0  0  0  0  0  0  0  0  0  0
    5.0115   -1.8709   -1.5210 C   0  0  1  0  0  0  0  0  0  0  0  0
    4.2832   -1.0201   -0.5526 C   0  0  0  0  0  0  0  0  0  0  0  0
    3.9653   -1.9181    0.6828 C   0  0  2  0  0  0  0  0  0  0  0  0
    2.6559   -1.3762    0.9462 O   0  0  0  0  0  0  0  0  0  0  0  0
    4.9217   -2.0430    1.9445 C   0  0  2  0  0  0  0  0  0  0  0  0
    6.0198   -1.0479    1.6186 C   0  0  0  0  0  0  0  0  0  0  0  0
    6.6853   -1.5499    0.3749 O   0  0  0  0  0  0  0  0  0  0  0  0
    6.1613   -2.4744   -0.6535 C   0  0  2  0  0  0  0  0  0  0  0  0
    7.2177   -2.8436   -1.5168 O   0  0  0  0  0  0  0  0  0  0  0  0
    5.5033   -3.7558   -0.0541 C   0  0  0  0  0  0  0  0  0  0  0  0
    3.9935   -3.3948    0.4527 C   0  0  2  0  0  0  0  0  0  0  0  0
    3.2317   -3.6865   -0.8663 C   0  0  1  0  0  0  0  0  0  0  0  0
    1.8381   -3.4577   -0.8757 O   0  0  0  0  0  0  0  0  0  0  0  0
    3.5450   -3.7967    1.9736 C   0  0  1  0  0  0  0  0  0  0  0  0
    4.4453   -4.9155    2.4150 C   0  0  2  0  0  0  0  0  0  0  0  0
    4.8877   -4.8966    3.7786 O   0  0  0  0  0  0  0  0  0  0  0  0
    5.8104   -4.4672    2.7606 C   0  0  2  0  0  0  0  0  0  0  0  0
    5.9185   -3.0373    2.4579 O   0  0  0  0  0  0  0  0  0  0  0  0
    3.8465   -2.4867    2.9183 C   0  0  1  0  0  0  0  0  0  0  0  0
    4.1874   -2.4990    4.3001 O   0  0  0  0  0  0  0  0  0  0  0  0
    2.8911   -3.7748   -3.5991 H   0  0  0  0  0  0  0  0  0  0  0  0
    4.1416   -2.4845   -4.0654 H   0  0  0  0  0  0  0  0  0  0  0  0
    5.4102   -1.2744   -2.3376 H   0  0  0  0  0  0  0  0  0  0  0  0
    4.7930   -0.0862   -0.3437 H   0  0  0  0  0  0  0  0  0  0  0  0
    3.3890   -0.6923   -1.0703 H   0  0  0  0  0  0  0  0  0  0  0  0
    2.1100   -1.2332    0.1755 H   0  0  0  0  0  0  0  0  0  0  0  0
    5.6498   -0.0310    1.5151 H   0  0  0  0  0  0  0  0  0  0  0  0
    6.7622   -0.9784    2.4079 H   0  0  0  0  0  0  0  0  0  0  0  0
    7.8175   -3.3966   -1.0321 H   0  0  0  0  0  0  0  0  0  0  0  0
    5.4600   -4.5122   -0.8409 H   0  0  0  0  0  0  0  0  0  0  0  0
    6.2554   -4.2357    0.5486 H   0  0  0  0  0  0  0  0  0  0  0  0
    3.3551   -4.7404   -1.0696 H   0  0  0  0  0  0  0  0  0  0  0  0
    1.6585   -2.5427   -0.9484 H   0  0  0  0  0  0  0  0  0  0  0  0
    2.5065   -4.1170    2.0529 H   0  0  0  0  0  0  0  0  0  0  0  0
    4.3565   -5.8847    1.9420 H   0  0  0  0  0  0  0  0  0  0  0  0
    6.7061   -5.0822    2.6657 H   0  0  0  0  0  0  0  0  0  0  0  0
    2.9860   -1.8352    3.0494 H   0  0  0  0  0  0  0  0  0  0  0  0
    4.3795   -1.6162    4.5784 H   0  0  0  0  0  0  0  0  0  0  0  0
  1  2  2  0
  1 23  1  0
  1 24  1  0
  2 14  1  0
  2  3  1  0
  3 10  1  0
  3  4  1  0
  3 25  1  6
  4  5  1  0
  4 26  1  0
  4 27  1  0
  5 13  1  0
  5  6  1  1
  5  7  1  0
  6 28  1  0
  7 20  1  6
  7 21  1  0
  7  8  1  0
  8  9  1  0
  8 29  1  0
  8 30  1  0
  9 10  1  0
 10 11  1  6
 10 12  1  0
 11 31  1  0
 13 12  1  6
 12 32  1  0
 12 33  1  0
 13 14  1  0
 13 16  1  0
 14 15  1  0
 14 34  1  6
 15 35  1  0
 16 17  1  0
 16 21  1  0
 16 36  1  6
 17 19  1  0
 17 18  1  0
 17 37  1  6
 18 19  1  0
 19 20  1  0
 19 38  1  6
 21 22  1  0
 21 39  1  1
 22 40  1  0
M  END
>  <i_m_ct_stereo_status>  (109) 
1

>  <s_m_source_file>  (109) 
/var/tmp/pbs.5076255.sched01/tmpvsf1hu0j/0g1dnczxv.sdf

>  <i_m_source_file_index>  (109) 
45

>  <i_lp_mmshare_version>  (109) 
48012

>  <i_f3d_flags>  (109) 
2

>  <s_epik_input>  (109) 
W09IXVtDQEhdMUMoPVtDSDJdKVtDQEBIXShbQ0gyXTIpW0NAQF0oW09IXSkoT1tDSDJdMylbQ0gyXVtDQF0xKFtDQF0yKEMzNDUpW09IXSlbQ0BASF0oW0NASF02W0NASF0oTzYpTzQpW0NASF01W09IXQ==

>  <s_epik_cmdline>  (109) 
J2VwaWtfcHl0aG9uJywgJy1waHQnLCAnMi4wJywgJy1waCcsICc3LjAnLCAnLXRuJywgJzgnLCAnLW1hJywgJzIwMCcsICctaW1hZScsICc8aW5maWxlLm1hZT4nLCAnLW9tYWUnLCAnPG91dGZpbGUubWFlPic=

>  <r_lp_tautomer_probability>  (109) 
1

>  <r_epik_Ionization_Penalty>  (109) 
1.33501e-06

>  <r_epik_Ionization_Penalty_Charging>  (109) 
0

>  <r_epik_Ionization_Penalty_Neutral>  (109) 
1.33501e-06

>  <r_epik_State_Penalty>  (109) 
-0

>  <r_epik_Charging_Adjusted_Penalty>  (109) 
0

>  <i_epik_Tot_Q>  (109) 
0

>  <i_epik_Tot_abs_Q>  (109) 
0

>  <s_epik_Chemistry_Notes>  (109) 
This compound contains an acetal/aminal-like group ( X-CH(R)-Y where X, Y are N, S, or O) that may be acid/base labile, releasing an aldehyde.

>  <s_lp_Force_Field>  (109) 
OPLS3e

>  <r_lp_Energy>  (109) 
215.021

>  <b_lp_Chiralities_Consistent>  (109) 
0

>  <s_lp_Variant>  (109) 
37:0-1

>  <s_i_glide_gridfile>  (109) 
pfpi4k_grid

>  <i_i_glide_lignum>  (109) 
45

>  <i_i_glide_rotatable_bonds>  (109) 
4

>  <r_i_docking_score>  (109) 
-3.81087

>  <r_i_glide_ligand_efficiency>  (109) 
-0.173221

>  <r_i_glide_ligand_efficiency_sa>  (109) 
-0.485373

>  <r_i_glide_ligand_efficiency_ln>  (109) 
-0.931515

>  <r_i_glide_gscore>  (109) 
-3.81087

>  <r_i_glide_lipo>  (109) 
-0.397204

>  <r_i_glide_hbond>  (109) 
0

>  <r_i_glide_metal>  (109) 
-0

>  <r_i_glide_rewards>  (109) 
-1.3149

>  <r_i_glide_evdw>  (109) 
-18.1113

>  <r_i_glide_ecoul>  (109) 
-7.82003

>  <r_i_glide_erotb>  (109) 
0

>  <r_i_glide_esite>  (109) 
-0.0201951

>  <r_i_glide_emodel>  (109) 
-34.4035

>  <r_i_glide_energy>  (109) 
-25.9313

>  <r_i_glide_einternal>  (109) 
0.715694

>  <r_i_glide_intrahb_reward>  (109) 
-0

>  <i_i_glide_confnum>  (109) 
2

>  <i_i_glide_posenum>  (109) 
33

>  <r_i_glide_eff_state_penalty>  (109) 
0

>  <ligand_id>  (109) 
37

>  <original_smiles>  (109) 
C=C1C2CC3(O)C45COC2(O)CC3(C1O)C(C1OC1O4)C5O

>  <smiles>  (109) 
[H]OC1([H])C(=C([H])[H])C2([H])C([H])([H])C3(O[H])C45OC6([H])OC6([H])C([H])(C4([H])O[H])C13C([H])([H])C2(O[H])OC5([H])[H]

$$$$
38:0:0
     RDKit          3D

 47 52  0  0  1  0  0  0  0  0999 V2000
    3.5101    0.1308   -4.3629 C   0  0  0  0  0  0  0  0  0  0  0  0
    4.2762   -0.2918   -3.2485 O   0  0  0  0  0  0  0  0  0  0  0  0
    3.9391   -1.4603   -2.6035 C   0  0  0  0  0  0  0  0  0  0  0  0
    2.7897   -2.2446   -2.9354 C   0  0  0  0  0  0  0  0  0  0  0  0
    2.2946   -3.2635   -2.0704 C   0  0  0  0  0  0  0  0  0  0  0  0
    3.0591   -3.6599   -0.9527 C   0  0  0  0  0  0  0  0  0  0  0  0
    4.2968   -3.0028   -0.8814 C   0  0  0  0  0  0  0  0  0  0  0  0
    4.7178   -1.8012   -1.4804 C   0  0  0  0  0  0  0  0  0  0  0  0
    5.5391   -0.9041   -0.7365 O   0  0  0  0  0  0  0  0  0  0  0  0
    5.4216   -0.8505    0.7607 C   0  0  1  0  0  0  0  0  0  0  0  0
    6.1688   -1.0495    2.1107 C   0  0  1  0  0  0  0  0  0  0  0  0
    5.7856   -0.0420    3.0303 O   0  0  0  0  0  0  0  0  0  0  0  0
    5.6633   -2.4430    2.6920 C   0  0  2  0  0  0  0  0  0  0  0  0
    6.4764   -3.4447    2.0148 O   0  0  0  0  0  0  0  0  0  0  0  0
    6.2909   -3.6234    0.7035 C   0  0  0  0  0  0  0  0  0  0  0  0
    7.0619   -4.1478   -0.0892 O   0  0  0  0  0  0  0  0  0  0  0  0
    4.8964   -3.1235    0.3735 C   0  0  1  0  0  0  0  0  0  0  0  0
    4.3337   -1.8453    1.1083 C   0  0  2  0  0  0  0  0  0  0  0  0
    3.0575   -0.8991    0.9290 C   0  0  0  0  0  0  0  0  0  0  0  0
    1.9320   -1.0853    2.0317 C   0  0  0  0  0  0  0  0  0  0  0  0
    1.6617   -2.5441    2.3243 N   0  0  2  0  0  0  0  0  0  0  0  0
    1.2095   -2.8088    3.7099 C   0  0  0  0  0  0  0  0  0  0  0  0
    2.7694   -3.4138    1.8666 C   0  0  2  0  0  0  0  0  0  0  0  0
    2.5954   -4.3197    0.4585 C   0  0  0  0  0  0  0  0  0  0  0  0
    4.0905   -2.5258    2.4080 C   0  0  2  0  0  0  0  0  0  0  0  0
    3.9567    1.0383   -4.7651 H   0  0  0  0  0  0  0  0  0  0  0  0
    2.4880    0.3754   -4.0792 H   0  0  0  0  0  0  0  0  0  0  0  0
    3.5011   -0.6069   -5.1656 H   0  0  0  0  0  0  0  0  0  0  0  0
    2.1658   -1.9564   -3.7529 H   0  0  0  0  0  0  0  0  0  0  0  0
    1.2993   -3.6536   -2.2224 H   0  0  0  0  0  0  0  0  0  0  0  0
    6.3864   -1.2023    0.4191 H   0  0  0  0  0  0  0  0  0  0  0  0
    7.2604   -0.9777    2.0473 H   0  0  0  0  0  0  0  0  0  0  0  0
    4.8432    0.0045    3.0679 H   0  0  0  0  0  0  0  0  0  0  0  0
    5.8378   -2.4704    3.7702 H   0  0  0  0  0  0  0  0  0  0  0  0
    4.6918   -4.1067    0.7730 H   0  0  0  0  0  0  0  0  0  0  0  0
    3.3457    0.1574    0.9773 H   0  0  0  0  0  0  0  0  0  0  0  0
    2.6317   -1.0274   -0.0689 H   0  0  0  0  0  0  0  0  0  0  0  0
    2.2750   -0.5950    2.9511 H   0  0  0  0  0  0  0  0  0  0  0  0
    1.0041   -0.5977    1.7231 H   0  0  0  0  0  0  0  0  0  0  0  0
    1.9871   -2.5843    4.4537 H   0  0  0  0  0  0  0  0  0  0  0  0
    0.9098   -3.8582    3.8257 H   0  0  0  0  0  0  0  0  0  0  0  0
    0.3287   -2.1958    3.9438 H   0  0  0  0  0  0  0  0  0  0  0  0
    2.2615   -2.9759    1.0325 H   0  0  0  0  0  0  0  0  0  0  0  0
    1.5693   -4.6652    0.3059 H   0  0  0  0  0  0  0  0  0  0  0  0
    3.1091   -5.2820    0.5756 H   0  0  0  0  0  0  0  0  0  0  0  0
    4.3225   -3.5485    2.7239 H   0  0  0  0  0  0  0  0  0  0  0  0
    0.8720   -2.8040    1.7510 H   0  0  0  0  0  0  0  0  0  0  0  0
  1  2  1  0
  1 26  1  0
  1 27  1  0
  1 28  1  0
  2  3  1  0
  3  8  2  0
  3  4  1  0
  4  5  2  0
  4 29  1  0
  5  6  1  0
  5 30  1  0
  6 24  1  0
  6  7  2  0
  7 17  1  0
  7  8  1  0
  8  9  1  0
  9 10  1  0
 10 18  1  0
 10 11  1  0
 10 31  1  6
 11 12  1  0
 11 13  1  0
 11 32  1  6
 12 33  1  0
 13 25  1  0
 13 14  1  0
 13 34  1  1
 14 15  1  0
 15 16  2  0
 15 17  1  0
 17 18  1  0
 17 35  1  1
 18 25  1  0
 18 19  1  6
 19 20  1  0
 19 36  1  0
 19 37  1  0
 20 21  1  0
 20 38  1  0
 20 39  1  0
 21 22  1  0
 21 23  1  0
 21 47  1  6
 22 40  1  0
 22 41  1  0
 22 42  1  0
 23 24  1  0
 23 25  1  0
 23 43  1  1
 24 44  1  0
 24 45  1  0
 25 46  1  1
M  CHG  1  21   1
M  END
>  <i_m_ct_stereo_status>  (110) 
1

>  <s_m_source_file>  (110) 
/var/tmp/pbs.5076255.sched01/tmpvsf1hu0j/0g1dnczxv.sdf

>  <i_m_source_file_index>  (110) 
46

>  <i_lp_mmshare_version>  (110) 
48012

>  <i_f3d_flags>  (110) 
0

>  <s_epik_input>  (110) 
W0NIM11PYzFbY0hdW2NIXWMoYzJjMU9bQ0BASF0zQzQ1NilbQ0gyXVtDQEBIXShOKFtDSDNdKVtDSDJdW0NIMl01KVtDSF02W0NASF0oW0NAQEhdM1tPSF0pT0MoPU8pW0NASF0yNA==

>  <s_epik_cmdline>  (110) 
J2VwaWtfcHl0aG9uJywgJy1waHQnLCAnMi4wJywgJy1waCcsICc3LjAnLCAnLXRuJywgJzgnLCAnLW1hJywgJzIwMCcsICctaW1hZScsICc8aW5maWxlLm1hZT4nLCAnLW9tYWUnLCAnPG91dGZpbGUubWFlPic=

>  <r_lp_tautomer_probability>  (110) 
1

>  <r_epik_Ionization_Penalty>  (110) 
0.102957

>  <r_epik_Ionization_Penalty_Charging>  (110) 
0.102879

>  <r_epik_Ionization_Penalty_Neutral>  (110) 
7.78899e-05

>  <r_epik_State_Penalty>  (110) 
0.0928267

>  <r_epik_Charging_Adjusted_Penalty>  (110) 
0.195706

>  <i_epik_Tot_Q>  (110) 
1

>  <i_epik_Tot_abs_Q>  (110) 
1

>  <s_epik_Chemistry_Notes>  (110) 
This compound has an ester and may undergo hydrolysis at high or low pH.

>  <s_lp_Force_Field>  (110) 
OPLS3e

>  <r_lp_Energy>  (110) 
412.828

>  <b_lp_Chiralities_Consistent>  (110) 
1

>  <s_lp_Variant>  (110) 
38:0-1

>  <s_i_glide_gridfile>  (110) 
pfpi4k_grid

>  <i_i_glide_lignum>  (110) 
46

>  <i_i_glide_rotatable_bonds>  (110) 
2

>  <r_i_docking_score>  (110) 
-4.07708

>  <r_i_glide_ligand_efficiency>  (110) 
-0.163083

>  <r_i_glide_ligand_efficiency_sa>  (110) 
-0.476858

>  <r_i_glide_ligand_efficiency_ln>  (110) 
-0.966391

>  <r_i_glide_gscore>  (110) 
-4.07708

>  <r_i_glide_lipo>  (110) 
-0.62482

>  <r_i_glide_hbond>  (110) 
-0.155394

>  <r_i_glide_metal>  (110) 
-0

>  <r_i_glide_rewards>  (110) 
-1.18033

>  <r_i_glide_evdw>  (110) 
-18.556

>  <r_i_glide_ecoul>  (110) 
-7.85778

>  <r_i_glide_erotb>  (110) 
0

>  <r_i_glide_esite>  (110) 
-0.0100737

>  <r_i_glide_emodel>  (110) 
-33.2323

>  <r_i_glide_energy>  (110) 
-26.4138

>  <r_i_glide_einternal>  (110) 
0.0109889

>  <r_i_glide_intrahb_reward>  (110) 
-0

>  <i_i_glide_confnum>  (110) 
2

>  <i_i_glide_posenum>  (110) 
13

>  <r_i_glide_eff_state_penalty>  (110) 
0

>  <ligand_id>  (110) 
38

>  <original_smiles>  (110) 
COc1ccc2c3c1OC1C(O)C4OC(=O)C3C13CCN(C)C(C2)C43

>  <smiles>  (110) 
[H]OC1([H])C2([H])OC(=O)C3([H])c4c5c(OC([H])([H])[H])c([H])c([H])c4C([H])([H])C4([H])C2([H])C3(C([H])([H])C([H])([H])[N+]4([H])C([H])([H])[H])C1([H])O5

$$$$
38:0:1
     RDKit          3D

 47 52  0  0  1  0  0  0  0  0999 V2000
    5.4835   -8.3532    2.4763 C   0  0  0  0  0  0  0  0  0  0  0  0
    5.6172   -6.9411    2.5682 O   0  0  0  0  0  0  0  0  0  0  0  0
    4.5952   -6.1450    2.0987 C   0  0  0  0  0  0  0  0  0  0  0  0
    3.3951   -6.6535    1.5083 C   0  0  0  0  0  0  0  0  0  0  0  0
    2.4820   -5.8157    0.8101 C   0  0  0  0  0  0  0  0  0  0  0  0
    2.6684   -4.4226    0.8241 C   0  0  0  0  0  0  0  0  0  0  0  0
    3.7358   -4.0057    1.6436 C   0  0  0  0  0  0  0  0  0  0  0  0
    4.8387   -4.7490    2.1080 C   0  0  0  0  0  0  0  0  0  0  0  0
    6.1326   -4.1555    2.1296 O   0  0  0  0  0  0  0  0  0  0  0  0
    6.4426   -3.0416    1.1776 C   0  0  1  0  0  0  0  0  0  0  0  0
    6.8879   -1.5605    1.0261 C   0  0  1  0  0  0  0  0  0  0  0  0
    7.9029   -1.5663    0.0534 O   0  0  0  0  0  0  0  0  0  0  0  0
    5.5997   -0.7903    0.5108 C   0  0  2  0  0  0  0  0  0  0  0  0
    4.9054   -0.4984    1.7501 O   0  0  0  0  0  0  0  0  0  0  0  0
    4.3166   -1.5300    2.4040 C   0  0  0  0  0  0  0  0  0  0  0  0
    3.9335   -1.5490    3.5672 O   0  0  0  0  0  0  0  0  0  0  0  0
    4.1251   -2.6728    1.3981 C   0  0  1  0  0  0  0  0  0  0  0  0
    5.2197   -2.9098    0.2867 C   0  0  2  0  0  0  0  0  0  0  0  0
    5.5313   -4.0725   -0.7867 C   0  0  0  0  0  0  0  0  0  0  0  0
    5.1929   -3.6907   -2.2889 C   0  0  0  0  0  0  0  0  0  0  0  0
    3.8360   -3.0359   -2.4196 N   0  0  2  0  0  0  0  0  0  0  0  0
    3.7565   -2.0574   -3.5270 C   0  0  0  0  0  0  0  0  0  0  0  0
    3.4019   -2.4799   -1.1133 C   0  0  2  0  0  0  0  0  0  0  0  0
    2.2302   -3.3196   -0.2691 C   0  0  0  0  0  0  0  0  0  0  0  0
    4.8309   -1.7459   -0.5460 C   0  0  2  0  0  0  0  0  0  0  0  0
    6.3712   -8.8210    2.9002 H   0  0  0  0  0  0  0  0  0  0  0  0
    5.4067   -8.6894    1.4421 H   0  0  0  0  0  0  0  0  0  0  0  0
    4.6260   -8.7185    3.0407 H   0  0  0  0  0  0  0  0  0  0  0  0
    3.2273   -7.7125    1.4416 H   0  0  0  0  0  0  0  0  0  0  0  0
    1.7178   -6.2544    0.1844 H   0  0  0  0  0  0  0  0  0  0  0  0
    6.4200   -2.6994    2.2044 H   0  0  0  0  0  0  0  0  0  0  0  0
    7.3148   -1.0432    1.8914 H   0  0  0  0  0  0  0  0  0  0  0  0
    8.6696   -1.9986    0.4052 H   0  0  0  0  0  0  0  0  0  0  0  0
    5.9099    0.1440    0.0462 H   0  0  0  0  0  0  0  0  0  0  0  0
    3.2498   -2.0807    1.1659 H   0  0  0  0  0  0  0  0  0  0  0  0
    6.6037   -4.2731   -0.7773 H   0  0  0  0  0  0  0  0  0  0  0  0
    5.0476   -5.0183   -0.5333 H   0  0  0  0  0  0  0  0  0  0  0  0
    5.9605   -3.0026   -2.6431 H   0  0  0  0  0  0  0  0  0  0  0  0
    5.2296   -4.5659   -2.9344 H   0  0  0  0  0  0  0  0  0  0  0  0
    4.4257   -1.2114   -3.3705 H   0  0  0  0  0  0  0  0  0  0  0  0
    2.7413   -1.6731   -3.6411 H   0  0  0  0  0  0  0  0  0  0  0  0
    4.0367   -2.5336   -4.4652 H   0  0  0  0  0  0  0  0  0  0  0  0
    3.4140   -3.5514   -1.1014 H   0  0  0  0  0  0  0  0  0  0  0  0
    1.5241   -3.7938   -0.9636 H   0  0  0  0  0  0  0  0  0  0  0  0
    1.5886   -2.6566    0.2830 H   0  0  0  0  0  0  0  0  0  0  0  0
    4.0794   -0.9758   -0.3535 H   0  0  0  0  0  0  0  0  0  0  0  0
    3.1793   -3.7694   -2.6444 H   0  0  0  0  0  0  0  0  0  0  0  0
  1  2  1  0
  1 26  1  0
  1 27  1  0
  1 28  1  0
  2  3  1  0
  3  8  2  0
  3  4  1  0
  4  5  2  0
  4 29  1  0
  5  6  1  0
  5 30  1  0
  6 24  1  0
  6  7  2  0
  7 17  1  0
  7  8  1  0
  8  9  1  0
  9 10  1  0
 10 18  1  0
 10 11  1  0
 10 31  1  6
 11 12  1  0
 11 13  1  0
 11 32  1  1
 12 33  1  0
 13 25  1  0
 13 14  1  0
 13 34  1  6
 14 15  1  0
 15 16  2  0
 15 17  1  0
 17 18  1  0
 17 35  1  6
 18 25  1  0
 18 19  1  6
 19 20  1  0
 19 36  1  0
 19 37  1  0
 20 21  1  0
 20 38  1  0
 20 39  1  0
 21 22  1  0
 21 23  1  0
 21 47  1  6
 22 40  1  0
 22 41  1  0
 22 42  1  0
 23 24  1  0
 23 25  1  0
 23 43  1  6
 24 44  1  0
 24 45  1  0
 25 46  1  6
M  CHG  1  21   1
M  END
>  <i_m_ct_stereo_status>  (111) 
1

>  <s_m_source_file>  (111) 
/var/tmp/pbs.5076255.sched01/tmpvsf1hu0j/0g1dnczxv.sdf

>  <i_m_source_file_index>  (111) 
46

>  <i_lp_mmshare_version>  (111) 
48012

>  <i_f3d_flags>  (111) 
0

>  <s_epik_input>  (111) 
W0NIM11PYzFbY0hdW2NIXWMoYzJjMU9bQ0BASF0zQzQ1NilbQ0gyXVtDQEBIXShOKFtDSDNdKVtDSDJdW0NIMl01KVtDSF02W0NASF0oW0NAQEhdM1tPSF0pT0MoPU8pW0NASF0yNA==

>  <s_epik_cmdline>  (111) 
J2VwaWtfcHl0aG9uJywgJy1waHQnLCAnMi4wJywgJy1waCcsICc3LjAnLCAnLXRuJywgJzgnLCAnLW1hJywgJzIwMCcsICctaW1hZScsICc8aW5maWxlLm1hZT4nLCAnLW9tYWUnLCAnPG91dGZpbGUubWFlPic=

>  <r_lp_tautomer_probability>  (111) 
1

>  <r_epik_Ionization_Penalty>  (111) 
0.102957

>  <r_epik_Ionization_Penalty_Charging>  (111) 
0.102879

>  <r_epik_Ionization_Penalty_Neutral>  (111) 
7.78899e-05

>  <r_epik_State_Penalty>  (111) 
0.0928267

>  <r_epik_Charging_Adjusted_Penalty>  (111) 
0.195706

>  <i_epik_Tot_Q>  (111) 
1

>  <i_epik_Tot_abs_Q>  (111) 
1

>  <s_epik_Chemistry_Notes>  (111) 
This compound has an ester and may undergo hydrolysis at high or low pH.

>  <s_lp_Force_Field>  (111) 
OPLS3e

>  <r_lp_Energy>  (111) 
412.828

>  <b_lp_Chiralities_Consistent>  (111) 
1

>  <s_lp_Variant>  (111) 
38:0-1

>  <s_i_glide_gridfile>  (111) 
pfpi4k_grid

>  <i_i_glide_lignum>  (111) 
46

>  <i_i_glide_rotatable_bonds>  (111) 
2

>  <r_i_docking_score>  (111) 
-3.71715

>  <r_i_glide_ligand_efficiency>  (111) 
-0.148686

>  <r_i_glide_ligand_efficiency_sa>  (111) 
-0.434761

>  <r_i_glide_ligand_efficiency_ln>  (111) 
-0.881077

>  <r_i_glide_gscore>  (111) 
-3.71715

>  <r_i_glide_lipo>  (111) 
-0.665994

>  <r_i_glide_hbond>  (111) 
-0.094717

>  <r_i_glide_metal>  (111) 
-0

>  <r_i_glide_rewards>  (111) 
-1.08966

>  <r_i_glide_evdw>  (111) 
-19.9422

>  <r_i_glide_ecoul>  (111) 
-5.65189

>  <r_i_glide_erotb>  (111) 
0

>  <r_i_glide_esite>  (111) 
-0.0218887

>  <r_i_glide_emodel>  (111) 
-31.4948

>  <r_i_glide_energy>  (111) 
-25.5941

>  <r_i_glide_einternal>  (111) 
0.331689

>  <r_i_glide_intrahb_reward>  (111) 
-0

>  <i_i_glide_confnum>  (111) 
2

>  <i_i_glide_posenum>  (111) 
30

>  <r_i_glide_eff_state_penalty>  (111) 
0

>  <ligand_id>  (111) 
38

>  <original_smiles>  (111) 
COc1ccc2c3c1OC1C(O)C4OC(=O)C3C13CCN(C)C(C2)C43

>  <smiles>  (111) 
[H]OC1([H])C2([H])OC(=O)C3([H])c4c5c(OC([H])([H])[H])c([H])c([H])c4C([H])([H])C4([H])C2([H])C3(C([H])([H])C([H])([H])[N+]4([H])C([H])([H])[H])C1([H])O5

$$$$
38:0:2
     RDKit          3D

 47 52  0  0  1  0  0  0  0  0999 V2000
    1.6575   -1.1879    4.7607 C   0  0  0  0  0  0  0  0  0  0  0  0
    2.6317   -1.9375    4.0432 O   0  0  0  0  0  0  0  0  0  0  0  0
    3.0756   -1.4109    2.8493 C   0  0  0  0  0  0  0  0  0  0  0  0
    2.6098   -0.2246    2.2499 C   0  0  0  0  0  0  0  0  0  0  0  0
    2.8932    0.1211    0.9073 C   0  0  0  0  0  0  0  0  0  0  0  0
    3.8139   -0.6470    0.1313 C   0  0  0  0  0  0  0  0  0  0  0  0
    4.4202   -1.6175    0.9254 C   0  0  0  0  0  0  0  0  0  0  0  0
    3.9971   -2.2444    2.1272 C   0  0  0  0  0  0  0  0  0  0  0  0
    4.1186   -3.6300    2.3109 O   0  0  0  0  0  0  0  0  0  0  0  0
    4.1060   -4.5060    1.0943 C   0  0  1  0  0  0  0  0  0  0  0  0
    4.9028   -5.5591    0.3012 C   0  0  1  0  0  0  0  0  0  0  0  0
    4.0289   -6.6134    0.0205 O   0  0  0  0  0  0  0  0  0  0  0  0
    5.3355   -4.8029   -1.0247 C   0  0  2  0  0  0  0  0  0  0  0  0
    6.5613   -4.1342   -0.5971 O   0  0  0  0  0  0  0  0  0  0  0  0
    6.4834   -3.0787    0.2316 C   0  0  0  0  0  0  0  0  0  0  0  0
    7.3976   -2.5684    0.8629 O   0  0  0  0  0  0  0  0  0  0  0  0
    5.0550   -2.5699    0.1235 C   0  0  1  0  0  0  0  0  0  0  0  0
    3.8639   -3.5909   -0.0944 C   0  0  2  0  0  0  0  0  0  0  0  0
    2.2532   -3.5375   -0.0636 C   0  0  0  0  0  0  0  0  0  0  0  0
    1.5486   -3.6169   -1.4950 C   0  0  0  0  0  0  0  0  0  0  0  0
    2.2236   -2.7035   -2.4971 N   0  0  2  0  0  0  0  0  0  0  0  0
    2.1603   -3.1648   -3.9021 C   0  0  0  0  0  0  0  0  0  0  0  0
    3.6084   -2.3837   -2.0695 C   0  0  2  0  0  0  0  0  0  0  0  0
    3.9157   -0.8626   -1.4918 C   0  0  0  0  0  0  0  0  0  0  0  0
    4.1560   -3.8702   -1.5107 C   0  0  2  0  0  0  0  0  0  0  0  0
    1.4336   -1.7179    5.6850 H   0  0  0  0  0  0  0  0  0  0  0  0
    0.7207   -1.0917    4.2084 H   0  0  0  0  0  0  0  0  0  0  0  0
    2.0185   -0.1949    5.0347 H   0  0  0  0  0  0  0  0  0  0  0  0
    1.8609    0.3845    2.7545 H   0  0  0  0  0  0  0  0  0  0  0  0
    2.2866    0.8969    0.4934 H   0  0  0  0  0  0  0  0  0  0  0  0
    5.0651   -4.5001    1.5927 H   0  0  0  0  0  0  0  0  0  0  0  0
    5.7476   -6.0459    0.8045 H   0  0  0  0  0  0  0  0  0  0  0  0
    3.5273   -6.3772   -0.7534 H   0  0  0  0  0  0  0  0  0  0  0  0
    5.3763   -5.4777   -1.8774 H   0  0  0  0  0  0  0  0  0  0  0  0
    5.5390   -2.1050   -0.7321 H   0  0  0  0  0  0  0  0  0  0  0  0
    1.8751   -4.4074    0.4643 H   0  0  0  0  0  0  0  0  0  0  0  0
    1.8986   -2.6634    0.4783 H   0  0  0  0  0  0  0  0  0  0  0  0
    1.5771   -4.6410   -1.8540 H   0  0  0  0  0  0  0  0  0  0  0  0
    0.4962   -3.3525   -1.4905 H   0  0  0  0  0  0  0  0  0  0  0  0
    2.6419   -4.1446   -4.0205 H   0  0  0  0  0  0  0  0  0  0  0  0
    2.6136   -2.4476   -4.5906 H   0  0  0  0  0  0  0  0  0  0  0  0
    1.1297   -3.2087   -4.2361 H   0  0  0  0  0  0  0  0  0  0  0  0
    2.8864   -1.9589   -1.4245 H   0  0  0  0  0  0  0  0  0  0  0  0
    3.2137   -0.2688   -2.0974 H   0  0  0  0  0  0  0  0  0  0  0  0
    4.9167   -0.5142   -1.7970 H   0  0  0  0  0  0  0  0  0  0  0  0
    4.9738   -3.5249   -2.1491 H   0  0  0  0  0  0  0  0  0  0  0  0
    1.7080   -1.8265   -2.4500 H   0  0  0  0  0  0  0  0  0  0  0  0
  1  2  1  0
  1 26  1  0
  1 27  1  0
  1 28  1  0
  2  3  1  0
  3  8  2  0
  3  4  1  0
  4  5  2  0
  4 29  1  0
  5  6  1  0
  5 30  1  0
  6 24  1  0
  6  7  2  0
  7 17  1  0
  7  8  1  0
  8  9  1  0
  9 10  1  0
 10 18  1  0
 10 11  1  0
 10 31  1  1
 11 12  1  0
 11 13  1  0
 11 32  1  1
 12 33  1  0
 13 25  1  0
 13 14  1  0
 13 34  1  6
 14 15  1  0
 15 16  2  0
 15 17  1  0
 17 18  1  0
 17 35  1  6
 18 25  1  0
 18 19  1  6
 19 20  1  0
 19 36  1  0
 19 37  1  0
 20 21  1  0
 20 38  1  0
 20 39  1  0
 21 22  1  0
 21 23  1  0
 21 47  1  6
 22 40  1  0
 22 41  1  0
 22 42  1  0
 23 24  1  0
 23 25  1  0
 23 43  1  6
 24 44  1  0
 24 45  1  0
 25 46  1  6
M  CHG  1  21   1
M  END
>  <i_m_ct_stereo_status>  (112) 
1

>  <s_m_source_file>  (112) 
/var/tmp/pbs.5076255.sched01/tmpvsf1hu0j/0g1dnczxv.sdf

>  <i_m_source_file_index>  (112) 
46

>  <i_lp_mmshare_version>  (112) 
48012

>  <i_f3d_flags>  (112) 
0

>  <s_epik_input>  (112) 
W0NIM11PYzFbY0hdW2NIXWMoYzJjMU9bQ0BASF0zQzQ1NilbQ0gyXVtDQEBIXShOKFtDSDNdKVtDSDJdW0NIMl01KVtDSF02W0NASF0oW0NAQEhdM1tPSF0pT0MoPU8pW0NASF0yNA==

>  <s_epik_cmdline>  (112) 
J2VwaWtfcHl0aG9uJywgJy1waHQnLCAnMi4wJywgJy1waCcsICc3LjAnLCAnLXRuJywgJzgnLCAnLW1hJywgJzIwMCcsICctaW1hZScsICc8aW5maWxlLm1hZT4nLCAnLW9tYWUnLCAnPG91dGZpbGUubWFlPic=

>  <r_lp_tautomer_probability>  (112) 
1

>  <r_epik_Ionization_Penalty>  (112) 
0.102957

>  <r_epik_Ionization_Penalty_Charging>  (112) 
0.102879

>  <r_epik_Ionization_Penalty_Neutral>  (112) 
7.78899e-05

>  <r_epik_State_Penalty>  (112) 
0.0928267

>  <r_epik_Charging_Adjusted_Penalty>  (112) 
0.195706

>  <i_epik_Tot_Q>  (112) 
1

>  <i_epik_Tot_abs_Q>  (112) 
1

>  <s_epik_Chemistry_Notes>  (112) 
This compound has an ester and may undergo hydrolysis at high or low pH.

>  <s_lp_Force_Field>  (112) 
OPLS3e

>  <r_lp_Energy>  (112) 
412.828

>  <b_lp_Chiralities_Consistent>  (112) 
1

>  <s_lp_Variant>  (112) 
38:0-1

>  <s_i_glide_gridfile>  (112) 
pfpi4k_grid

>  <i_i_glide_lignum>  (112) 
46

>  <i_i_glide_rotatable_bonds>  (112) 
2

>  <r_i_docking_score>  (112) 
-3.34071

>  <r_i_glide_ligand_efficiency>  (112) 
-0.133628

>  <r_i_glide_ligand_efficiency_sa>  (112) 
-0.390732

>  <r_i_glide_ligand_efficiency_ln>  (112) 
-0.791849

>  <r_i_glide_gscore>  (112) 
-3.34071

>  <r_i_glide_lipo>  (112) 
-0.279711

>  <r_i_glide_hbond>  (112) 
-0.433792

>  <r_i_glide_metal>  (112) 
-0

>  <r_i_glide_rewards>  (112) 
-1.18007

>  <r_i_glide_evdw>  (112) 
-6.45515

>  <r_i_glide_ecoul>  (112) 
-7.34411

>  <r_i_glide_erotb>  (112) 
0

>  <r_i_glide_esite>  (112) 
-0.022769

>  <r_i_glide_emodel>  (112) 
-17.4948

>  <r_i_glide_energy>  (112) 
-13.7993

>  <r_i_glide_einternal>  (112) 
0.368002

>  <r_i_glide_intrahb_reward>  (112) 
-0

>  <i_i_glide_confnum>  (112) 
2

>  <i_i_glide_posenum>  (112) 
12

>  <r_i_glide_eff_state_penalty>  (112) 
0

>  <ligand_id>  (112) 
38

>  <original_smiles>  (112) 
COc1ccc2c3c1OC1C(O)C4OC(=O)C3C13CCN(C)C(C2)C43

>  <smiles>  (112) 
[H]OC1([H])C2([H])OC(=O)C3([H])c4c5c(OC([H])([H])[H])c([H])c([H])c4C([H])([H])C4([H])C2([H])C3(C([H])([H])C([H])([H])[N+]4([H])C([H])([H])[H])C1([H])O5

$$$$
38:1:0
     RDKit          3D

 47 52  0  0  1  0  0  0  0  0999 V2000
    2.8444    0.1190    4.6192 C   0  0  0  0  0  0  0  0  0  0  0  0
    3.0911   -1.2240    4.2153 O   0  0  0  0  0  0  0  0  0  0  0  0
    4.0927   -1.4693    3.2981 C   0  0  0  0  0  0  0  0  0  0  0  0
    4.8980   -0.4408    2.7101 C   0  0  0  0  0  0  0  0  0  0  0  0
    5.7683   -0.6864    1.5947 C   0  0  0  0  0  0  0  0  0  0  0  0
    5.9665   -2.0102    1.1477 C   0  0  0  0  0  0  0  0  0  0  0  0
    5.2900   -2.9416    1.9355 C   0  0  0  0  0  0  0  0  0  0  0  0
    4.2380   -2.8044    2.8508 C   0  0  0  0  0  0  0  0  0  0  0  0
    3.2791   -3.8536    2.9271 O   0  0  0  0  0  0  0  0  0  0  0  0
    2.8233   -4.4356    1.6215 C   0  0  2  0  0  0  0  0  0  0  0  0
    2.8049   -5.9183    1.1931 C   0  0  1  0  0  0  0  0  0  0  0  0
    1.5599   -6.2134    0.5868 O   0  0  0  0  0  0  0  0  0  0  0  0
    4.0000   -6.0891    0.1595 C   0  0  2  0  0  0  0  0  0  0  0  0
    5.0614   -6.4640    1.0632 O   0  0  0  0  0  0  0  0  0  0  0  0
    5.4723   -5.5189    1.9275 C   0  0  0  0  0  0  0  0  0  0  0  0
    6.1153   -5.6770    2.9613 O   0  0  0  0  0  0  0  0  0  0  0  0
    5.1496   -4.1656    1.3051 C   0  0  1  0  0  0  0  0  0  0  0  0
    3.7697   -3.9422    0.5304 C   0  0  2  0  0  0  0  0  0  0  0  0
    2.9972   -2.6440   -0.0519 C   0  0  0  0  0  0  0  0  0  0  0  0
    3.0454   -2.5253   -1.6230 C   0  0  0  0  0  0  0  0  0  0  0  0
    4.4410   -2.7280   -2.1741 N   0  0  2  0  0  0  0  0  0  0  0  0
    4.4658   -3.3255   -3.5341 C   0  0  0  0  0  0  0  0  0  0  0  0
    5.2822   -3.4569   -1.1845 C   0  0  2  0  0  0  0  0  0  0  0  0
    6.4143   -2.5742   -0.2990 C   0  0  0  0  0  0  0  0  0  0  0  0
    4.2239   -4.6913   -0.6668 C   0  0  2  0  0  0  0  0  0  0  0  0
    2.0414    0.1261    5.3557 H   0  0  0  0  0  0  0  0  0  0  0  0
    2.5198    0.7485    3.7884 H   0  0  0  0  0  0  0  0  0  0  0  0
    3.7150    0.5728    5.0948 H   0  0  0  0  0  0  0  0  0  0  0  0
    4.7676    0.5775    3.0143 H   0  0  0  0  0  0  0  0  0  0  0  0
    6.1995    0.1401    1.0433 H   0  0  0  0  0  0  0  0  0  0  0  0
    1.8087   -4.0811    1.5331 H   0  0  0  0  0  0  0  0  0  0  0  0
    2.8837   -6.5641    2.0699 H   0  0  0  0  0  0  0  0  0  0  0  0
    1.5157   -7.1588    0.4939 H   0  0  0  0  0  0  0  0  0  0  0  0
    3.8170   -6.9154   -0.5166 H   0  0  0  0  0  0  0  0  0  0  0  0
    6.0553   -4.4026    0.7626 H   0  0  0  0  0  0  0  0  0  0  0  0
    1.9351   -2.6592    0.1492 H   0  0  0  0  0  0  0  0  0  0  0  0
    3.3516   -1.7189    0.4037 H   0  0  0  0  0  0  0  0  0  0  0  0
    2.3841   -3.2813   -2.0527 H   0  0  0  0  0  0  0  0  0  0  0  0
    2.6709   -1.5564   -1.9594 H   0  0  0  0  0  0  0  0  0  0  0  0
    4.0488   -4.3237   -3.5480 H   0  0  0  0  0  0  0  0  0  0  0  0
    5.4888   -3.3926   -3.9110 H   0  0  0  0  0  0  0  0  0  0  0  0
    3.8807   -2.7187   -4.2264 H   0  0  0  0  0  0  0  0  0  0  0  0
    5.0435   -2.4729   -0.8384 H   0  0  0  0  0  0  0  0  0  0  0  0
    6.7723   -1.7165   -0.8773 H   0  0  0  0  0  0  0  0  0  0  0  0
    7.3210   -3.1650   -0.1759 H   0  0  0  0  0  0  0  0  0  0  0  0
    5.1454   -5.2219   -0.8664 H   0  0  0  0  0  0  0  0  0  0  0  0
    4.8461   -1.8053   -2.2762 H   0  0  0  0  0  0  0  0  0  0  0  0
  1  2  1  0
  1 26  1  0
  1 27  1  0
  1 28  1  0
  2  3  1  0
  3  8  2  0
  3  4  1  0
  4  5  2  0
  4 29  1  0
  5  6  1  0
  5 30  1  0
  6 24  1  0
  6  7  2  0
  7 17  1  0
  7  8  1  0
  8  9  1  0
  9 10  1  0
 10 18  1  0
 10 11  1  0
 10 31  1  6
 11 12  1  0
 11 13  1  0
 11 32  1  1
 12 33  1  0
 13 25  1  0
 13 14  1  0
 13 34  1  6
 14 15  1  0
 15 16  2  0
 15 17  1  0
 17 18  1  0
 17 35  1  6
 18 25  1  0
 18 19  1  6
 19 20  1  0
 19 36  1  0
 19 37  1  0
 20 21  1  0
 20 38  1  0
 20 39  1  0
 21 22  1  0
 21 23  1  0
 21 47  1  6
 22 40  1  0
 22 41  1  0
 22 42  1  0
 23 24  1  0
 23 25  1  0
 23 43  1  6
 24 44  1  0
 24 45  1  0
 25 46  1  6
M  CHG  1  21   1
M  END
>  <i_m_ct_stereo_status>  (113) 
1

>  <s_m_source_file>  (113) 
/var/tmp/pbs.5076255.sched01/tmpn9kf4o8v/46f5dlbpu8.sdf

>  <i_m_source_file_index>  (113) 
1

>  <i_lp_mmshare_version>  (113) 
48012

>  <i_f3d_flags>  (113) 
0

>  <s_epik_input>  (113) 
W0NIM11PYzFbY0hdW2NIXWMoYzJjMU9bQ0BASF0zQzQ1NilbQ0gyXVtDQEBIXShOKFtDSDNdKVtDSDJdW0NIMl01KVtDSF02W0NASF0oW0NAQEhdM1tPSF0pT0MoPU8pW0NASF0yNA==

>  <s_epik_cmdline>  (113) 
J2VwaWtfcHl0aG9uJywgJy1waHQnLCAnMi4wJywgJy1waCcsICc3LjAnLCAnLXRuJywgJzgnLCAnLW1hJywgJzIwMCcsICctaW1hZScsICc8aW5maWxlLm1hZT4nLCAnLW9tYWUnLCAnPG91dGZpbGUubWFlPic=

>  <r_lp_tautomer_probability>  (113) 
1

>  <r_epik_Ionization_Penalty>  (113) 
0.102957

>  <r_epik_Ionization_Penalty_Charging>  (113) 
0.102879

>  <r_epik_Ionization_Penalty_Neutral>  (113) 
7.78899e-05

>  <r_epik_State_Penalty>  (113) 
0.0928267

>  <r_epik_Charging_Adjusted_Penalty>  (113) 
0.195706

>  <i_epik_Tot_Q>  (113) 
1

>  <i_epik_Tot_abs_Q>  (113) 
1

>  <s_epik_Chemistry_Notes>  (113) 
This compound has an ester and may undergo hydrolysis at high or low pH.

>  <s_lp_Force_Field>  (113) 
OPLS3e

>  <r_lp_Energy>  (113) 
374.36

>  <b_lp_Chiralities_Consistent>  (113) 
1

>  <s_lp_Variant>  (113) 
38:0-2

>  <s_i_glide_gridfile>  (113) 
pfpi4k_grid

>  <i_i_glide_lignum>  (113) 
1

>  <i_i_glide_rotatable_bonds>  (113) 
2

>  <r_i_docking_score>  (113) 
-3.54668

>  <r_i_glide_ligand_efficiency>  (113) 
-0.141867

>  <r_i_glide_ligand_efficiency_sa>  (113) 
-0.414823

>  <r_i_glide_ligand_efficiency_ln>  (113) 
-0.84067

>  <r_i_glide_gscore>  (113) 
-3.54668

>  <r_i_glide_lipo>  (113) 
-0.764816

>  <r_i_glide_hbond>  (113) 
-0.0671771

>  <r_i_glide_metal>  (113) 
-0

>  <r_i_glide_rewards>  (113) 
-1.10845

>  <r_i_glide_evdw>  (113) 
-20.2322

>  <r_i_glide_ecoul>  (113) 
-3.96423

>  <r_i_glide_erotb>  (113) 
0

>  <r_i_glide_esite>  (113) 
0

>  <r_i_glide_emodel>  (113) 
-29.411

>  <r_i_glide_energy>  (113) 
-24.1964

>  <r_i_glide_einternal>  (113) 
0.380404

>  <r_i_glide_intrahb_reward>  (113) 
-0

>  <i_i_glide_confnum>  (113) 
1

>  <i_i_glide_posenum>  (113) 
1

>  <r_i_glide_eff_state_penalty>  (113) 
0

>  <ligand_id>  (113) 
38

>  <original_smiles>  (113) 
COc1ccc2c3c1OC1C(O)C4OC(=O)C3C13CCN(C)C(C2)C43

>  <smiles>  (113) 
[H]OC1([H])C2([H])OC(=O)C3([H])c4c5c(OC([H])([H])[H])c([H])c([H])c4C([H])([H])C4([H])C2([H])C3(C([H])([H])C([H])([H])[N+]4([H])C([H])([H])[H])C1([H])O5

$$$$
38:1:1
     RDKit          3D

 47 52  0  0  1  0  0  0  0  0999 V2000
    3.4955    0.6650   -4.4523 C   0  0  0  0  0  0  0  0  0  0  0  0
    4.2137    0.2541   -3.3086 O   0  0  0  0  0  0  0  0  0  0  0  0
    4.0923   -1.0396   -2.8792 C   0  0  0  0  0  0  0  0  0  0  0  0
    3.0428   -1.9211   -3.3241 C   0  0  0  0  0  0  0  0  0  0  0  0
    2.7720   -3.1524   -2.6757 C   0  0  0  0  0  0  0  0  0  0  0  0
    3.6437   -3.6136   -1.6780 C   0  0  0  0  0  0  0  0  0  0  0  0
    4.7625   -2.7915   -1.5071 C   0  0  0  0  0  0  0  0  0  0  0  0
    4.9771   -1.4614   -1.8559 C   0  0  0  0  0  0  0  0  0  0  0  0
    5.7329   -0.6593   -0.9534 O   0  0  0  0  0  0  0  0  0  0  0  0
    5.4274   -0.8183    0.5122 C   0  0  2  0  0  0  0  0  0  0  0  0
    6.4100   -1.1297    1.6545 C   0  0  1  0  0  0  0  0  0  0  0  0
    6.1269   -0.3725    2.8273 O   0  0  0  0  0  0  0  0  0  0  0  0
    6.1866   -2.6501    2.0056 C   0  0  2  0  0  0  0  0  0  0  0  0
    7.1520   -3.3043    1.1500 O   0  0  0  0  0  0  0  0  0  0  0  0
    6.9239   -3.2159   -0.1694 C   0  0  0  0  0  0  0  0  0  0  0  0
    7.7157   -3.3536   -1.0885 O   0  0  0  0  0  0  0  0  0  0  0  0
    5.4159   -3.0493   -0.3228 C   0  0  1  0  0  0  0  0  0  0  0  0
    4.6018   -2.0889    0.6664 C   0  0  2  0  0  0  0  0  0  0  0  0
    3.0986   -1.5098    0.6998 C   0  0  0  0  0  0  0  0  0  0  0  0
    2.1682   -2.1803    1.7881 C   0  0  0  0  0  0  0  0  0  0  0  0
    2.2766   -3.6897    1.7713 N   0  0  2  0  0  0  0  0  0  0  0  0
    2.0475   -4.3262    3.0892 C   0  0  0  0  0  0  0  0  0  0  0  0
    3.5231   -4.1192    1.1026 C   0  0  2  0  0  0  0  0  0  0  0  0
    3.4304   -4.6711   -0.4666 C   0  0  0  0  0  0  0  0  0  0  0  0
    4.6465   -3.0531    1.7886 C   0  0  2  0  0  0  0  0  0  0  0  0
    3.7371    1.7084   -4.6494 H   0  0  0  0  0  0  0  0  0  0  0  0
    2.4082    0.6099   -4.3180 H   0  0  0  0  0  0  0  0  0  0  0  0
    3.7775    0.0882   -5.3396 H   0  0  0  0  0  0  0  0  0  0  0  0
    2.3381   -1.6007   -4.0657 H   0  0  0  0  0  0  0  0  0  0  0  0
    1.8725   -3.7116   -2.9092 H   0  0  0  0  0  0  0  0  0  0  0  0
    4.9355    0.1109    0.7869 H   0  0  0  0  0  0  0  0  0  0  0  0
    7.4312   -0.9188    1.3300 H   0  0  0  0  0  0  0  0  0  0  0  0
    5.2338   -0.5157    3.1000 H   0  0  0  0  0  0  0  0  0  0  0  0
    6.3634   -2.7571    3.0565 H   0  0  0  0  0  0  0  0  0  0  0  0
    5.4739   -4.1179   -0.1413 H   0  0  0  0  0  0  0  0  0  0  0  0
    3.0404   -0.4512    0.9548 H   0  0  0  0  0  0  0  0  0  0  0  0
    2.6429   -1.5962   -0.2834 H   0  0  0  0  0  0  0  0  0  0  0  0
    2.4663   -1.8191    2.7711 H   0  0  0  0  0  0  0  0  0  0  0  0
    1.1329   -1.8762    1.6387 H   0  0  0  0  0  0  0  0  0  0  0  0
    2.8129   -4.0491    3.8168 H   0  0  0  0  0  0  0  0  0  0  0  0
    2.0375   -5.4167    3.0054 H   0  0  0  0  0  0  0  0  0  0  0  0
    1.0777   -4.0233    3.4885 H   0  0  0  0  0  0  0  0  0  0  0  0
    2.8472   -3.6709    0.4126 H   0  0  0  0  0  0  0  0  0  0  0  0
    2.4667   -5.1655   -0.6541 H   0  0  0  0  0  0  0  0  0  0  0  0
    4.1369   -5.4974   -0.5983 H   0  0  0  0  0  0  0  0  0  0  0  0
    5.1272   -4.0298    1.8855 H   0  0  0  0  0  0  0  0  0  0  0  0
    1.5325   -4.0134    1.1768 H   0  0  0  0  0  0  0  0  0  0  0  0
  1  2  1  0
  1 26  1  0
  1 27  1  0
  1 28  1  0
  2  3  1  0
  3  8  2  0
  3  4  1  0
  4  5  2  0
  4 29  1  0
  5  6  1  0
  5 30  1  0
  6 24  1  0
  6  7  2  0
  7 17  1  0
  7  8  1  0
  8  9  1  0
  9 10  1  0
 10 18  1  0
 10 11  1  0
 10 31  1  1
 11 12  1  0
 11 13  1  0
 11 32  1  6
 12 33  1  0
 13 25  1  0
 13 14  1  0
 13 34  1  1
 14 15  1  0
 15 16  2  0
 15 17  1  0
 17 18  1  0
 17 35  1  1
 18 25  1  0
 18 19  1  6
 19 20  1  0
 19 36  1  0
 19 37  1  0
 20 21  1  0
 20 38  1  0
 20 39  1  0
 21 22  1  0
 21 23  1  0
 21 47  1  6
 22 40  1  0
 22 41  1  0
 22 42  1  0
 23 24  1  0
 23 25  1  0
 23 43  1  1
 24 44  1  0
 24 45  1  0
 25 46  1  1
M  CHG  1  21   1
M  END
>  <i_m_ct_stereo_status>  (114) 
1

>  <s_m_source_file>  (114) 
/var/tmp/pbs.5076255.sched01/tmpn9kf4o8v/46f5dlbpu8.sdf

>  <i_m_source_file_index>  (114) 
1

>  <i_lp_mmshare_version>  (114) 
48012

>  <i_f3d_flags>  (114) 
0

>  <s_epik_input>  (114) 
W0NIM11PYzFbY0hdW2NIXWMoYzJjMU9bQ0BASF0zQzQ1NilbQ0gyXVtDQEBIXShOKFtDSDNdKVtDSDJdW0NIMl01KVtDSF02W0NASF0oW0NAQEhdM1tPSF0pT0MoPU8pW0NASF0yNA==

>  <s_epik_cmdline>  (114) 
J2VwaWtfcHl0aG9uJywgJy1waHQnLCAnMi4wJywgJy1waCcsICc3LjAnLCAnLXRuJywgJzgnLCAnLW1hJywgJzIwMCcsICctaW1hZScsICc8aW5maWxlLm1hZT4nLCAnLW9tYWUnLCAnPG91dGZpbGUubWFlPic=

>  <r_lp_tautomer_probability>  (114) 
1

>  <r_epik_Ionization_Penalty>  (114) 
0.102957

>  <r_epik_Ionization_Penalty_Charging>  (114) 
0.102879

>  <r_epik_Ionization_Penalty_Neutral>  (114) 
7.78899e-05

>  <r_epik_State_Penalty>  (114) 
0.0928267

>  <r_epik_Charging_Adjusted_Penalty>  (114) 
0.195706

>  <i_epik_Tot_Q>  (114) 
1

>  <i_epik_Tot_abs_Q>  (114) 
1

>  <s_epik_Chemistry_Notes>  (114) 
This compound has an ester and may undergo hydrolysis at high or low pH.

>  <s_lp_Force_Field>  (114) 
OPLS3e

>  <r_lp_Energy>  (114) 
374.36

>  <b_lp_Chiralities_Consistent>  (114) 
1

>  <s_lp_Variant>  (114) 
38:0-2

>  <s_i_glide_gridfile>  (114) 
pfpi4k_grid

>  <i_i_glide_lignum>  (114) 
1

>  <i_i_glide_rotatable_bonds>  (114) 
2

>  <r_i_docking_score>  (114) 
-3.50044

>  <r_i_glide_ligand_efficiency>  (114) 
-0.140018

>  <r_i_glide_ligand_efficiency_sa>  (114) 
-0.409414

>  <r_i_glide_ligand_efficiency_ln>  (114) 
-0.829709

>  <r_i_glide_gscore>  (114) 
-3.50044

>  <r_i_glide_lipo>  (114) 
-0.485106

>  <r_i_glide_hbond>  (114) 
-0.0901711

>  <r_i_glide_metal>  (114) 
-0

>  <r_i_glide_rewards>  (114) 
-1.22266

>  <r_i_glide_evdw>  (114) 
-18.2389

>  <r_i_glide_ecoul>  (114) 
-5.17407

>  <r_i_glide_erotb>  (114) 
0

>  <r_i_glide_esite>  (114) 
-0.0144496

>  <r_i_glide_emodel>  (114) 
-28.3433

>  <r_i_glide_energy>  (114) 
-23.413

>  <r_i_glide_einternal>  (114) 
0.363396

>  <r_i_glide_intrahb_reward>  (114) 
-0

>  <i_i_glide_confnum>  (114) 
1

>  <i_i_glide_posenum>  (114) 
14

>  <r_i_glide_eff_state_penalty>  (114) 
0

>  <ligand_id>  (114) 
38

>  <original_smiles>  (114) 
COc1ccc2c3c1OC1C(O)C4OC(=O)C3C13CCN(C)C(C2)C43

>  <smiles>  (114) 
[H]OC1([H])C2([H])OC(=O)C3([H])c4c5c(OC([H])([H])[H])c([H])c([H])c4C([H])([H])C4([H])C2([H])C3(C([H])([H])C([H])([H])[N+]4([H])C([H])([H])[H])C1([H])O5

$$$$
38:1:2
     RDKit          3D

 47 52  0  0  1  0  0  0  0  0999 V2000
    2.0900   -1.2035    5.1010 C   0  0  0  0  0  0  0  0  0  0  0  0
    2.9372   -2.0684    4.3599 O   0  0  0  0  0  0  0  0  0  0  0  0
    3.4329   -1.6345    3.1505 C   0  0  0  0  0  0  0  0  0  0  0  0
    3.0786   -0.3649    2.5595 C   0  0  0  0  0  0  0  0  0  0  0  0
    3.4130   -0.0322    1.2152 C   0  0  0  0  0  0  0  0  0  0  0  0
    4.2284   -0.8875    0.4488 C   0  0  0  0  0  0  0  0  0  0  0  0
    4.6717   -1.9890    1.2081 C   0  0  0  0  0  0  0  0  0  0  0  0
    4.2287   -2.5343    2.4223 C   0  0  0  0  0  0  0  0  0  0  0  0
    4.3020   -3.9567    2.5854 O   0  0  0  0  0  0  0  0  0  0  0  0
    3.8843   -4.7798    1.4098 C   0  0  2  0  0  0  0  0  0  0  0  0
    4.6810   -5.8977    0.7385 C   0  0  1  0  0  0  0  0  0  0  0  0
    3.8725   -7.0204    0.4814 O   0  0  0  0  0  0  0  0  0  0  0  0
    5.1715   -5.2729   -0.6218 C   0  0  2  0  0  0  0  0  0  0  0  0
    6.4398   -4.7754   -0.1746 O   0  0  0  0  0  0  0  0  0  0  0  0
    6.4438   -3.7492    0.6405 C   0  0  0  0  0  0  0  0  0  0  0  0
    7.3897   -3.3358    1.2716 O   0  0  0  0  0  0  0  0  0  0  0  0
    5.1404   -3.0131    0.4193 C   0  0  1  0  0  0  0  0  0  0  0  0
    3.8061   -3.8489    0.1953 C   0  0  2  0  0  0  0  0  0  0  0  0
    2.2528   -3.4865    0.1231 C   0  0  0  0  0  0  0  0  0  0  0  0
    1.6326   -3.4856   -1.3473 C   0  0  0  0  0  0  0  0  0  0  0  0
    2.4848   -2.7163   -2.3152 N   0  0  2  0  0  0  0  0  0  0  0  0
    2.4019   -3.2047   -3.6995 C   0  0  0  0  0  0  0  0  0  0  0  0
    3.8556   -2.5995   -1.7901 C   0  0  2  0  0  0  0  0  0  0  0  0
    4.3590   -1.1352   -1.1628 C   0  0  0  0  0  0  0  0  0  0  0  0
    4.1395   -4.1792   -1.2028 C   0  0  2  0  0  0  0  0  0  0  0  0
    1.8242   -1.6912    6.0372 H   0  0  0  0  0  0  0  0  0  0  0  0
    1.1595   -0.9933    4.5739 H   0  0  0  0  0  0  0  0  0  0  0  0
    2.5809   -0.2633    5.3556 H   0  0  0  0  0  0  0  0  0  0  0  0
    2.4358    0.3202    3.0702 H   0  0  0  0  0  0  0  0  0  0  0  0
    2.9437    0.8353    0.7776 H   0  0  0  0  0  0  0  0  0  0  0  0
    2.9669   -5.2523    1.7462 H   0  0  0  0  0  0  0  0  0  0  0  0
    5.4862   -6.2688    1.3767 H   0  0  0  0  0  0  0  0  0  0  0  0
    3.2281   -6.7822   -0.1666 H   0  0  0  0  0  0  0  0  0  0  0  0
    5.2931   -6.0695   -1.3319 H   0  0  0  0  0  0  0  0  0  0  0  0
    5.6999   -2.6292   -0.4244 H   0  0  0  0  0  0  0  0  0  0  0  0
    1.7137   -4.2672    0.6431 H   0  0  0  0  0  0  0  0  0  0  0  0
    2.0326   -2.5529    0.6427 H   0  0  0  0  0  0  0  0  0  0  0  0
    1.5066   -4.5172   -1.6550 H   0  0  0  0  0  0  0  0  0  0  0  0
    0.6343   -3.0591   -1.3736 H   0  0  0  0  0  0  0  0  0  0  0  0
    2.7416   -4.2486   -3.7960 H   0  0  0  0  0  0  0  0  0  0  0  0
    2.9656   -2.5908   -4.3792 H   0  0  0  0  0  0  0  0  0  0  0  0
    1.3898   -3.1559   -4.0592 H   0  0  0  0  0  0  0  0  0  0  0  0
    3.1729   -2.0029   -1.1967 H   0  0  0  0  0  0  0  0  0  0  0  0
    3.8618   -0.2966   -1.6639 H   0  0  0  0  0  0  0  0  0  0  0  0
    5.4013   -0.9488   -1.4466 H   0  0  0  0  0  0  0  0  0  0  0  0
    5.0328   -3.9885   -1.8093 H   0  0  0  0  0  0  0  0  0  0  0  0
    2.0778   -1.7951   -2.2955 H   0  0  0  0  0  0  0  0  0  0  0  0
  1  2  1  0
  1 26  1  0
  1 27  1  0
  1 28  1  0
  2  3  1  0
  3  8  2  0
  3  4  1  0
  4  5  2  0
  4 29  1  0
  5  6  1  0
  5 30  1  0
  6 24  1  0
  6  7  2  0
  7 17  1  0
  7  8  1  0
  8  9  1  0
  9 10  1  0
 10 18  1  0
 10 11  1  0
 10 31  1  1
 11 12  1  0
 11 13  1  0
 11 32  1  1
 12 33  1  0
 13 25  1  0
 13 14  1  0
 13 34  1  6
 14 15  1  0
 15 16  2  0
 15 17  1  0
 17 18  1  0
 17 35  1  6
 18 25  1  0
 18 19  1  6
 19 20  1  0
 19 36  1  0
 19 37  1  0
 20 21  1  0
 20 38  1  0
 20 39  1  0
 21 22  1  0
 21 23  1  0
 21 47  1  6
 22 40  1  0
 22 41  1  0
 22 42  1  0
 23 24  1  0
 23 25  1  0
 23 43  1  6
 24 44  1  0
 24 45  1  0
 25 46  1  6
M  CHG  1  21   1
M  END
>  <i_m_ct_stereo_status>  (115) 
1

>  <s_m_source_file>  (115) 
/var/tmp/pbs.5076255.sched01/tmpn9kf4o8v/46f5dlbpu8.sdf

>  <i_m_source_file_index>  (115) 
1

>  <i_lp_mmshare_version>  (115) 
48012

>  <i_f3d_flags>  (115) 
0

>  <s_epik_input>  (115) 
W0NIM11PYzFbY0hdW2NIXWMoYzJjMU9bQ0BASF0zQzQ1NilbQ0gyXVtDQEBIXShOKFtDSDNdKVtDSDJdW0NIMl01KVtDSF02W0NASF0oW0NAQEhdM1tPSF0pT0MoPU8pW0NASF0yNA==

>  <s_epik_cmdline>  (115) 
J2VwaWtfcHl0aG9uJywgJy1waHQnLCAnMi4wJywgJy1waCcsICc3LjAnLCAnLXRuJywgJzgnLCAnLW1hJywgJzIwMCcsICctaW1hZScsICc8aW5maWxlLm1hZT4nLCAnLW9tYWUnLCAnPG91dGZpbGUubWFlPic=

>  <r_lp_tautomer_probability>  (115) 
1

>  <r_epik_Ionization_Penalty>  (115) 
0.102957

>  <r_epik_Ionization_Penalty_Charging>  (115) 
0.102879

>  <r_epik_Ionization_Penalty_Neutral>  (115) 
7.78899e-05

>  <r_epik_State_Penalty>  (115) 
0.0928267

>  <r_epik_Charging_Adjusted_Penalty>  (115) 
0.195706

>  <i_epik_Tot_Q>  (115) 
1

>  <i_epik_Tot_abs_Q>  (115) 
1

>  <s_epik_Chemistry_Notes>  (115) 
This compound has an ester and may undergo hydrolysis at high or low pH.

>  <s_lp_Force_Field>  (115) 
OPLS3e

>  <r_lp_Energy>  (115) 
374.36

>  <b_lp_Chiralities_Consistent>  (115) 
1

>  <s_lp_Variant>  (115) 
38:0-2

>  <s_i_glide_gridfile>  (115) 
pfpi4k_grid

>  <i_i_glide_lignum>  (115) 
1

>  <i_i_glide_rotatable_bonds>  (115) 
2

>  <r_i_docking_score>  (115) 
-3.08177

>  <r_i_glide_ligand_efficiency>  (115) 
-0.123271

>  <r_i_glide_ligand_efficiency_sa>  (115) 
-0.360446

>  <r_i_glide_ligand_efficiency_ln>  (115) 
-0.730472

>  <r_i_glide_gscore>  (115) 
-3.08177

>  <r_i_glide_lipo>  (115) 
-0.419865

>  <r_i_glide_hbond>  (115) 
-0.0837242

>  <r_i_glide_metal>  (115) 
-0

>  <r_i_glide_rewards>  (115) 
-1.19175

>  <r_i_glide_evdw>  (115) 
-11.8744

>  <r_i_glide_ecoul>  (115) 
-5.08464

>  <r_i_glide_erotb>  (115) 
0

>  <r_i_glide_esite>  (115) 
-0.0300137

>  <r_i_glide_emodel>  (115) 
-20.8096

>  <r_i_glide_energy>  (115) 
-16.9591

>  <r_i_glide_einternal>  (115) 
0.0532639

>  <r_i_glide_intrahb_reward>  (115) 
-0

>  <i_i_glide_confnum>  (115) 
2

>  <i_i_glide_posenum>  (115) 
32

>  <r_i_glide_eff_state_penalty>  (115) 
0

>  <ligand_id>  (115) 
38

>  <original_smiles>  (115) 
COc1ccc2c3c1OC1C(O)C4OC(=O)C3C13CCN(C)C(C2)C43

>  <smiles>  (115) 
[H]OC1([H])C2([H])OC(=O)C3([H])c4c5c(OC([H])([H])[H])c([H])c([H])c4C([H])([H])C4([H])C2([H])C3(C([H])([H])C([H])([H])[N+]4([H])C([H])([H])[H])C1([H])O5

$$$$
38:2:0
     RDKit          3D

 47 52  0  0  1  0  0  0  0  0999 V2000
    5.3189   -8.3614    2.6959 C   0  0  0  0  0  0  0  0  0  0  0  0
    5.4929   -6.9502    2.7204 O   0  0  0  0  0  0  0  0  0  0  0  0
    4.4949   -6.1554    2.2077 C   0  0  0  0  0  0  0  0  0  0  0  0
    3.2897   -6.6583    1.6189 C   0  0  0  0  0  0  0  0  0  0  0  0
    2.4005   -5.8342    0.8755 C   0  0  0  0  0  0  0  0  0  0  0  0
    2.6228   -4.4520    0.8337 C   0  0  0  0  0  0  0  0  0  0  0  0
    3.6940   -4.0339    1.6534 C   0  0  0  0  0  0  0  0  0  0  0  0
    4.7716   -4.7622    2.1612 C   0  0  0  0  0  0  0  0  0  0  0  0
    6.0750   -4.1747    2.1790 O   0  0  0  0  0  0  0  0  0  0  0  0
    6.4528   -3.0847    1.1964 C   0  0  2  0  0  0  0  0  0  0  0  0
    6.7562   -1.5449    1.0205 C   0  0  1  0  0  0  0  0  0  0  0  0
    7.8052   -1.4872    0.0886 O   0  0  0  0  0  0  0  0  0  0  0  0
    5.4557   -0.8152    0.4360 C   0  0  2  0  0  0  0  0  0  0  0  0
    4.7256   -0.5213    1.6373 O   0  0  0  0  0  0  0  0  0  0  0  0
    4.2316   -1.5689    2.3251 C   0  0  0  0  0  0  0  0  0  0  0  0
    3.8695   -1.5951    3.4886 O   0  0  0  0  0  0  0  0  0  0  0  0
    4.1308   -2.7476    1.3516 C   0  0  1  0  0  0  0  0  0  0  0  0
    5.2561   -3.0423    0.2766 C   0  0  2  0  0  0  0  0  0  0  0  0
    5.5002   -4.2592   -0.7369 C   0  0  0  0  0  0  0  0  0  0  0  0
    5.1057   -3.9916   -2.2575 C   0  0  0  0  0  0  0  0  0  0  0  0
    3.8002   -3.2251   -2.4112 N   0  0  2  0  0  0  0  0  0  0  0  0
    3.7568   -2.3316   -3.5970 C   0  0  0  0  0  0  0  0  0  0  0  0
    3.3908   -2.5560   -1.1412 C   0  0  2  0  0  0  0  0  0  0  0  0
    2.2118   -3.3650   -0.2844 C   0  0  0  0  0  0  0  0  0  0  0  0
    4.8546   -1.9168   -0.5588 C   0  0  1  0  0  0  0  0  0  0  0  0
    6.1841   -8.8317    3.1618 H   0  0  0  0  0  0  0  0  0  0  0  0
    5.2530   -8.7498    1.6791 H   0  0  0  0  0  0  0  0  0  0  0  0
    4.4416   -8.6748    3.2611 H   0  0  0  0  0  0  0  0  0  0  0  0
    3.1017   -7.7156    1.5884 H   0  0  0  0  0  0  0  0  0  0  0  0
    1.6255   -6.2800    0.2595 H   0  0  0  0  0  0  0  0  0  0  0  0
    6.4040   -2.7212    2.2126 H   0  0  0  0  0  0  0  0  0  0  0  0
    7.1403   -1.0176    1.8994 H   0  0  0  0  0  0  0  0  0  0  0  0
    8.5876   -1.8616    0.4711 H   0  0  0  0  0  0  0  0  0  0  0  0
    5.7267    0.1022   -0.0861 H   0  0  0  0  0  0  0  0  0  0  0  0
    3.2935   -2.1219    1.0749 H   0  0  0  0  0  0  0  0  0  0  0  0
    6.5691   -4.4654   -0.7032 H   0  0  0  0  0  0  0  0  0  0  0  0
    5.0088   -5.1825   -0.4240 H   0  0  0  0  0  0  0  0  0  0  0  0
    5.9094   -3.4340   -2.7385 H   0  0  0  0  0  0  0  0  0  0  0  0
    4.9932   -4.9226   -2.8160 H   0  0  0  0  0  0  0  0  0  0  0  0
    4.4801   -1.5163   -3.5270 H   0  0  0  0  0  0  0  0  0  0  0  0
    2.7602   -1.8965   -3.7280 H   0  0  0  0  0  0  0  0  0  0  0  0
    3.9824   -2.9070   -4.4971 H   0  0  0  0  0  0  0  0  0  0  0  0
    3.3930   -3.6177   -1.0563 H   0  0  0  0  0  0  0  0  0  0  0  0
    1.4973   -3.8276   -0.9793 H   0  0  0  0  0  0  0  0  0  0  0  0
    1.5979   -2.6510    0.2425 H   0  0  0  0  0  0  0  0  0  0  0  0
    5.5292   -1.7601   -1.3981 H   0  0  0  0  0  0  0  0  0  0  0  0
    3.0979   -3.9324   -2.5872 H   0  0  0  0  0  0  0  0  0  0  0  0
  1  2  1  0
  1 26  1  0
  1 27  1  0
  1 28  1  0
  2  3  1  0
  3  8  2  0
  3  4  1  0
  4  5  2  0
  4 29  1  0
  5  6  1  0
  5 30  1  0
  6 24  1  0
  6  7  2  0
  7 17  1  0
  7  8  1  0
  8  9  1  0
  9 10  1  0
 10 18  1  0
 10 11  1  0
 10 31  1  6
 11 12  1  0
 11 13  1  0
 11 32  1  1
 12 33  1  0
 13 25  1  0
 13 14  1  0
 13 34  1  6
 14 15  1  0
 15 16  2  0
 15 17  1  0
 17 18  1  0
 17 35  1  6
 18 25  1  0
 18 19  1  6
 19 20  1  0
 19 36  1  0
 19 37  1  0
 20 21  1  0
 20 38  1  0
 20 39  1  0
 21 22  1  0
 21 23  1  0
 21 47  1  6
 22 40  1  0
 22 41  1  0
 22 42  1  0
 23 24  1  0
 23 25  1  0
 23 43  1  6
 24 44  1  0
 24 45  1  0
 25 46  1  6
M  CHG  1  21   1
M  END
>  <i_m_ct_stereo_status>  (116) 
1

>  <s_m_source_file>  (116) 
/var/tmp/pbs.5076255.sched01/tmpn9kf4o8v/46f5dlbpu8.sdf

>  <i_m_source_file_index>  (116) 
2

>  <i_lp_mmshare_version>  (116) 
48012

>  <i_f3d_flags>  (116) 
0

>  <s_epik_input>  (116) 
W0NIM11PYzFbY0hdW2NIXWMoYzJjMU9bQ0BASF0zQzQ1NilbQ0gyXVtDQEBIXShOKFtDSDNdKVtDSDJdW0NIMl01KVtDSF02W0NASF0oW0NAQEhdM1tPSF0pT0MoPU8pW0NASF0yNA==

>  <s_epik_cmdline>  (116) 
J2VwaWtfcHl0aG9uJywgJy1waHQnLCAnMi4wJywgJy1waCcsICc3LjAnLCAnLXRuJywgJzgnLCAnLW1hJywgJzIwMCcsICctaW1hZScsICc8aW5maWxlLm1hZT4nLCAnLW9tYWUnLCAnPG91dGZpbGUubWFlPic=

>  <r_lp_tautomer_probability>  (116) 
1

>  <r_epik_Ionization_Penalty>  (116) 
0.102957

>  <r_epik_Ionization_Penalty_Charging>  (116) 
0.102879

>  <r_epik_Ionization_Penalty_Neutral>  (116) 
7.78899e-05

>  <r_epik_State_Penalty>  (116) 
0.0928267

>  <r_epik_Charging_Adjusted_Penalty>  (116) 
0.195706

>  <i_epik_Tot_Q>  (116) 
1

>  <i_epik_Tot_abs_Q>  (116) 
1

>  <s_epik_Chemistry_Notes>  (116) 
This compound has an ester and may undergo hydrolysis at high or low pH.

>  <s_lp_Force_Field>  (116) 
OPLS3e

>  <r_lp_Energy>  (116) 
384.362

>  <b_lp_Chiralities_Consistent>  (116) 
1

>  <s_lp_Variant>  (116) 
38:0-3

>  <s_i_glide_gridfile>  (116) 
pfpi4k_grid

>  <i_i_glide_lignum>  (116) 
2

>  <i_i_glide_rotatable_bonds>  (116) 
2

>  <r_i_docking_score>  (116) 
-3.64961

>  <r_i_glide_ligand_efficiency>  (116) 
-0.145984

>  <r_i_glide_ligand_efficiency_sa>  (116) 
-0.426861

>  <r_i_glide_ligand_efficiency_ln>  (116) 
-0.865067

>  <r_i_glide_gscore>  (116) 
-3.64961

>  <r_i_glide_lipo>  (116) 
-0.605387

>  <r_i_glide_hbond>  (116) 
-0.0906903

>  <r_i_glide_metal>  (116) 
-0

>  <r_i_glide_rewards>  (116) 
-1.07713

>  <r_i_glide_evdw>  (116) 
-19.5392

>  <r_i_glide_ecoul>  (116) 
-5.8038

>  <r_i_glide_erotb>  (116) 
0

>  <r_i_glide_esite>  (116) 
-0.0288668

>  <r_i_glide_emodel>  (116) 
-31.0819

>  <r_i_glide_energy>  (116) 
-25.343

>  <r_i_glide_einternal>  (116) 
0.32257

>  <r_i_glide_intrahb_reward>  (116) 
-0

>  <i_i_glide_confnum>  (116) 
1

>  <i_i_glide_posenum>  (116) 
36

>  <r_i_glide_eff_state_penalty>  (116) 
0

>  <ligand_id>  (116) 
38

>  <original_smiles>  (116) 
COc1ccc2c3c1OC1C(O)C4OC(=O)C3C13CCN(C)C(C2)C43

>  <smiles>  (116) 
[H]OC1([H])C2([H])OC(=O)C3([H])c4c5c(OC([H])([H])[H])c([H])c([H])c4C([H])([H])C4([H])C2([H])C3(C([H])([H])C([H])([H])[N+]4([H])C([H])([H])[H])C1([H])O5

$$$$
38:2:1
     RDKit          3D

 47 52  0  0  1  0  0  0  0  0999 V2000
    1.7743    0.6729    4.2640 C   0  0  0  0  0  0  0  0  0  0  0  0
    2.0101   -0.7180    4.0969 O   0  0  0  0  0  0  0  0  0  0  0  0
    3.2056   -1.1289    3.5398 C   0  0  0  0  0  0  0  0  0  0  0  0
    4.2401   -0.2282    3.1233 C   0  0  0  0  0  0  0  0  0  0  0  0
    5.3582   -0.6588    2.3341 C   0  0  0  0  0  0  0  0  0  0  0  0
    5.5441   -2.0344    2.0841 C   0  0  0  0  0  0  0  0  0  0  0  0
    4.5911   -2.8279    2.7300 C   0  0  0  0  0  0  0  0  0  0  0  0
    3.3280   -2.5085    3.2658 C   0  0  0  0  0  0  0  0  0  0  0  0
    2.2401   -3.4287    3.1011 O   0  0  0  0  0  0  0  0  0  0  0  0
    2.2063   -4.3861    1.9328 C   0  0  2  0  0  0  0  0  0  0  0  0
    2.3321   -5.9027    1.4836 C   0  0  1  0  0  0  0  0  0  0  0  0
    1.3560   -6.0785    0.4722 O   0  0  0  0  0  0  0  0  0  0  0  0
    3.8114   -6.1491    0.9111 C   0  0  2  0  0  0  0  0  0  0  0  0
    4.5614   -6.4320    2.1057 O   0  0  0  0  0  0  0  0  0  0  0  0
    4.7176   -5.4170    2.9762 C   0  0  0  0  0  0  0  0  0  0  0  0
    5.0378   -5.4886    4.1619 O   0  0  0  0  0  0  0  0  0  0  0  0
    4.5226   -4.1120    2.2111 C   0  0  1  0  0  0  0  0  0  0  0  0
    3.3948   -3.9470    1.1089 C   0  0  2  0  0  0  0  0  0  0  0  0
    2.8716   -2.6822    0.2672 C   0  0  0  0  0  0  0  0  0  0  0  0
    3.3566   -2.5866   -1.2329 C   0  0  0  0  0  0  0  0  0  0  0  0
    4.8272   -2.9443   -1.4024 N   0  0  2  0  0  0  0  0  0  0  0  0
    5.1450   -3.5810   -2.7075 C   0  0  0  0  0  0  0  0  0  0  0  0
    5.3722   -3.6793   -0.2152 C   0  0  2  0  0  0  0  0  0  0  0  0
    6.3040   -2.7667    0.8510 C   0  0  0  0  0  0  0  0  0  0  0  0
    4.1280   -4.7665    0.1610 C   0  0  1  0  0  0  0  0  0  0  0  0
    0.8006    0.8130    4.7321 H   0  0  0  0  0  0  0  0  0  0  0  0
    1.7499    1.2045    3.3113 H   0  0  0  0  0  0  0  0  0  0  0  0
    2.5117    1.1382    4.9187 H   0  0  0  0  0  0  0  0  0  0  0  0
    4.1341    0.8274    3.2699 H   0  0  0  0  0  0  0  0  0  0  0  0
    5.9933    0.0751    1.8595 H   0  0  0  0  0  0  0  0  0  0  0  0
    2.3101   -4.8890    2.8820 H   0  0  0  0  0  0  0  0  0  0  0  0
    2.0651   -6.6395    2.2529 H   0  0  0  0  0  0  0  0  0  0  0  0
    1.7443   -5.8468   -0.3599 H   0  0  0  0  0  0  0  0  0  0  0  0
    3.8356   -6.9983    0.2241 H   0  0  0  0  0  0  0  0  0  0  0  0
    5.5092   -4.4303    1.9088 H   0  0  0  0  0  0  0  0  0  0  0  0
    1.8032   -2.7515    0.2044 H   0  0  0  0  0  0  0  0  0  0  0  0
    3.0603   -1.7300    0.7627 H   0  0  0  0  0  0  0  0  0  0  0  0
    2.7533   -3.2603   -1.8466 H   0  0  0  0  0  0  0  0  0  0  0  0
    3.1783   -1.5864   -1.6364 H   0  0  0  0  0  0  0  0  0  0  0  0
    4.6794   -4.5577   -2.8142 H   0  0  0  0  0  0  0  0  0  0  0  0
    6.2230   -3.7015   -2.8256 H   0  0  0  0  0  0  0  0  0  0  0  0
    4.7974   -2.9519   -3.5278 H   0  0  0  0  0  0  0  0  0  0  0  0
    5.0791   -2.6844    0.0328 H   0  0  0  0  0  0  0  0  0  0  0  0
    6.8513   -1.9947    0.3011 H   0  0  0  0  0  0  0  0  0  0  0  0
    7.1008   -3.3887    1.2535 H   0  0  0  0  0  0  0  0  0  0  0  0
    3.5387   -4.9543   -0.7321 H   0  0  0  0  0  0  0  0  0  0  0  0
    5.3156   -2.0592   -1.4187 H   0  0  0  0  0  0  0  0  0  0  0  0
  1  2  1  0
  1 26  1  0
  1 27  1  0
  1 28  1  0
  2  3  1  0
  3  8  2  0
  3  4  1  0
  4  5  2  0
  4 29  1  0
  5  6  1  0
  5 30  1  0
  6 24  1  0
  6  7  2  0
  7 17  1  0
  7  8  1  0
  8  9  1  0
  9 10  1  0
 10 18  1  0
 10 11  1  0
 10 31  1  6
 11 12  1  0
 11 13  1  0
 11 32  1  1
 12 33  1  0
 13 25  1  0
 13 14  1  0
 13 34  1  6
 14 15  1  0
 15 16  2  0
 15 17  1  0
 17 18  1  0
 17 35  1  6
 18 25  1  0
 18 19  1  6
 19 20  1  0
 19 36  1  0
 19 37  1  0
 20 21  1  0
 20 38  1  0
 20 39  1  0
 21 22  1  0
 21 23  1  0
 21 47  1  6
 22 40  1  0
 22 41  1  0
 22 42  1  0
 23 24  1  0
 23 25  1  0
 23 43  1  6
 24 44  1  0
 24 45  1  0
 25 46  1  6
M  CHG  1  21   1
M  END
>  <i_m_ct_stereo_status>  (117) 
1

>  <s_m_source_file>  (117) 
/var/tmp/pbs.5076255.sched01/tmpn9kf4o8v/46f5dlbpu8.sdf

>  <i_m_source_file_index>  (117) 
2

>  <i_lp_mmshare_version>  (117) 
48012

>  <i_f3d_flags>  (117) 
0

>  <s_epik_input>  (117) 
W0NIM11PYzFbY0hdW2NIXWMoYzJjMU9bQ0BASF0zQzQ1NilbQ0gyXVtDQEBIXShOKFtDSDNdKVtDSDJdW0NIMl01KVtDSF02W0NASF0oW0NAQEhdM1tPSF0pT0MoPU8pW0NASF0yNA==

>  <s_epik_cmdline>  (117) 
J2VwaWtfcHl0aG9uJywgJy1waHQnLCAnMi4wJywgJy1waCcsICc3LjAnLCAnLXRuJywgJzgnLCAnLW1hJywgJzIwMCcsICctaW1hZScsICc8aW5maWxlLm1hZT4nLCAnLW9tYWUnLCAnPG91dGZpbGUubWFlPic=

>  <r_lp_tautomer_probability>  (117) 
1

>  <r_epik_Ionization_Penalty>  (117) 
0.102957

>  <r_epik_Ionization_Penalty_Charging>  (117) 
0.102879

>  <r_epik_Ionization_Penalty_Neutral>  (117) 
7.78899e-05

>  <r_epik_State_Penalty>  (117) 
0.0928267

>  <r_epik_Charging_Adjusted_Penalty>  (117) 
0.195706

>  <i_epik_Tot_Q>  (117) 
1

>  <i_epik_Tot_abs_Q>  (117) 
1

>  <s_epik_Chemistry_Notes>  (117) 
This compound has an ester and may undergo hydrolysis at high or low pH.

>  <s_lp_Force_Field>  (117) 
OPLS3e

>  <r_lp_Energy>  (117) 
384.362

>  <b_lp_Chiralities_Consistent>  (117) 
1

>  <s_lp_Variant>  (117) 
38:0-3

>  <s_i_glide_gridfile>  (117) 
pfpi4k_grid

>  <i_i_glide_lignum>  (117) 
2

>  <i_i_glide_rotatable_bonds>  (117) 
2

>  <r_i_docking_score>  (117) 
-3.58979

>  <r_i_glide_ligand_efficiency>  (117) 
-0.143592

>  <r_i_glide_ligand_efficiency_sa>  (117) 
-0.419865

>  <r_i_glide_ligand_efficiency_ln>  (117) 
-0.850889

>  <r_i_glide_gscore>  (117) 
-3.58979

>  <r_i_glide_lipo>  (117) 
-0.600245

>  <r_i_glide_hbond>  (117) 
-0.158899

>  <r_i_glide_metal>  (117) 
-0

>  <r_i_glide_rewards>  (117) 
-1.06103

>  <r_i_glide_evdw>  (117) 
-18.4794

>  <r_i_glide_ecoul>  (117) 
-5.63687

>  <r_i_glide_erotb>  (117) 
0

>  <r_i_glide_esite>  (117) 
-0.000115861

>  <r_i_glide_emodel>  (117) 
-29.2888

>  <r_i_glide_energy>  (117) 
-24.1163

>  <r_i_glide_einternal>  (117) 
0.545238

>  <r_i_glide_intrahb_reward>  (117) 
-0

>  <i_i_glide_confnum>  (117) 
1

>  <i_i_glide_posenum>  (117) 
28

>  <r_i_glide_eff_state_penalty>  (117) 
0

>  <ligand_id>  (117) 
38

>  <original_smiles>  (117) 
COc1ccc2c3c1OC1C(O)C4OC(=O)C3C13CCN(C)C(C2)C43

>  <smiles>  (117) 
[H]OC1([H])C2([H])OC(=O)C3([H])c4c5c(OC([H])([H])[H])c([H])c([H])c4C([H])([H])C4([H])C2([H])C3(C([H])([H])C([H])([H])[N+]4([H])C([H])([H])[H])C1([H])O5

$$$$
38:2:2
     RDKit          3D

 47 52  0  0  1  0  0  0  0  0999 V2000
    2.0832   -0.7541    5.0237 C   0  0  0  0  0  0  0  0  0  0  0  0
    2.9230   -1.6679    4.3313 O   0  0  0  0  0  0  0  0  0  0  0  0
    3.4375   -1.2750    3.1207 C   0  0  0  0  0  0  0  0  0  0  0  0
    3.0762   -0.0754    2.4492 C   0  0  0  0  0  0  0  0  0  0  0  0
    3.4150    0.1760    1.0977 C   0  0  0  0  0  0  0  0  0  0  0  0
    4.2961   -0.6753    0.4039 C   0  0  0  0  0  0  0  0  0  0  0  0
    4.7680   -1.6979    1.2438 C   0  0  0  0  0  0  0  0  0  0  0  0
    4.2719   -2.2040    2.4548 C   0  0  0  0  0  0  0  0  0  0  0  0
    4.2750   -3.6142    2.7073 O   0  0  0  0  0  0  0  0  0  0  0  0
    4.1981   -4.6014    1.5670 C   0  0  2  0  0  0  0  0  0  0  0  0
    5.0249   -5.6566    0.7339 C   0  0  1  0  0  0  0  0  0  0  0  0
    4.1878   -6.7415    0.4170 O   0  0  0  0  0  0  0  0  0  0  0  0
    5.4812   -4.9538   -0.6227 C   0  0  2  0  0  0  0  0  0  0  0  0
    6.7222   -4.3481   -0.2980 O   0  0  0  0  0  0  0  0  0  0  0  0
    6.6610   -3.3773    0.5837 C   0  0  0  0  0  0  0  0  0  0  0  0
    7.5595   -3.0570    1.2720 O   0  0  0  0  0  0  0  0  0  0  0  0
    5.2686   -2.7595    0.5193 C   0  0  1  0  0  0  0  0  0  0  0  0
    3.9756   -3.6864    0.3739 C   0  0  2  0  0  0  0  0  0  0  0  0
    2.3914   -3.4282    0.3046 C   0  0  0  0  0  0  0  0  0  0  0  0
    1.7536   -3.4727   -1.1624 C   0  0  0  0  0  0  0  0  0  0  0  0
    2.5851   -2.6868   -2.1656 N   0  0  2  0  0  0  0  0  0  0  0  0
    2.4374   -3.2123   -3.5496 C   0  0  0  0  0  0  0  0  0  0  0  0
    4.0062   -2.4872   -1.7331 C   0  0  2  0  0  0  0  0  0  0  0  0
    4.4219   -0.9641   -1.2037 C   0  0  0  0  0  0  0  0  0  0  0  0
    4.3338   -3.9494   -1.0002 C   0  0  1  0  0  0  0  0  0  0  0  0
    1.7983   -1.2053    5.9715 H   0  0  0  0  0  0  0  0  0  0  0  0
    1.1604   -0.5353    4.4835 H   0  0  0  0  0  0  0  0  0  0  0  0
    2.5992    0.1794    5.2510 H   0  0  0  0  0  0  0  0  0  0  0  0
    2.3902    0.6279    2.8891 H   0  0  0  0  0  0  0  0  0  0  0  0
    2.9075    0.9719    0.6005 H   0  0  0  0  0  0  0  0  0  0  0  0
    5.1489   -4.6366    2.0831 H   0  0  0  0  0  0  0  0  0  0  0  0
    5.8689   -6.1393    1.2520 H   0  0  0  0  0  0  0  0  0  0  0  0
    3.5583   -6.4555   -0.2329 H   0  0  0  0  0  0  0  0  0  0  0  0
    5.5239   -5.7268   -1.3592 H   0  0  0  0  0  0  0  0  0  0  0  0
    5.7835   -2.3742   -0.3534 H   0  0  0  0  0  0  0  0  0  0  0  0
    1.9396   -4.2359    0.8932 H   0  0  0  0  0  0  0  0  0  0  0  0
    2.1524   -2.4973    0.8078 H   0  0  0  0  0  0  0  0  0  0  0  0
    1.6679   -4.5198   -1.4602 H   0  0  0  0  0  0  0  0  0  0  0  0
    0.7624   -3.0402   -1.2682 H   0  0  0  0  0  0  0  0  0  0  0  0
    2.7509   -4.2549   -3.6568 H   0  0  0  0  0  0  0  0  0  0  0  0
    2.9423   -2.5943   -4.2948 H   0  0  0  0  0  0  0  0  0  0  0  0
    1.3869   -3.1469   -3.8093 H   0  0  0  0  0  0  0  0  0  0  0  0
    3.3102   -1.9684   -1.1109 H   0  0  0  0  0  0  0  0  0  0  0  0
    3.8199   -0.2711   -1.8053 H   0  0  0  0  0  0  0  0  0  0  0  0
    5.4551   -0.7660   -1.5240 H   0  0  0  0  0  0  0  0  0  0  0  0
    3.7366   -4.6748   -1.5113 H   0  0  0  0  0  0  0  0  0  0  0  0
    2.1539   -1.7864   -2.1591 H   0  0  0  0  0  0  0  0  0  0  0  0
  1  2  1  0
  1 26  1  0
  1 27  1  0
  1 28  1  0
  2  3  1  0
  3  8  2  0
  3  4  1  0
  4  5  2  0
  4 29  1  0
  5  6  1  0
  5 30  1  0
  6 24  1  0
  6  7  2  0
  7 17  1  0
  7  8  1  0
  8  9  1  0
  9 10  1  0
 10 18  1  0
 10 11  1  0
 10 31  1  1
 11 12  1  0
 11 13  1  0
 11 32  1  1
 12 33  1  0
 13 25  1  0
 13 14  1  0
 13 34  1  6
 14 15  1  0
 15 16  2  0
 15 17  1  0
 17 18  1  0
 17 35  1  6
 18 25  1  0
 18 19  1  6
 19 20  1  0
 19 36  1  0
 19 37  1  0
 20 21  1  0
 20 38  1  0
 20 39  1  0
 21 22  1  0
 21 23  1  0
 21 47  1  6
 22 40  1  0
 22 41  1  0
 22 42  1  0
 23 24  1  0
 23 25  1  0
 23 43  1  6
 24 44  1  0
 24 45  1  0
 25 46  1  6
M  CHG  1  21   1
M  END
>  <i_m_ct_stereo_status>  (118) 
1

>  <s_m_source_file>  (118) 
/var/tmp/pbs.5076255.sched01/tmpn9kf4o8v/46f5dlbpu8.sdf

>  <i_m_source_file_index>  (118) 
2

>  <i_lp_mmshare_version>  (118) 
48012

>  <i_f3d_flags>  (118) 
0

>  <s_epik_input>  (118) 
W0NIM11PYzFbY0hdW2NIXWMoYzJjMU9bQ0BASF0zQzQ1NilbQ0gyXVtDQEBIXShOKFtDSDNdKVtDSDJdW0NIMl01KVtDSF02W0NASF0oW0NAQEhdM1tPSF0pT0MoPU8pW0NASF0yNA==

>  <s_epik_cmdline>  (118) 
J2VwaWtfcHl0aG9uJywgJy1waHQnLCAnMi4wJywgJy1waCcsICc3LjAnLCAnLXRuJywgJzgnLCAnLW1hJywgJzIwMCcsICctaW1hZScsICc8aW5maWxlLm1hZT4nLCAnLW9tYWUnLCAnPG91dGZpbGUubWFlPic=

>  <r_lp_tautomer_probability>  (118) 
1

>  <r_epik_Ionization_Penalty>  (118) 
0.102957

>  <r_epik_Ionization_Penalty_Charging>  (118) 
0.102879

>  <r_epik_Ionization_Penalty_Neutral>  (118) 
7.78899e-05

>  <r_epik_State_Penalty>  (118) 
0.0928267

>  <r_epik_Charging_Adjusted_Penalty>  (118) 
0.195706

>  <i_epik_Tot_Q>  (118) 
1

>  <i_epik_Tot_abs_Q>  (118) 
1

>  <s_epik_Chemistry_Notes>  (118) 
This compound has an ester and may undergo hydrolysis at high or low pH.

>  <s_lp_Force_Field>  (118) 
OPLS3e

>  <r_lp_Energy>  (118) 
384.362

>  <b_lp_Chiralities_Consistent>  (118) 
1

>  <s_lp_Variant>  (118) 
38:0-3

>  <s_i_glide_gridfile>  (118) 
pfpi4k_grid

>  <i_i_glide_lignum>  (118) 
2

>  <i_i_glide_rotatable_bonds>  (118) 
2

>  <r_i_docking_score>  (118) 
-3.06071

>  <r_i_glide_ligand_efficiency>  (118) 
-0.122428

>  <r_i_glide_ligand_efficiency_sa>  (118) 
-0.357983

>  <r_i_glide_ligand_efficiency_ln>  (118) 
-0.72548

>  <r_i_glide_gscore>  (118) 
-3.06071

>  <r_i_glide_lipo>  (118) 
-0.542022

>  <r_i_glide_hbond>  (118) 
-0.101765

>  <r_i_glide_metal>  (118) 
-0

>  <r_i_glide_rewards>  (118) 
-1.19361

>  <r_i_glide_evdw>  (118) 
-5.66915

>  <r_i_glide_ecoul>  (118) 
-6.02091

>  <r_i_glide_erotb>  (118) 
0

>  <r_i_glide_esite>  (118) 
-0.0367168

>  <r_i_glide_emodel>  (118) 
-14.2606

>  <r_i_glide_energy>  (118) 
-11.6901

>  <r_i_glide_einternal>  (118) 
0.201296

>  <r_i_glide_intrahb_reward>  (118) 
-0

>  <i_i_glide_confnum>  (118) 
1

>  <i_i_glide_posenum>  (118) 
7

>  <r_i_glide_eff_state_penalty>  (118) 
0

>  <ligand_id>  (118) 
38

>  <original_smiles>  (118) 
COc1ccc2c3c1OC1C(O)C4OC(=O)C3C13CCN(C)C(C2)C43

>  <smiles>  (118) 
[H]OC1([H])C2([H])OC(=O)C3([H])c4c5c(OC([H])([H])[H])c([H])c([H])c4C([H])([H])C4([H])C2([H])C3(C([H])([H])C([H])([H])[N+]4([H])C([H])([H])[H])C1([H])O5

$$$$
38:3:0
     RDKit          3D

 47 52  0  0  1  0  0  0  0  0999 V2000
    3.7455    0.5617   -4.3368 C   0  0  0  0  0  0  0  0  0  0  0  0
    4.3438    0.1594   -3.1167 O   0  0  0  0  0  0  0  0  0  0  0  0
    4.1045   -1.1010   -2.6322 C   0  0  0  0  0  0  0  0  0  0  0  0
    2.9864   -1.8873   -3.0483 C   0  0  0  0  0  0  0  0  0  0  0  0
    2.5461   -3.0417   -2.3329 C   0  0  0  0  0  0  0  0  0  0  0  0
    3.3262   -3.5147   -1.2566 C   0  0  0  0  0  0  0  0  0  0  0  0
    4.5208   -2.8014   -1.1156 C   0  0  0  0  0  0  0  0  0  0  0  0
    4.9331   -1.5408   -1.5597 C   0  0  0  0  0  0  0  0  0  0  0  0
    5.7876   -0.7754   -0.7109 O   0  0  0  0  0  0  0  0  0  0  0  0
    5.4715   -0.7734    0.7651 C   0  0  2  0  0  0  0  0  0  0  0  0
    6.3703   -1.2250    1.9405 C   0  0  1  0  0  0  0  0  0  0  0  0
    6.1972   -0.2881    2.9690 O   0  0  0  0  0  0  0  0  0  0  0  0
    5.9056   -2.6823    2.4379 C   0  0  2  0  0  0  0  0  0  0  0  0
    6.7290   -3.5459    1.6492 O   0  0  0  0  0  0  0  0  0  0  0  0
    6.5523   -3.4476    0.3276 C   0  0  0  0  0  0  0  0  0  0  0  0
    7.3462   -3.7531   -0.5518 O   0  0  0  0  0  0  0  0  0  0  0  0
    5.1084   -2.9996    0.1121 C   0  0  1  0  0  0  0  0  0  0  0  0
    4.4296   -1.8304    0.9812 C   0  0  2  0  0  0  0  0  0  0  0  0
    3.0165   -1.0730    0.8953 C   0  0  0  0  0  0  0  0  0  0  0  0
    1.9174   -1.5515    1.9328 C   0  0  0  0  0  0  0  0  0  0  0  0
    1.8985   -3.0521    2.1236 N   0  0  2  0  0  0  0  0  0  0  0  0
    1.5009   -3.4926    3.4745 C   0  0  0  0  0  0  0  0  0  0  0  0
    3.1022   -3.7229    1.5740 C   0  0  2  0  0  0  0  0  0  0  0  0
    2.9450   -4.4130    0.0468 C   0  0  0  0  0  0  0  0  0  0  0  0
    4.3397   -2.7016    2.1402 C   0  0  1  0  0  0  0  0  0  0  0  0
    4.1312    1.5461   -4.5928 H   0  0  0  0  0  0  0  0  0  0  0  0
    2.6650    0.6608   -4.2647 H   0  0  0  0  0  0  0  0  0  0  0  0
    3.9918   -0.1099   -5.1579 H   0  0  0  0  0  0  0  0  0  0  0  0
    2.3238   -1.5137   -3.8145 H   0  0  0  0  0  0  0  0  0  0  0  0
    1.5688   -3.4629   -2.5366 H   0  0  0  0  0  0  0  0  0  0  0  0
    5.1358    0.2380    0.9801 H   0  0  0  0  0  0  0  0  0  0  0  0
    7.4079   -1.1647    1.6286 H   0  0  0  0  0  0  0  0  0  0  0  0
    6.8705    0.3647    2.8150 H   0  0  0  0  0  0  0  0  0  0  0  0
    6.1245   -2.8223    3.4907 H   0  0  0  0  0  0  0  0  0  0  0  0
    4.9980   -4.0354    0.4047 H   0  0  0  0  0  0  0  0  0  0  0  0
    3.1203   -0.0037    1.1023 H   0  0  0  0  0  0  0  0  0  0  0  0
    2.6170   -1.1186   -0.1140 H   0  0  0  0  0  0  0  0  0  0  0  0
    2.1150   -1.0750    2.8858 H   0  0  0  0  0  0  0  0  0  0  0  0
    0.9303   -1.2031    1.6380 H   0  0  0  0  0  0  0  0  0  0  0  0
    2.2344   -3.2154    4.2272 H   0  0  0  0  0  0  0  0  0  0  0  0
    1.3667   -4.5732    3.5119 H   0  0  0  0  0  0  0  0  0  0  0  0
    0.5492   -3.0440    3.7600 H   0  0  0  0  0  0  0  0  0  0  0  0
    2.5362   -3.2421    0.8018 H   0  0  0  0  0  0  0  0  0  0  0  0
    1.9338   -4.7908   -0.1301 H   0  0  0  0  0  0  0  0  0  0  0  0
    3.5348   -5.3332   -0.0137 H   0  0  0  0  0  0  0  0  0  0  0  0
    4.0053   -2.1777    3.0296 H   0  0  0  0  0  0  0  0  0  0  0  0
    1.1420   -3.3687    1.5478 H   0  0  0  0  0  0  0  0  0  0  0  0
  1  2  1  0
  1 26  1  0
  1 27  1  0
  1 28  1  0
  2  3  1  0
  3  8  2  0
  3  4  1  0
  4  5  2  0
  4 29  1  0
  5  6  1  0
  5 30  1  0
  6 24  1  0
  6  7  2  0
  7 17  1  0
  7  8  1  0
  8  9  1  0
  9 10  1  0
 10 18  1  0
 10 11  1  0
 10 31  1  1
 11 12  1  0
 11 13  1  0
 11 32  1  6
 12 33  1  0
 13 25  1  0
 13 14  1  0
 13 34  1  1
 14 15  1  0
 15 16  2  0
 15 17  1  0
 17 18  1  0
 17 35  1  1
 18 25  1  0
 18 19  1  6
 19 20  1  0
 19 36  1  0
 19 37  1  0
 20 21  1  0
 20 38  1  0
 20 39  1  0
 21 22  1  0
 21 23  1  0
 21 47  1  6
 22 40  1  0
 22 41  1  0
 22 42  1  0
 23 24  1  0
 23 25  1  0
 23 43  1  1
 24 44  1  0
 24 45  1  0
 25 46  1  1
M  CHG  1  21   1
M  END
>  <i_m_ct_stereo_status>  (119) 
1

>  <s_m_source_file>  (119) 
/var/tmp/pbs.5076255.sched01/tmpn9kf4o8v/46f5dlbpu8.sdf

>  <i_m_source_file_index>  (119) 
3

>  <i_lp_mmshare_version>  (119) 
48012

>  <i_f3d_flags>  (119) 
0

>  <s_epik_input>  (119) 
W0NIM11PYzFbY0hdW2NIXWMoYzJjMU9bQ0BASF0zQzQ1NilbQ0gyXVtDQEBIXShOKFtDSDNdKVtDSDJdW0NIMl01KVtDSF02W0NASF0oW0NAQEhdM1tPSF0pT0MoPU8pW0NASF0yNA==

>  <s_epik_cmdline>  (119) 
J2VwaWtfcHl0aG9uJywgJy1waHQnLCAnMi4wJywgJy1waCcsICc3LjAnLCAnLXRuJywgJzgnLCAnLW1hJywgJzIwMCcsICctaW1hZScsICc8aW5maWxlLm1hZT4nLCAnLW9tYWUnLCAnPG91dGZpbGUubWFlPic=

>  <r_lp_tautomer_probability>  (119) 
1

>  <r_epik_Ionization_Penalty>  (119) 
0.102957

>  <r_epik_Ionization_Penalty_Charging>  (119) 
0.102879

>  <r_epik_Ionization_Penalty_Neutral>  (119) 
7.78899e-05

>  <r_epik_State_Penalty>  (119) 
0.0928267

>  <r_epik_Charging_Adjusted_Penalty>  (119) 
0.195706

>  <i_epik_Tot_Q>  (119) 
1

>  <i_epik_Tot_abs_Q>  (119) 
1

>  <s_epik_Chemistry_Notes>  (119) 
This compound has an ester and may undergo hydrolysis at high or low pH.

>  <s_lp_Force_Field>  (119) 
OPLS3e

>  <r_lp_Energy>  (119) 
341.484

>  <b_lp_Chiralities_Consistent>  (119) 
1

>  <s_lp_Variant>  (119) 
38:0-4

>  <s_i_glide_gridfile>  (119) 
pfpi4k_grid

>  <i_i_glide_lignum>  (119) 
3

>  <i_i_glide_rotatable_bonds>  (119) 
2

>  <r_i_docking_score>  (119) 
-4.43023

>  <r_i_glide_ligand_efficiency>  (119) 
-0.177209

>  <r_i_glide_ligand_efficiency_sa>  (119) 
-0.518163

>  <r_i_glide_ligand_efficiency_ln>  (119) 
-1.0501

>  <r_i_glide_gscore>  (119) 
-4.43023

>  <r_i_glide_lipo>  (119) 
-0.403186

>  <r_i_glide_hbond>  (119) 
-0.4161

>  <r_i_glide_metal>  (119) 
-0

>  <r_i_glide_rewards>  (119) 
-1.20062

>  <r_i_glide_evdw>  (119) 
-19.2226

>  <r_i_glide_ecoul>  (119) 
-9.59395

>  <r_i_glide_erotb>  (119) 
0

>  <r_i_glide_esite>  (119) 
-0.0101072

>  <r_i_glide_emodel>  (119) 
-33.0119

>  <r_i_glide_energy>  (119) 
-28.8166

>  <r_i_glide_einternal>  (119) 
0.967417

>  <r_i_glide_intrahb_reward>  (119) 
-0

>  <i_i_glide_confnum>  (119) 
2

>  <i_i_glide_posenum>  (119) 
5

>  <r_i_glide_eff_state_penalty>  (119) 
0

>  <ligand_id>  (119) 
38

>  <original_smiles>  (119) 
COc1ccc2c3c1OC1C(O)C4OC(=O)C3C13CCN(C)C(C2)C43

>  <smiles>  (119) 
[H]OC1([H])C2([H])OC(=O)C3([H])c4c5c(OC([H])([H])[H])c([H])c([H])c4C([H])([H])C4([H])C2([H])C3(C([H])([H])C([H])([H])[N+]4([H])C([H])([H])[H])C1([H])O5

$$$$
38:3:1
     RDKit          3D

 47 52  0  0  1  0  0  0  0  0999 V2000
    4.1887    0.1949    4.8557 C   0  0  0  0  0  0  0  0  0  0  0  0
    4.1230   -1.1630    4.4217 O   0  0  0  0  0  0  0  0  0  0  0  0
    4.9248   -1.5722    3.3866 C   0  0  0  0  0  0  0  0  0  0  0  0
    5.7991   -0.6873    2.6502 C   0  0  0  0  0  0  0  0  0  0  0  0
    6.4446   -1.0486    1.4346 C   0  0  0  0  0  0  0  0  0  0  0  0
    6.3928   -2.3995    0.9918 C   0  0  0  0  0  0  0  0  0  0  0  0
    5.6755   -3.1942    1.9023 C   0  0  0  0  0  0  0  0  0  0  0  0
    4.7980   -2.9155    2.9479 C   0  0  0  0  0  0  0  0  0  0  0  0
    3.6958   -3.8093    3.1755 O   0  0  0  0  0  0  0  0  0  0  0  0
    2.9723   -4.3361    1.9600 C   0  0  2  0  0  0  0  0  0  0  0  0
    2.7948   -5.8263    1.5236 C   0  0  1  0  0  0  0  0  0  0  0  0
    1.4729   -6.0162    1.0542 O   0  0  0  0  0  0  0  0  0  0  0  0
    3.8230   -6.1053    0.3276 C   0  0  2  0  0  0  0  0  0  0  0  0
    4.9445   -6.6160    1.0503 O   0  0  0  0  0  0  0  0  0  0  0  0
    5.5356   -5.7418    1.8695 C   0  0  0  0  0  0  0  0  0  0  0  0
    6.2698   -5.9735    2.8190 O   0  0  0  0  0  0  0  0  0  0  0  0
    5.2421   -4.3506    1.3187 C   0  0  1  0  0  0  0  0  0  0  0  0
    3.8000   -3.9024    0.7764 C   0  0  2  0  0  0  0  0  0  0  0  0
    3.2083   -2.4860    0.2762 C   0  0  0  0  0  0  0  0  0  0  0  0
    3.1311   -2.2881   -1.2967 C   0  0  0  0  0  0  0  0  0  0  0  0
    4.3434   -2.8193   -2.0344 N   0  0  2  0  0  0  0  0  0  0  0  0
    4.0456   -3.3495   -3.3877 C   0  0  0  0  0  0  0  0  0  0  0  0
    5.1710   -3.7175   -1.1838 C   0  0  2  0  0  0  0  0  0  0  0  0
    6.5391   -3.0341   -0.4887 C   0  0  0  0  0  0  0  0  0  0  0  0
    3.9965   -4.6842   -0.4177 C   0  0  1  0  0  0  0  0  0  0  0  0
    3.4959    0.3348    5.6853 H   0  0  0  0  0  0  0  0  0  0  0  0
    3.8953    0.9040    4.0789 H   0  0  0  0  0  0  0  0  0  0  0  0
    5.1809    0.4575    5.2252 H   0  0  0  0  0  0  0  0  0  0  0  0
    5.8963    0.3366    2.9582 H   0  0  0  0  0  0  0  0  0  0  0  0
    6.9312   -0.3165    0.8160 H   0  0  0  0  0  0  0  0  0  0  0  0
    1.9862   -3.8785    1.9771 H   0  0  0  0  0  0  0  0  0  0  0  0
    2.9225   -6.4909    2.3835 H   0  0  0  0  0  0  0  0  0  0  0  0
    1.3415   -6.9488    0.9774 H   0  0  0  0  0  0  0  0  0  0  0  0
    3.4586   -6.8617   -0.3377 H   0  0  0  0  0  0  0  0  0  0  0  0
    5.9873   -4.7405    0.6383 H   0  0  0  0  0  0  0  0  0  0  0  0
    2.1844   -2.3503    0.6194 H   0  0  0  0  0  0  0  0  0  0  0  0
    3.7635   -1.6524    0.7020 H   0  0  0  0  0  0  0  0  0  0  0  0
    2.2405   -2.8014   -1.6630 H   0  0  0  0  0  0  0  0  0  0  0  0
    3.0008   -1.2393   -1.5540 H   0  0  0  0  0  0  0  0  0  0  0  0
    3.4282   -4.2352   -3.3900 H   0  0  0  0  0  0  0  0  0  0  0  0
    4.9654   -3.6015   -3.9255 H   0  0  0  0  0  0  0  0  0  0  0  0
    3.5242   -2.5924   -3.9883 H   0  0  0  0  0  0  0  0  0  0  0  0
    5.1444   -2.7291   -0.7836 H   0  0  0  0  0  0  0  0  0  0  0  0
    6.9415   -2.2509   -1.1398 H   0  0  0  0  0  0  0  0  0  0  0  0
    7.3493   -3.7688   -0.4751 H   0  0  0  0  0  0  0  0  0  0  0  0
    3.0855   -4.6613   -1.0041 H   0  0  0  0  0  0  0  0  0  0  0  0
    4.9199   -2.0083   -2.2066 H   0  0  0  0  0  0  0  0  0  0  0  0
  1  2  1  0
  1 26  1  0
  1 27  1  0
  1 28  1  0
  2  3  1  0
  3  8  2  0
  3  4  1  0
  4  5  2  0
  4 29  1  0
  5  6  1  0
  5 30  1  0
  6 24  1  0
  6  7  2  0
  7 17  1  0
  7  8  1  0
  8  9  1  0
  9 10  1  0
 10 18  1  0
 10 11  1  0
 10 31  1  6
 11 12  1  0
 11 13  1  0
 11 32  1  1
 12 33  1  0
 13 25  1  0
 13 14  1  0
 13 34  1  6
 14 15  1  0
 15 16  2  0
 15 17  1  0
 17 18  1  0
 17 35  1  6
 18 25  1  0
 18 19  1  6
 19 20  1  0
 19 36  1  0
 19 37  1  0
 20 21  1  0
 20 38  1  0
 20 39  1  0
 21 22  1  0
 21 23  1  0
 21 47  1  6
 22 40  1  0
 22 41  1  0
 22 42  1  0
 23 24  1  0
 23 25  1  0
 23 43  1  6
 24 44  1  0
 24 45  1  0
 25 46  1  6
M  CHG  1  21   1
M  END
>  <i_m_ct_stereo_status>  (120) 
1

>  <s_m_source_file>  (120) 
/var/tmp/pbs.5076255.sched01/tmpn9kf4o8v/46f5dlbpu8.sdf

>  <i_m_source_file_index>  (120) 
3

>  <i_lp_mmshare_version>  (120) 
48012

>  <i_f3d_flags>  (120) 
0

>  <s_epik_input>  (120) 
W0NIM11PYzFbY0hdW2NIXWMoYzJjMU9bQ0BASF0zQzQ1NilbQ0gyXVtDQEBIXShOKFtDSDNdKVtDSDJdW0NIMl01KVtDSF02W0NASF0oW0NAQEhdM1tPSF0pT0MoPU8pW0NASF0yNA==

>  <s_epik_cmdline>  (120) 
J2VwaWtfcHl0aG9uJywgJy1waHQnLCAnMi4wJywgJy1waCcsICc3LjAnLCAnLXRuJywgJzgnLCAnLW1hJywgJzIwMCcsICctaW1hZScsICc8aW5maWxlLm1hZT4nLCAnLW9tYWUnLCAnPG91dGZpbGUubWFlPic=

>  <r_lp_tautomer_probability>  (120) 
1

>  <r_epik_Ionization_Penalty>  (120) 
0.102957

>  <r_epik_Ionization_Penalty_Charging>  (120) 
0.102879

>  <r_epik_Ionization_Penalty_Neutral>  (120) 
7.78899e-05

>  <r_epik_State_Penalty>  (120) 
0.0928267

>  <r_epik_Charging_Adjusted_Penalty>  (120) 
0.195706

>  <i_epik_Tot_Q>  (120) 
1

>  <i_epik_Tot_abs_Q>  (120) 
1

>  <s_epik_Chemistry_Notes>  (120) 
This compound has an ester and may undergo hydrolysis at high or low pH.

>  <s_lp_Force_Field>  (120) 
OPLS3e

>  <r_lp_Energy>  (120) 
341.484

>  <b_lp_Chiralities_Consistent>  (120) 
1

>  <s_lp_Variant>  (120) 
38:0-4

>  <s_i_glide_gridfile>  (120) 
pfpi4k_grid

>  <i_i_glide_lignum>  (120) 
3

>  <i_i_glide_rotatable_bonds>  (120) 
2

>  <r_i_docking_score>  (120) 
-3.59269

>  <r_i_glide_ligand_efficiency>  (120) 
-0.143707

>  <r_i_glide_ligand_efficiency_sa>  (120) 
-0.420203

>  <r_i_glide_ligand_efficiency_ln>  (120) 
-0.851574

>  <r_i_glide_gscore>  (120) 
-3.59269

>  <r_i_glide_lipo>  (120) 
-0.737783

>  <r_i_glide_hbond>  (120) 
-0.135274

>  <r_i_glide_metal>  (120) 
-0

>  <r_i_glide_rewards>  (120) 
-1.11864

>  <r_i_glide_evdw>  (120) 
-15.7197

>  <r_i_glide_ecoul>  (120) 
-5.40281

>  <r_i_glide_erotb>  (120) 
0

>  <r_i_glide_esite>  (120) 
-0.00457746

>  <r_i_glide_emodel>  (120) 
-25.4667

>  <r_i_glide_energy>  (120) 
-21.1225

>  <r_i_glide_einternal>  (120) 
0.324593

>  <r_i_glide_intrahb_reward>  (120) 
-0

>  <i_i_glide_confnum>  (120) 
1

>  <i_i_glide_posenum>  (120) 
25

>  <r_i_glide_eff_state_penalty>  (120) 
0

>  <ligand_id>  (120) 
38

>  <original_smiles>  (120) 
COc1ccc2c3c1OC1C(O)C4OC(=O)C3C13CCN(C)C(C2)C43

>  <smiles>  (120) 
[H]OC1([H])C2([H])OC(=O)C3([H])c4c5c(OC([H])([H])[H])c([H])c([H])c4C([H])([H])C4([H])C2([H])C3(C([H])([H])C([H])([H])[N+]4([H])C([H])([H])[H])C1([H])O5

$$$$
38:3:2
     RDKit          3D

 47 52  0  0  1  0  0  0  0  0999 V2000
    3.9515    0.4555   -3.9737 C   0  0  0  0  0  0  0  0  0  0  0  0
    3.2646   -0.7253   -3.6011 O   0  0  0  0  0  0  0  0  0  0  0  0
    4.0506   -1.6723   -2.9957 C   0  0  0  0  0  0  0  0  0  0  0  0
    4.2146   -2.9102   -3.6729 C   0  0  0  0  0  0  0  0  0  0  0  0
    4.7965   -4.0514   -3.0432 C   0  0  0  0  0  0  0  0  0  0  0  0
    5.3044   -3.9589   -1.7296 C   0  0  0  0  0  0  0  0  0  0  0  0
    5.2594   -2.6498   -1.2581 C   0  0  0  0  0  0  0  0  0  0  0  0
    4.5367   -1.5287   -1.6733 C   0  0  0  0  0  0  0  0  0  0  0  0
    4.0820   -0.6553   -0.6481 O   0  0  0  0  0  0  0  0  0  0  0  0
    3.5329   -1.2273    0.6271 C   0  0  2  0  0  0  0  0  0  0  0  0
    4.0348   -1.0035    2.0961 C   0  0  1  0  0  0  0  0  0  0  0  0
    2.9428   -0.7985    2.9720 O   0  0  0  0  0  0  0  0  0  0  0  0
    4.8581   -2.3099    2.5334 C   0  0  2  0  0  0  0  0  0  0  0  0
    6.1730   -1.9047    2.1484 O   0  0  0  0  0  0  0  0  0  0  0  0
    6.3863   -1.7500    0.8489 C   0  0  0  0  0  0  0  0  0  0  0  0
    7.3022   -1.1405    0.3153 O   0  0  0  0  0  0  0  0  0  0  0  0
    5.3615   -2.5986    0.1132 C   0  0  1  0  0  0  0  0  0  0  0  0
    3.8255   -2.7081    0.5647 C   0  0  2  0  0  0  0  0  0  0  0  0
    2.5431   -3.4122   -0.1026 C   0  0  0  0  0  0  0  0  0  0  0  0
    2.1160   -4.8069    0.5362 C   0  0  0  0  0  0  0  0  0  0  0  0
    3.2886   -5.7128    0.8423 N   0  0  2  0  0  0  0  0  0  0  0  0
    3.0811   -6.5703    2.0379 C   0  0  0  0  0  0  0  0  0  0  0  0
    4.5699   -4.9546    0.8524 C   0  0  2  0  0  0  0  0  0  0  0  0
    5.4692   -5.0879   -0.5506 C   0  0  0  0  0  0  0  0  0  0  0  0
    4.1819   -3.5302    1.7134 C   0  0  1  0  0  0  0  0  0  0  0  0
    3.2462    1.2133   -4.3216 H   0  0  0  0  0  0  0  0  0  0  0  0
    4.6143    0.2328   -4.8060 H   0  0  0  0  0  0  0  0  0  0  0  0
    4.5333    0.8808   -3.1545 H   0  0  0  0  0  0  0  0  0  0  0  0
    3.7459   -3.0316   -4.6358 H   0  0  0  0  0  0  0  0  0  0  0  0
    4.7038   -5.0092   -3.5273 H   0  0  0  0  0  0  0  0  0  0  0  0
    2.4754   -0.9820    0.6245 H   0  0  0  0  0  0  0  0  0  0  0  0
    4.6214   -0.0862    2.1488 H   0  0  0  0  0  0  0  0  0  0  0  0
    2.2789   -1.4431    2.7833 H   0  0  0  0  0  0  0  0  0  0  0  0
    4.8172   -2.4673    3.6097 H   0  0  0  0  0  0  0  0  0  0  0  0
    6.0803   -3.3231    0.4617 H   0  0  0  0  0  0  0  0  0  0  0  0
    1.6852   -2.7700    0.0398 H   0  0  0  0  0  0  0  0  0  0  0  0
    2.6422   -3.5189   -1.1856 H   0  0  0  0  0  0  0  0  0  0  0  0
    1.5908   -4.6302    1.4788 H   0  0  0  0  0  0  0  0  0  0  0  0
    1.4276   -5.3393   -0.1227 H   0  0  0  0  0  0  0  0  0  0  0  0
    3.0108   -5.9880    2.9578 H   0  0  0  0  0  0  0  0  0  0  0  0
    3.9023   -7.2850    2.1476 H   0  0  0  0  0  0  0  0  0  0  0  0
    2.1576   -7.1450    1.9400 H   0  0  0  0  0  0  0  0  0  0  0  0
    4.1214   -4.9527   -0.1128 H   0  0  0  0  0  0  0  0  0  0  0  0
    5.3114   -6.0639   -1.0191 H   0  0  0  0  0  0  0  0  0  0  0  0
    6.5083   -5.1288   -0.2250 H   0  0  0  0  0  0  0  0  0  0  0  0
    3.3329   -3.7231    2.3675 H   0  0  0  0  0  0  0  0  0  0  0  0
    3.3568   -6.3483    0.0587 H   0  0  0  0  0  0  0  0  0  0  0  0
  1  2  1  0
  1 26  1  0
  1 27  1  0
  1 28  1  0
  2  3  1  0
  3  8  2  0
  3  4  1  0
  4  5  2  0
  4 29  1  0
  5  6  1  0
  5 30  1  0
  6 24  1  0
  6  7  2  0
  7 17  1  0
  7  8  1  0
  8  9  1  0
  9 10  1  0
 10 18  1  0
 10 11  1  0
 10 31  1  1
 11 12  1  0
 11 13  1  0
 11 32  1  6
 12 33  1  0
 13 25  1  0
 13 14  1  0
 13 34  1  1
 14 15  1  0
 15 16  2  0
 15 17  1  0
 17 18  1  0
 17 35  1  1
 18 25  1  0
 18 19  1  6
 19 20  1  0
 19 36  1  0
 19 37  1  0
 20 21  1  0
 20 38  1  0
 20 39  1  0
 21 22  1  0
 21 23  1  0
 21 47  1  6
 22 40  1  0
 22 41  1  0
 22 42  1  0
 23 24  1  0
 23 25  1  0
 23 43  1  1
 24 44  1  0
 24 45  1  0
 25 46  1  1
M  CHG  1  21   1
M  END
>  <i_m_ct_stereo_status>  (121) 
1

>  <s_m_source_file>  (121) 
/var/tmp/pbs.5076255.sched01/tmpn9kf4o8v/46f5dlbpu8.sdf

>  <i_m_source_file_index>  (121) 
3

>  <i_lp_mmshare_version>  (121) 
48012

>  <i_f3d_flags>  (121) 
0

>  <s_epik_input>  (121) 
W0NIM11PYzFbY0hdW2NIXWMoYzJjMU9bQ0BASF0zQzQ1NilbQ0gyXVtDQEBIXShOKFtDSDNdKVtDSDJdW0NIMl01KVtDSF02W0NASF0oW0NAQEhdM1tPSF0pT0MoPU8pW0NASF0yNA==

>  <s_epik_cmdline>  (121) 
J2VwaWtfcHl0aG9uJywgJy1waHQnLCAnMi4wJywgJy1waCcsICc3LjAnLCAnLXRuJywgJzgnLCAnLW1hJywgJzIwMCcsICctaW1hZScsICc8aW5maWxlLm1hZT4nLCAnLW9tYWUnLCAnPG91dGZpbGUubWFlPic=

>  <r_lp_tautomer_probability>  (121) 
1

>  <r_epik_Ionization_Penalty>  (121) 
0.102957

>  <r_epik_Ionization_Penalty_Charging>  (121) 
0.102879

>  <r_epik_Ionization_Penalty_Neutral>  (121) 
7.78899e-05

>  <r_epik_State_Penalty>  (121) 
0.0928267

>  <r_epik_Charging_Adjusted_Penalty>  (121) 
0.195706

>  <i_epik_Tot_Q>  (121) 
1

>  <i_epik_Tot_abs_Q>  (121) 
1

>  <s_epik_Chemistry_Notes>  (121) 
This compound has an ester and may undergo hydrolysis at high or low pH.

>  <s_lp_Force_Field>  (121) 
OPLS3e

>  <r_lp_Energy>  (121) 
341.484

>  <b_lp_Chiralities_Consistent>  (121) 
1

>  <s_lp_Variant>  (121) 
38:0-4

>  <s_i_glide_gridfile>  (121) 
pfpi4k_grid

>  <i_i_glide_lignum>  (121) 
3

>  <i_i_glide_rotatable_bonds>  (121) 
2

>  <r_i_docking_score>  (121) 
-2.91329

>  <r_i_glide_ligand_efficiency>  (121) 
-0.116532

>  <r_i_glide_ligand_efficiency_sa>  (121) 
-0.34074

>  <r_i_glide_ligand_efficiency_ln>  (121) 
-0.690537

>  <r_i_glide_gscore>  (121) 
-2.91329

>  <r_i_glide_lipo>  (121) 
-0.383579

>  <r_i_glide_hbond>  (121) 
-0.0561808

>  <r_i_glide_metal>  (121) 
-0

>  <r_i_glide_rewards>  (121) 
-1.17817

>  <r_i_glide_evdw>  (121) 
-18.5456

>  <r_i_glide_ecoul>  (121) 
-2.42036

>  <r_i_glide_erotb>  (121) 
0

>  <r_i_glide_esite>  (121) 
-0.00502399

>  <r_i_glide_emodel>  (121) 
-21.069

>  <r_i_glide_energy>  (121) 
-20.966

>  <r_i_glide_einternal>  (121) 
6.38075

>  <r_i_glide_intrahb_reward>  (121) 
-0

>  <i_i_glide_confnum>  (121) 
2

>  <i_i_glide_posenum>  (121) 
8

>  <r_i_glide_eff_state_penalty>  (121) 
0

>  <ligand_id>  (121) 
38

>  <original_smiles>  (121) 
COc1ccc2c3c1OC1C(O)C4OC(=O)C3C13CCN(C)C(C2)C43

>  <smiles>  (121) 
[H]OC1([H])C2([H])OC(=O)C3([H])c4c5c(OC([H])([H])[H])c([H])c([H])c4C([H])([H])C4([H])C2([H])C3(C([H])([H])C([H])([H])[N+]4([H])C([H])([H])[H])C1([H])O5

$$$$
38:4:0
     RDKit          3D

 46 51  0  0  1  0  0  0  0  0999 V2000
    1.7427    0.5585    3.8673 C   0  0  0  0  0  0  0  0  0  0  0  0
    2.0069   -0.8256    3.6734 O   0  0  0  0  0  0  0  0  0  0  0  0
    3.2269   -1.2010    3.1632 C   0  0  0  0  0  0  0  0  0  0  0  0
    4.2795   -0.2793    2.8475 C   0  0  0  0  0  0  0  0  0  0  0  0
    5.4303   -0.6682    2.0893 C   0  0  0  0  0  0  0  0  0  0  0  0
    5.6328   -2.0186    1.7714 C   0  0  0  0  0  0  0  0  0  0  0  0
    4.6630   -2.8634    2.3401 C   0  0  0  0  0  0  0  0  0  0  0  0
    3.3732   -2.5670    2.8206 C   0  0  0  0  0  0  0  0  0  0  0  0
    2.2911   -3.4610    2.5550 O   0  0  0  0  0  0  0  0  0  0  0  0
    2.3613   -4.3379    1.3447 C   0  0  1  0  0  0  0  0  0  0  0  0
    2.3469   -5.8007    0.8160 C   0  0  1  0  0  0  0  0  0  0  0  0
    1.4205   -5.8162   -0.2569 O   0  0  0  0  0  0  0  0  0  0  0  0
    3.8364   -6.0660    0.3114 C   0  0  2  0  0  0  0  0  0  0  0  0
    4.5247   -6.4408    1.5312 O   0  0  0  0  0  0  0  0  0  0  0  0
    4.7597   -5.4810    2.4572 C   0  0  0  0  0  0  0  0  0  0  0  0
    5.0591   -5.6135    3.6404 O   0  0  0  0  0  0  0  0  0  0  0  0
    4.6662   -4.1308    1.7483 C   0  0  1  0  0  0  0  0  0  0  0  0
    3.6226   -3.9303    0.5999 C   0  0  2  0  0  0  0  0  0  0  0  0
    3.0727   -2.6725   -0.2242 C   0  0  0  0  0  0  0  0  0  0  0  0
    3.6204   -2.5947   -1.7049 C   0  0  0  0  0  0  0  0  0  0  0  0
    5.0982   -2.7934   -1.7889 N   0  0  0  0  0  0  0  0  0  0  0  0
    5.4726   -3.4498   -3.0374 C   0  0  0  0  0  0  0  0  0  0  0  0
    5.5683   -3.5222   -0.6092 C   0  0  2  0  0  0  0  0  0  0  0  0
    6.4378   -2.6808    0.5306 C   0  0  0  0  0  0  0  0  0  0  0  0
    4.3657   -4.7173   -0.4171 C   0  0  2  0  0  0  0  0  0  0  0  0
    0.7467    0.6727    4.2850 H   0  0  0  0  0  0  0  0  0  0  0  0
    1.7650    1.1187    2.9273 H   0  0  0  0  0  0  0  0  0  0  0  0
    2.4375    1.0092    4.5730 H   0  0  0  0  0  0  0  0  0  0  0  0
    4.1552    0.7735    3.0388 H   0  0  0  0  0  0  0  0  0  0  0  0
    6.0831    0.0921    1.6822 H   0  0  0  0  0  0  0  0  0  0  0  0
    2.4247   -4.9023    2.2627 H   0  0  0  0  0  0  0  0  0  0  0  0
    1.9976   -6.5624    1.5188 H   0  0  0  0  0  0  0  0  0  0  0  0
    1.8851   -5.5230   -1.0363 H   0  0  0  0  0  0  0  0  0  0  0  0
    3.8593   -6.9049   -0.3817 H   0  0  0  0  0  0  0  0  0  0  0  0
    5.6851   -4.4111    1.5174 H   0  0  0  0  0  0  0  0  0  0  0  0
    1.9893   -2.7571   -0.3045 H   0  0  0  0  0  0  0  0  0  0  0  0
    3.2579   -1.7192    0.2781 H   0  0  0  0  0  0  0  0  0  0  0  0
    3.1334   -3.3646   -2.2990 H   0  0  0  0  0  0  0  0  0  0  0  0
    3.3474   -1.6429   -2.1579 H   0  0  0  0  0  0  0  0  0  0  0  0
    6.5611   -3.5156   -3.1167 H   0  0  0  0  0  0  0  0  0  0  0  0
    5.1248   -2.8688   -3.8893 H   0  0  0  0  0  0  0  0  0  0  0  0
    5.0565   -4.4541   -3.1247 H   0  0  0  0  0  0  0  0  0  0  0  0
    5.2159   -2.5623   -0.3086 H   0  0  0  0  0  0  0  0  0  0  0  0
    6.9573   -1.8562    0.0311 H   0  0  0  0  0  0  0  0  0  0  0  0
    7.2593   -3.2912    0.9206 H   0  0  0  0  0  0  0  0  0  0  0  0
    5.2832   -5.2825   -0.3023 H   0  0  0  0  0  0  0  0  0  0  0  0
  1  2  1  0
  1 26  1  0
  1 27  1  0
  1 28  1  0
  2  3  1  0
  3  8  2  0
  3  4  1  0
  4  5  2  0
  4 29  1  0
  5  6  1  0
  5 30  1  0
  6 24  1  0
  6  7  2  0
  7 17  1  0
  7  8  1  0
  8  9  1  0
  9 10  1  0
 10 18  1  0
 10 11  1  0
 10 31  1  6
 11 12  1  0
 11 13  1  0
 11 32  1  1
 12 33  1  0
 13 25  1  0
 13 14  1  0
 13 34  1  6
 14 15  1  0
 15 16  2  0
 15 17  1  0
 17 18  1  0
 17 35  1  6
 18 25  1  0
 18 19  1  6
 19 20  1  0
 19 36  1  0
 19 37  1  0
 20 21  1  0
 20 38  1  0
 20 39  1  0
 21 22  1  0
 21 23  1  0
 22 40  1  0
 22 41  1  0
 22 42  1  0
 23 24  1  0
 23 25  1  0
 23 43  1  6
 24 44  1  0
 24 45  1  0
 25 46  1  6
M  END
>  <i_m_ct_stereo_status>  (122) 
1

>  <s_m_source_file>  (122) 
/var/tmp/pbs.5076255.sched01/tmpn9kf4o8v/46f5dlbpu8.sdf

>  <i_m_source_file_index>  (122) 
4

>  <i_lp_mmshare_version>  (122) 
48012

>  <i_f3d_flags>  (122) 
0

>  <s_epik_input>  (122) 
W0NIM11PYzFbY0hdW2NIXWMoYzJjMU9bQ0BASF0zQzQ1NilbQ0gyXVtDQEBIXShOKFtDSDNdKVtDSDJdW0NIMl01KVtDSF02W0NASF0oW0NAQEhdM1tPSF0pT0MoPU8pW0NASF0yNA==

>  <s_epik_cmdline>  (122) 
J2VwaWtfcHl0aG9uJywgJy1waHQnLCAnMi4wJywgJy1waCcsICc3LjAnLCAnLXRuJywgJzgnLCAnLW1hJywgJzIwMCcsICctaW1hZScsICc8aW5maWxlLm1hZT4nLCAnLW9tYWUnLCAnPG91dGZpbGUubWFlPic=

>  <r_lp_tautomer_probability>  (122) 
1

>  <r_epik_Ionization_Penalty>  (122) 
1.08801

>  <r_epik_Ionization_Penalty_Charging>  (122) 
0

>  <r_epik_Ionization_Penalty_Neutral>  (122) 
1.08801

>  <r_epik_State_Penalty>  (122) 
1.14403

>  <r_epik_Charging_Adjusted_Penalty>  (122) 
1.14403

>  <i_epik_Tot_Q>  (122) 
0

>  <i_epik_Tot_abs_Q>  (122) 
0

>  <s_epik_Chemistry_Notes>  (122) 
This compound has an ester and may undergo hydrolysis at high or low pH.

>  <s_lp_Force_Field>  (122) 
OPLS3e

>  <r_lp_Energy>  (122) 
397.733

>  <b_lp_Chiralities_Consistent>  (122) 
1

>  <s_lp_Variant>  (122) 
38:0-5

>  <s_i_glide_gridfile>  (122) 
pfpi4k_grid

>  <i_i_glide_lignum>  (122) 
4

>  <i_i_glide_rotatable_bonds>  (122) 
2

>  <r_i_docking_score>  (122) 
-4.30668

>  <r_i_glide_ligand_efficiency>  (122) 
-0.172267

>  <r_i_glide_ligand_efficiency_sa>  (122) 
-0.503712

>  <r_i_glide_ligand_efficiency_ln>  (122) 
-1.02081

>  <r_i_glide_gscore>  (122) 
-4.30668

>  <r_i_glide_lipo>  (122) 
-0.696458

>  <r_i_glide_hbond>  (122) 
-0.638373

>  <r_i_glide_metal>  (122) 
-0

>  <r_i_glide_rewards>  (122) 
-1.06791

>  <r_i_glide_evdw>  (122) 
-19.8528

>  <r_i_glide_ecoul>  (122) 
-6.07536

>  <r_i_glide_erotb>  (122) 
0

>  <r_i_glide_esite>  (122) 
0

>  <r_i_glide_emodel>  (122) 
-32.1909

>  <r_i_glide_energy>  (122) 
-25.9281

>  <r_i_glide_einternal>  (122) 
0.502725

>  <r_i_glide_intrahb_reward>  (122) 
-0

>  <i_i_glide_confnum>  (122) 
2

>  <i_i_glide_posenum>  (122) 
33

>  <r_i_glide_eff_state_penalty>  (122) 
0

>  <ligand_id>  (122) 
38

>  <original_smiles>  (122) 
COc1ccc2c3c1OC1C(O)C4OC(=O)C3C13CCN(C)C(C2)C43

>  <smiles>  (122) 
[H]OC1([H])C2([H])OC(=O)C3([H])c4c5c(OC([H])([H])[H])c([H])c([H])c4C([H])([H])C4([H])N(C([H])([H])[H])C([H])([H])C([H])([H])C3(C1([H])O5)C24[H]

$$$$
38:4:1
     RDKit          3D

 46 51  0  0  1  0  0  0  0  0999 V2000
    3.1589    0.2104    4.4697 C   0  0  0  0  0  0  0  0  0  0  0  0
    3.3345   -1.1545    4.1129 O   0  0  0  0  0  0  0  0  0  0  0  0
    4.3194   -1.4852    3.2052 C   0  0  0  0  0  0  0  0  0  0  0  0
    5.1846   -0.5241    2.5917 C   0  0  0  0  0  0  0  0  0  0  0  0
    5.9997   -0.8579    1.4610 C   0  0  0  0  0  0  0  0  0  0  0  0
    6.1260   -2.1932    1.0468 C   0  0  0  0  0  0  0  0  0  0  0  0
    5.4196   -3.0771    1.8801 C   0  0  0  0  0  0  0  0  0  0  0  0
    4.3581   -2.8336    2.7811 C   0  0  0  0  0  0  0  0  0  0  0  0
    3.2634   -3.7382    2.8529 O   0  0  0  0  0  0  0  0  0  0  0  0
    2.9256   -4.5626    1.6542 C   0  0  1  0  0  0  0  0  0  0  0  0
    2.7643   -6.0070    1.0989 C   0  0  1  0  0  0  0  0  0  0  0  0
    1.5187   -6.0331    0.4233 O   0  0  0  0  0  0  0  0  0  0  0  0
    4.0035   -6.2137    0.1100 C   0  0  2  0  0  0  0  0  0  0  0  0
    5.0574   -6.6230    1.0136 O   0  0  0  0  0  0  0  0  0  0  0  0
    5.5744   -5.6985    1.8505 C   0  0  0  0  0  0  0  0  0  0  0  0
    6.2609   -5.8788    2.8569 O   0  0  0  0  0  0  0  0  0  0  0  0
    5.2384   -4.3225    1.2717 C   0  0  1  0  0  0  0  0  0  0  0  0
    3.8647   -4.0975    0.5489 C   0  0  2  0  0  0  0  0  0  0  0  0
    3.0520   -2.8225    0.0009 C   0  0  0  0  0  0  0  0  0  0  0  0
    3.0729   -2.6843   -1.5745 C   0  0  0  0  0  0  0  0  0  0  0  0
    4.4401   -2.8419   -2.1515 N   0  0  0  0  0  0  0  0  0  0  0  0
    4.3993   -3.4278   -3.4904 C   0  0  0  0  0  0  0  0  0  0  0  0
    5.2861   -3.6024   -1.2298 C   0  0  2  0  0  0  0  0  0  0  0  0
    6.4779   -2.7793   -0.4131 C   0  0  0  0  0  0  0  0  0  0  0  0
    4.2373   -4.8239   -0.6918 C   0  0  2  0  0  0  0  0  0  0  0  0
    2.3557    0.2848    5.1963 H   0  0  0  0  0  0  0  0  0  0  0  0
    2.8766    0.8329    3.6139 H   0  0  0  0  0  0  0  0  0  0  0  0
    4.0511    0.6259    4.9355 H   0  0  0  0  0  0  0  0  0  0  0  0
    5.1205    0.5082    2.8751 H   0  0  0  0  0  0  0  0  0  0  0  0
    6.4576   -0.0794    0.8700 H   0  0  0  0  0  0  0  0  0  0  0  0
    3.2998   -5.1554    2.4726 H   0  0  0  0  0  0  0  0  0  0  0  0
    2.6888   -6.8044    1.8412 H   0  0  0  0  0  0  0  0  0  0  0  0
    1.3958   -6.9174    0.1265 H   0  0  0  0  0  0  0  0  0  0  0  0
    3.8229   -7.0231   -0.5903 H   0  0  0  0  0  0  0  0  0  0  0  0
    6.1242   -4.5618    0.6976 H   0  0  0  0  0  0  0  0  0  0  0  0
    2.0031   -2.9225    0.2754 H   0  0  0  0  0  0  0  0  0  0  0  0
    3.3784   -1.8851    0.4596 H   0  0  0  0  0  0  0  0  0  0  0  0
    2.4216   -3.4492   -1.9956 H   0  0  0  0  0  0  0  0  0  0  0  0
    2.6502   -1.7258   -1.8824 H   0  0  0  0  0  0  0  0  0  0  0  0
    5.4049   -3.4738   -3.9142 H   0  0  0  0  0  0  0  0  0  0  0  0
    3.7799   -2.8261   -4.1540 H   0  0  0  0  0  0  0  0  0  0  0  0
    4.0037   -4.4363   -3.5020 H   0  0  0  0  0  0  0  0  0  0  0  0
    5.0433   -2.6572   -0.7944 H   0  0  0  0  0  0  0  0  0  0  0  0
    6.7919   -1.9219   -1.0206 H   0  0  0  0  0  0  0  0  0  0  0  0
    7.3926   -3.3789   -0.3461 H   0  0  0  0  0  0  0  0  0  0  0  0
    5.1463   -5.3748   -0.9191 H   0  0  0  0  0  0  0  0  0  0  0  0
  1  2  1  0
  1 26  1  0
  1 27  1  0
  1 28  1  0
  2  3  1  0
  3  8  2  0
  3  4  1  0
  4  5  2  0
  4 29  1  0
  5  6  1  0
  5 30  1  0
  6 24  1  0
  6  7  2  0
  7 17  1  0
  7  8  1  0
  8  9  1  0
  9 10  1  0
 10 18  1  0
 10 11  1  0
 10 31  1  6
 11 12  1  0
 11 13  1  0
 11 32  1  1
 12 33  1  0
 13 25  1  0
 13 14  1  0
 13 34  1  6
 14 15  1  0
 15 16  2  0
 15 17  1  0
 17 18  1  0
 17 35  1  6
 18 25  1  0
 18 19  1  6
 19 20  1  0
 19 36  1  0
 19 37  1  0
 20 21  1  0
 20 38  1  0
 20 39  1  0
 21 22  1  0
 21 23  1  0
 22 40  1  0
 22 41  1  0
 22 42  1  0
 23 24  1  0
 23 25  1  0
 23 43  1  6
 24 44  1  0
 24 45  1  0
 25 46  1  6
M  END
>  <i_m_ct_stereo_status>  (123) 
1

>  <s_m_source_file>  (123) 
/var/tmp/pbs.5076255.sched01/tmpn9kf4o8v/46f5dlbpu8.sdf

>  <i_m_source_file_index>  (123) 
4

>  <i_lp_mmshare_version>  (123) 
48012

>  <i_f3d_flags>  (123) 
0

>  <s_epik_input>  (123) 
W0NIM11PYzFbY0hdW2NIXWMoYzJjMU9bQ0BASF0zQzQ1NilbQ0gyXVtDQEBIXShOKFtDSDNdKVtDSDJdW0NIMl01KVtDSF02W0NASF0oW0NAQEhdM1tPSF0pT0MoPU8pW0NASF0yNA==

>  <s_epik_cmdline>  (123) 
J2VwaWtfcHl0aG9uJywgJy1waHQnLCAnMi4wJywgJy1waCcsICc3LjAnLCAnLXRuJywgJzgnLCAnLW1hJywgJzIwMCcsICctaW1hZScsICc8aW5maWxlLm1hZT4nLCAnLW9tYWUnLCAnPG91dGZpbGUubWFlPic=

>  <r_lp_tautomer_probability>  (123) 
1

>  <r_epik_Ionization_Penalty>  (123) 
1.08801

>  <r_epik_Ionization_Penalty_Charging>  (123) 
0

>  <r_epik_Ionization_Penalty_Neutral>  (123) 
1.08801

>  <r_epik_State_Penalty>  (123) 
1.14403

>  <r_epik_Charging_Adjusted_Penalty>  (123) 
1.14403

>  <i_epik_Tot_Q>  (123) 
0

>  <i_epik_Tot_abs_Q>  (123) 
0

>  <s_epik_Chemistry_Notes>  (123) 
This compound has an ester and may undergo hydrolysis at high or low pH.

>  <s_lp_Force_Field>  (123) 
OPLS3e

>  <r_lp_Energy>  (123) 
397.733

>  <b_lp_Chiralities_Consistent>  (123) 
1

>  <s_lp_Variant>  (123) 
38:0-5

>  <s_i_glide_gridfile>  (123) 
pfpi4k_grid

>  <i_i_glide_lignum>  (123) 
4

>  <i_i_glide_rotatable_bonds>  (123) 
2

>  <r_i_docking_score>  (123) 
-3.28856

>  <r_i_glide_ligand_efficiency>  (123) 
-0.131542

>  <r_i_glide_ligand_efficiency_sa>  (123) 
-0.384632

>  <r_i_glide_ligand_efficiency_ln>  (123) 
-0.779486

>  <r_i_glide_gscore>  (123) 
-3.28856

>  <r_i_glide_lipo>  (123) 
-0.753923

>  <r_i_glide_hbond>  (123) 
-0.121874

>  <r_i_glide_metal>  (123) 
-0

>  <r_i_glide_rewards>  (123) 
-1.12784

>  <r_i_glide_evdw>  (123) 
-20.0029

>  <r_i_glide_ecoul>  (123) 
-1.89846

>  <r_i_glide_erotb>  (123) 
0

>  <r_i_glide_esite>  (123) 
0

>  <r_i_glide_emodel>  (123) 
-26.9927

>  <r_i_glide_energy>  (123) 
-21.9014

>  <r_i_glide_einternal>  (123) 
0.368334

>  <r_i_glide_intrahb_reward>  (123) 
-0

>  <i_i_glide_confnum>  (123) 
2

>  <i_i_glide_posenum>  (123) 
2

>  <r_i_glide_eff_state_penalty>  (123) 
0

>  <ligand_id>  (123) 
38

>  <original_smiles>  (123) 
COc1ccc2c3c1OC1C(O)C4OC(=O)C3C13CCN(C)C(C2)C43

>  <smiles>  (123) 
[H]OC1([H])C2([H])OC(=O)C3([H])c4c5c(OC([H])([H])[H])c([H])c([H])c4C([H])([H])C4([H])N(C([H])([H])[H])C([H])([H])C([H])([H])C3(C1([H])O5)C24[H]

$$$$
38:4:2
     RDKit          3D

 46 51  0  0  1  0  0  0  0  0999 V2000
    3.5156    0.5166   -4.4546 C   0  0  0  0  0  0  0  0  0  0  0  0
    4.2180    0.1216   -3.2846 O   0  0  0  0  0  0  0  0  0  0  0  0
    3.9753   -1.1199   -2.7524 C   0  0  0  0  0  0  0  0  0  0  0  0
    2.8802   -1.9449   -3.1598 C   0  0  0  0  0  0  0  0  0  0  0  0
    2.4401   -3.0580   -2.3823 C   0  0  0  0  0  0  0  0  0  0  0  0
    3.2266   -3.4928   -1.2934 C   0  0  0  0  0  0  0  0  0  0  0  0
    4.4301   -2.7869   -1.1740 C   0  0  0  0  0  0  0  0  0  0  0  0
    4.7828   -1.5156   -1.6526 C   0  0  0  0  0  0  0  0  0  0  0  0
    5.5431   -0.6596   -0.8156 O   0  0  0  0  0  0  0  0  0  0  0  0
    5.4290   -0.7567    0.6767 C   0  0  1  0  0  0  0  0  0  0  0  0
    6.2132   -1.0506    1.9866 C   0  0  1  0  0  0  0  0  0  0  0  0
    5.7858   -0.1645    2.9991 O   0  0  0  0  0  0  0  0  0  0  0  0
    5.8097   -2.5183    2.4331 C   0  0  2  0  0  0  0  0  0  0  0  0
    6.6810   -3.3818    1.6780 O   0  0  0  0  0  0  0  0  0  0  0  0
    6.5024   -3.4137    0.3260 C   0  0  0  0  0  0  0  0  0  0  0  0
    7.2876   -3.7780   -0.5408 O   0  0  0  0  0  0  0  0  0  0  0  0
    5.0582   -3.0042    0.0606 C   0  0  1  0  0  0  0  0  0  0  0  0
    4.4146   -1.8536    0.9214 C   0  0  2  0  0  0  0  0  0  0  0  0
    3.0683   -0.9973    0.8664 C   0  0  0  0  0  0  0  0  0  0  0  0
    2.0031   -1.4068    1.9604 C   0  0  0  0  0  0  0  0  0  0  0  0
    1.8437   -2.8843    2.0872 N   0  0  0  0  0  0  0  0  0  0  0  0
    1.4674   -3.3244    3.4141 C   0  0  0  0  0  0  0  0  0  0  0  0
    2.9892   -3.5929    1.5171 C   0  0  2  0  0  0  0  0  0  0  0  0
    2.8307   -4.3376    0.0360 C   0  0  0  0  0  0  0  0  0  0  0  0
    4.2537   -2.6761    2.1432 C   0  0  2  0  0  0  0  0  0  0  0  0
    3.8515    1.5095   -4.7454 H   0  0  0  0  0  0  0  0  0  0  0  0
    2.4361    0.5841   -4.3115 H   0  0  0  0  0  0  0  0  0  0  0  0
    3.7243   -0.1590   -5.2843 H   0  0  0  0  0  0  0  0  0  0  0  0
    2.2341   -1.6251   -3.9606 H   0  0  0  0  0  0  0  0  0  0  0  0
    1.4810   -3.5123   -2.5752 H   0  0  0  0  0  0  0  0  0  0  0  0
    6.4189   -0.9826    0.2882 H   0  0  0  0  0  0  0  0  0  0  0  0
    7.3002   -0.9037    1.9196 H   0  0  0  0  0  0  0  0  0  0  0  0
    4.8376   -0.1633    3.0286 H   0  0  0  0  0  0  0  0  0  0  0  0
    6.0165   -2.6410    3.4938 H   0  0  0  0  0  0  0  0  0  0  0  0
    4.9174   -4.0438    0.3350 H   0  0  0  0  0  0  0  0  0  0  0  0
    3.2909    0.0587    1.0399 H   0  0  0  0  0  0  0  0  0  0  0  0
    2.6217   -1.0328   -0.1173 H   0  0  0  0  0  0  0  0  0  0  0  0
    2.3198   -1.0205    2.9299 H   0  0  0  0  0  0  0  0  0  0  0  0
    1.0395   -0.9542    1.7347 H   0  0  0  0  0  0  0  0  0  0  0  0
    1.2531   -4.3950    3.4078 H   0  0  0  0  0  0  0  0  0  0  0  0
    0.5533   -2.8179    3.7328 H   0  0  0  0  0  0  0  0  0  0  0  0
    2.2519   -3.1308    4.1511 H   0  0  0  0  0  0  0  0  0  0  0  0
    2.4724   -3.0735    0.7372 H   0  0  0  0  0  0  0  0  0  0  0  0
    1.8024   -4.6619   -0.1246 H   0  0  0  0  0  0  0  0  0  0  0  0
    3.3821   -5.2849    0.0094 H   0  0  0  0  0  0  0  0  0  0  0  0
    4.5550   -3.7112    2.3485 H   0  0  0  0  0  0  0  0  0  0  0  0
  1  2  1  0
  1 26  1  0
  1 27  1  0
  1 28  1  0
  2  3  1  0
  3  8  2  0
  3  4  1  0
  4  5  2  0
  4 29  1  0
  5  6  1  0
  5 30  1  0
  6 24  1  0
  6  7  2  0
  7 17  1  0
  7  8  1  0
  8  9  1  0
  9 10  1  0
 10 18  1  0
 10 11  1  0
 10 31  1  1
 11 12  1  0
 11 13  1  0
 11 32  1  6
 12 33  1  0
 13 25  1  0
 13 14  1  0
 13 34  1  1
 14 15  1  0
 15 16  2  0
 15 17  1  0
 17 18  1  0
 17 35  1  1
 18 25  1  0
 18 19  1  6
 19 20  1  0
 19 36  1  0
 19 37  1  0
 20 21  1  0
 20 38  1  0
 20 39  1  0
 21 22  1  0
 21 23  1  0
 22 40  1  0
 22 41  1  0
 22 42  1  0
 23 24  1  0
 23 25  1  0
 23 43  1  1
 24 44  1  0
 24 45  1  0
 25 46  1  1
M  END
>  <i_m_ct_stereo_status>  (124) 
1

>  <s_m_source_file>  (124) 
/var/tmp/pbs.5076255.sched01/tmpn9kf4o8v/46f5dlbpu8.sdf

>  <i_m_source_file_index>  (124) 
4

>  <i_lp_mmshare_version>  (124) 
48012

>  <i_f3d_flags>  (124) 
0

>  <s_epik_input>  (124) 
W0NIM11PYzFbY0hdW2NIXWMoYzJjMU9bQ0BASF0zQzQ1NilbQ0gyXVtDQEBIXShOKFtDSDNdKVtDSDJdW0NIMl01KVtDSF02W0NASF0oW0NAQEhdM1tPSF0pT0MoPU8pW0NASF0yNA==

>  <s_epik_cmdline>  (124) 
J2VwaWtfcHl0aG9uJywgJy1waHQnLCAnMi4wJywgJy1waCcsICc3LjAnLCAnLXRuJywgJzgnLCAnLW1hJywgJzIwMCcsICctaW1hZScsICc8aW5maWxlLm1hZT4nLCAnLW9tYWUnLCAnPG91dGZpbGUubWFlPic=

>  <r_lp_tautomer_probability>  (124) 
1

>  <r_epik_Ionization_Penalty>  (124) 
1.08801

>  <r_epik_Ionization_Penalty_Charging>  (124) 
0

>  <r_epik_Ionization_Penalty_Neutral>  (124) 
1.08801

>  <r_epik_State_Penalty>  (124) 
1.14403

>  <r_epik_Charging_Adjusted_Penalty>  (124) 
1.14403

>  <i_epik_Tot_Q>  (124) 
0

>  <i_epik_Tot_abs_Q>  (124) 
0

>  <s_epik_Chemistry_Notes>  (124) 
This compound has an ester and may undergo hydrolysis at high or low pH.

>  <s_lp_Force_Field>  (124) 
OPLS3e

>  <r_lp_Energy>  (124) 
397.733

>  <b_lp_Chiralities_Consistent>  (124) 
1

>  <s_lp_Variant>  (124) 
38:0-5

>  <s_i_glide_gridfile>  (124) 
pfpi4k_grid

>  <i_i_glide_lignum>  (124) 
4

>  <i_i_glide_rotatable_bonds>  (124) 
2

>  <r_i_docking_score>  (124) 
-2.88814

>  <r_i_glide_ligand_efficiency>  (124) 
-0.115526

>  <r_i_glide_ligand_efficiency_sa>  (124) 
-0.337799

>  <r_i_glide_ligand_efficiency_ln>  (124) 
-0.684576

>  <r_i_glide_gscore>  (124) 
-2.88814

>  <r_i_glide_lipo>  (124) 
-0.472564

>  <r_i_glide_hbond>  (124) 
-0.118593

>  <r_i_glide_metal>  (124) 
-0

>  <r_i_glide_rewards>  (124) 
-1.20244

>  <r_i_glide_evdw>  (124) 
-21.0642

>  <r_i_glide_ecoul>  (124) 
-0.275541

>  <r_i_glide_erotb>  (124) 
0

>  <r_i_glide_esite>  (124) 
0

>  <r_i_glide_emodel>  (124) 
-25.8589

>  <r_i_glide_energy>  (124) 
-21.3397

>  <r_i_glide_einternal>  (124) 
0.194417

>  <r_i_glide_intrahb_reward>  (124) 
-0

>  <i_i_glide_confnum>  (124) 
2

>  <i_i_glide_posenum>  (124) 
23

>  <r_i_glide_eff_state_penalty>  (124) 
0

>  <ligand_id>  (124) 
38

>  <original_smiles>  (124) 
COc1ccc2c3c1OC1C(O)C4OC(=O)C3C13CCN(C)C(C2)C43

>  <smiles>  (124) 
[H]OC1([H])C2([H])OC(=O)C3([H])c4c5c(OC([H])([H])[H])c([H])c([H])c4C([H])([H])C4([H])N(C([H])([H])[H])C([H])([H])C([H])([H])C3(C1([H])O5)C24[H]

$$$$
38:5:0
     RDKit          3D

 46 51  0  0  1  0  0  0  0  0999 V2000
    3.5040    0.6990   -4.4582 C   0  0  0  0  0  0  0  0  0  0  0  0
    4.2190    0.2807   -3.3085 O   0  0  0  0  0  0  0  0  0  0  0  0
    4.0841   -1.0217   -2.8979 C   0  0  0  0  0  0  0  0  0  0  0  0
    3.0458   -1.8898   -3.3532 C   0  0  0  0  0  0  0  0  0  0  0  0
    2.7438   -3.1225   -2.7082 C   0  0  0  0  0  0  0  0  0  0  0  0
    3.6045   -3.5820   -1.6801 C   0  0  0  0  0  0  0  0  0  0  0  0
    4.7281   -2.7796   -1.5183 C   0  0  0  0  0  0  0  0  0  0  0  0
    4.9737   -1.4441   -1.8582 C   0  0  0  0  0  0  0  0  0  0  0  0
    5.7341   -0.6541   -0.9593 O   0  0  0  0  0  0  0  0  0  0  0  0
    5.4228   -0.8144    0.5079 C   0  0  2  0  0  0  0  0  0  0  0  0
    6.4162   -1.1576    1.6283 C   0  0  1  0  0  0  0  0  0  0  0  0
    6.2143   -0.3467    2.7819 O   0  0  0  0  0  0  0  0  0  0  0  0
    6.1320   -2.6586    2.0151 C   0  0  2  0  0  0  0  0  0  0  0  0
    7.0957   -3.3314    1.1700 O   0  0  0  0  0  0  0  0  0  0  0  0
    6.8843   -3.2277   -0.1452 C   0  0  0  0  0  0  0  0  0  0  0  0
    7.6896   -3.3469   -1.0666 O   0  0  0  0  0  0  0  0  0  0  0  0
    5.3778   -3.0415   -0.3117 C   0  0  1  0  0  0  0  0  0  0  0  0
    4.5733   -2.0667    0.6683 C   0  0  2  0  0  0  0  0  0  0  0  0
    3.0888   -1.4689    0.7027 C   0  0  0  0  0  0  0  0  0  0  0  0
    2.1524   -2.1645    1.7775 C   0  0  0  0  0  0  0  0  0  0  0  0
    2.2272   -3.6512    1.7306 N   0  0  0  0  0  0  0  0  0  0  0  0
    2.0008   -4.2556    3.0333 C   0  0  0  0  0  0  0  0  0  0  0  0
    3.4606   -4.0721    1.0889 C   0  0  2  0  0  0  0  0  0  0  0  0
    3.3561   -4.6322   -0.4669 C   0  0  0  0  0  0  0  0  0  0  0  0
    4.5895   -3.0260    1.7893 C   0  0  2  0  0  0  0  0  0  0  0  0
    3.7652    1.7389   -4.6508 H   0  0  0  0  0  0  0  0  0  0  0  0
    2.4172    0.6603   -4.3219 H   0  0  0  0  0  0  0  0  0  0  0  0
    3.7862    0.1260   -5.3460 H   0  0  0  0  0  0  0  0  0  0  0  0
    2.3368   -1.5601   -4.0981 H   0  0  0  0  0  0  0  0  0  0  0  0
    1.8512   -3.6664   -2.9440 H   0  0  0  0  0  0  0  0  0  0  0  0
    4.9490    0.1296    0.7789 H   0  0  0  0  0  0  0  0  0  0  0  0
    7.4446   -0.9658    1.3054 H   0  0  0  0  0  0  0  0  0  0  0  0
    6.8353    0.3510    2.6923 H   0  0  0  0  0  0  0  0  0  0  0  0
    6.3031   -2.7673    3.0735 H   0  0  0  0  0  0  0  0  0  0  0  0
    5.4058   -4.1147   -0.1421 H   0  0  0  0  0  0  0  0  0  0  0  0
    3.0533   -0.4219    1.0025 H   0  0  0  0  0  0  0  0  0  0  0  0
    2.6233   -1.4952   -0.2823 H   0  0  0  0  0  0  0  0  0  0  0  0
    2.4501   -1.8169    2.7676 H   0  0  0  0  0  0  0  0  0  0  0  0
    1.1206   -1.8375    1.6394 H   0  0  0  0  0  0  0  0  0  0  0  0
    1.9703   -5.3422    2.9399 H   0  0  0  0  0  0  0  0  0  0  0  0
    1.0315   -3.9425    3.4316 H   0  0  0  0  0  0  0  0  0  0  0  0
    2.7714   -3.9933    3.7640 H   0  0  0  0  0  0  0  0  0  0  0  0
    2.8408   -3.5681    0.3786 H   0  0  0  0  0  0  0  0  0  0  0  0
    2.3687   -5.0571   -0.6459 H   0  0  0  0  0  0  0  0  0  0  0  0
    4.0234   -5.4892   -0.6103 H   0  0  0  0  0  0  0  0  0  0  0  0
    5.0558   -4.0080    1.9010 H   0  0  0  0  0  0  0  0  0  0  0  0
  1  2  1  0
  1 26  1  0
  1 27  1  0
  1 28  1  0
  2  3  1  0
  3  8  2  0
  3  4  1  0
  4  5  2  0
  4 29  1  0
  5  6  1  0
  5 30  1  0
  6 24  1  0
  6  7  2  0
  7 17  1  0
  7  8  1  0
  8  9  1  0
  9 10  1  0
 10 18  1  0
 10 11  1  0
 10 31  1  1
 11 12  1  0
 11 13  1  0
 11 32  1  6
 12 33  1  0
 13 25  1  0
 13 14  1  0
 13 34  1  1
 14 15  1  0
 15 16  2  0
 15 17  1  0
 17 18  1  0
 17 35  1  1
 18 25  1  0
 18 19  1  6
 19 20  1  0
 19 36  1  0
 19 37  1  0
 20 21  1  0
 20 38  1  0
 20 39  1  0
 21 22  1  0
 21 23  1  0
 22 40  1  0
 22 41  1  0
 22 42  1  0
 23 24  1  0
 23 25  1  0
 23 43  1  1
 24 44  1  0
 24 45  1  0
 25 46  1  1
M  END
>  <i_m_ct_stereo_status>  (125) 
1

>  <s_m_source_file>  (125) 
/var/tmp/pbs.5076255.sched01/tmpn9kf4o8v/46f5dlbpu8.sdf

>  <i_m_source_file_index>  (125) 
5

>  <i_lp_mmshare_version>  (125) 
48012

>  <i_f3d_flags>  (125) 
0

>  <s_epik_input>  (125) 
W0NIM11PYzFbY0hdW2NIXWMoYzJjMU9bQ0BASF0zQzQ1NilbQ0gyXVtDQEBIXShOKFtDSDNdKVtDSDJdW0NIMl01KVtDSF02W0NASF0oW0NAQEhdM1tPSF0pT0MoPU8pW0NASF0yNA==

>  <s_epik_cmdline>  (125) 
J2VwaWtfcHl0aG9uJywgJy1waHQnLCAnMi4wJywgJy1waCcsICc3LjAnLCAnLXRuJywgJzgnLCAnLW1hJywgJzIwMCcsICctaW1hZScsICc8aW5maWxlLm1hZT4nLCAnLW9tYWUnLCAnPG91dGZpbGUubWFlPic=

>  <r_lp_tautomer_probability>  (125) 
1

>  <r_epik_Ionization_Penalty>  (125) 
1.08801

>  <r_epik_Ionization_Penalty_Charging>  (125) 
0

>  <r_epik_Ionization_Penalty_Neutral>  (125) 
1.08801

>  <r_epik_State_Penalty>  (125) 
1.14403

>  <r_epik_Charging_Adjusted_Penalty>  (125) 
1.14403

>  <i_epik_Tot_Q>  (125) 
0

>  <i_epik_Tot_abs_Q>  (125) 
0

>  <s_epik_Chemistry_Notes>  (125) 
This compound has an ester and may undergo hydrolysis at high or low pH.

>  <s_lp_Force_Field>  (125) 
OPLS3e

>  <r_lp_Energy>  (125) 
358.224

>  <b_lp_Chiralities_Consistent>  (125) 
1

>  <s_lp_Variant>  (125) 
38:0-6

>  <s_i_glide_gridfile>  (125) 
pfpi4k_grid

>  <i_i_glide_lignum>  (125) 
5

>  <i_i_glide_rotatable_bonds>  (125) 
2

>  <r_i_docking_score>  (125) 
-3.69283

>  <r_i_glide_ligand_efficiency>  (125) 
-0.147713

>  <r_i_glide_ligand_efficiency_sa>  (125) 
-0.431916

>  <r_i_glide_ligand_efficiency_ln>  (125) 
-0.875311

>  <r_i_glide_gscore>  (125) 
-3.69283

>  <r_i_glide_lipo>  (125) 
-0.505818

>  <r_i_glide_hbond>  (125) 
-0.436767

>  <r_i_glide_metal>  (125) 
-0

>  <r_i_glide_rewards>  (125) 
-1.22903

>  <r_i_glide_evdw>  (125) 
-17.6863

>  <r_i_glide_ecoul>  (125) 
-4.24601

>  <r_i_glide_erotb>  (125) 
0

>  <r_i_glide_esite>  (125) 
0

>  <r_i_glide_emodel>  (125) 
-24.6756

>  <r_i_glide_energy>  (125) 
-21.9323

>  <r_i_glide_einternal>  (125) 
1.49359

>  <r_i_glide_intrahb_reward>  (125) 
-0

>  <i_i_glide_confnum>  (125) 
2

>  <i_i_glide_posenum>  (125) 
1

>  <r_i_glide_eff_state_penalty>  (125) 
0

>  <ligand_id>  (125) 
38

>  <original_smiles>  (125) 
COc1ccc2c3c1OC1C(O)C4OC(=O)C3C13CCN(C)C(C2)C43

>  <smiles>  (125) 
[H]OC1([H])C2([H])OC(=O)C3([H])c4c5c(OC([H])([H])[H])c([H])c([H])c4C([H])([H])C4([H])N(C([H])([H])[H])C([H])([H])C([H])([H])C3(C1([H])O5)C24[H]

$$$$
38:5:1
     RDKit          3D

 46 51  0  0  1  0  0  0  0  0999 V2000
    3.5183    0.6827   -4.4377 C   0  0  0  0  0  0  0  0  0  0  0  0
    4.2077    0.2716   -3.2805 O   0  0  0  0  0  0  0  0  0  0  0  0
    4.1017   -1.0246   -2.8630 C   0  0  0  0  0  0  0  0  0  0  0  0
    3.0529   -1.8943   -3.3261 C   0  0  0  0  0  0  0  0  0  0  0  0
    2.7502   -3.1207   -2.6757 C   0  0  0  0  0  0  0  0  0  0  0  0
    3.6040   -3.5708   -1.6478 C   0  0  0  0  0  0  0  0  0  0  0  0
    4.7324   -2.7647   -1.4774 C   0  0  0  0  0  0  0  0  0  0  0  0
    4.9747   -1.4460   -1.8247 C   0  0  0  0  0  0  0  0  0  0  0  0
    5.7471   -0.6562   -0.9179 O   0  0  0  0  0  0  0  0  0  0  0  0
    5.4218   -0.8027    0.5491 C   0  0  2  0  0  0  0  0  0  0  0  0
    6.3901   -1.1371    1.6945 C   0  0  1  0  0  0  0  0  0  0  0  0
    6.1146   -0.3775    2.8687 O   0  0  0  0  0  0  0  0  0  0  0  0
    6.1154   -2.6496    2.0507 C   0  0  2  0  0  0  0  0  0  0  0  0
    7.0761   -3.3375    1.1973 O   0  0  0  0  0  0  0  0  0  0  0  0
    6.8572   -3.2191   -0.1306 C   0  0  0  0  0  0  0  0  0  0  0  0
    7.6570   -3.3341   -1.0529 O   0  0  0  0  0  0  0  0  0  0  0  0
    5.3663   -3.0315   -0.2890 C   0  0  1  0  0  0  0  0  0  0  0  0
    4.5703   -2.0583    0.7008 C   0  0  2  0  0  0  0  0  0  0  0  0
    3.0800   -1.4663    0.7317 C   0  0  0  0  0  0  0  0  0  0  0  0
    2.1576   -2.1688    1.8032 C   0  0  0  0  0  0  0  0  0  0  0  0
    2.2296   -3.6559    1.7581 N   0  0  0  0  0  0  0  0  0  0  0  0
    2.0074   -4.2655    3.0597 C   0  0  0  0  0  0  0  0  0  0  0  0
    3.4660   -4.0859    1.1180 C   0  0  2  0  0  0  0  0  0  0  0  0
    3.3721   -4.6283   -0.4428 C   0  0  0  0  0  0  0  0  0  0  0  0
    4.5774   -3.0223    1.8238 C   0  0  2  0  0  0  0  0  0  0  0  0
    3.7824    1.7214   -4.6265 H   0  0  0  0  0  0  0  0  0  0  0  0
    2.4313    0.6429   -4.3207 H   0  0  0  0  0  0  0  0  0  0  0  0
    3.8135    0.1096   -5.3190 H   0  0  0  0  0  0  0  0  0  0  0  0
    2.3505   -1.5659   -4.0725 H   0  0  0  0  0  0  0  0  0  0  0  0
    1.8481   -3.6733   -2.9169 H   0  0  0  0  0  0  0  0  0  0  0  0
    4.9413    0.1333    0.8260 H   0  0  0  0  0  0  0  0  0  0  0  0
    7.4161   -0.9552    1.3669 H   0  0  0  0  0  0  0  0  0  0  0  0
    5.1991   -0.4613    3.0838 H   0  0  0  0  0  0  0  0  0  0  0  0
    6.2181   -2.7467    3.1211 H   0  0  0  0  0  0  0  0  0  0  0  0
    5.4204   -4.1017   -0.1125 H   0  0  0  0  0  0  0  0  0  0  0  0
    3.0500   -0.4127    1.0112 H   0  0  0  0  0  0  0  0  0  0  0  0
    2.6190   -1.5384   -0.2435 H   0  0  0  0  0  0  0  0  0  0  0  0
    2.4381   -1.8402    2.8013 H   0  0  0  0  0  0  0  0  0  0  0  0
    1.1365   -1.8552    1.6470 H   0  0  0  0  0  0  0  0  0  0  0  0
    1.9741   -5.3505    2.9641 H   0  0  0  0  0  0  0  0  0  0  0  0
    1.0371   -3.9522    3.4445 H   0  0  0  0  0  0  0  0  0  0  0  0
    2.7738   -4.0003    3.7940 H   0  0  0  0  0  0  0  0  0  0  0  0
    2.8643   -3.5686    0.4130 H   0  0  0  0  0  0  0  0  0  0  0  0
    2.3794   -5.0466   -0.5971 H   0  0  0  0  0  0  0  0  0  0  0  0
    4.0415   -5.4848   -0.5718 H   0  0  0  0  0  0  0  0  0  0  0  0
    5.0535   -3.9919    1.9238 H   0  0  0  0  0  0  0  0  0  0  0  0
  1  2  1  0
  1 26  1  0
  1 27  1  0
  1 28  1  0
  2  3  1  0
  3  8  2  0
  3  4  1  0
  4  5  2  0
  4 29  1  0
  5  6  1  0
  5 30  1  0
  6 24  1  0
  6  7  2  0
  7 17  1  0
  7  8  1  0
  8  9  1  0
  9 10  1  0
 10 18  1  0
 10 11  1  0
 10 31  1  1
 11 12  1  0
 11 13  1  0
 11 32  1  6
 12 33  1  0
 13 25  1  0
 13 14  1  0
 13 34  1  1
 14 15  1  0
 15 16  2  0
 15 17  1  0
 17 18  1  0
 17 35  1  1
 18 25  1  0
 18 19  1  6
 19 20  1  0
 19 36  1  0
 19 37  1  0
 20 21  1  0
 20 38  1  0
 20 39  1  0
 21 22  1  0
 21 23  1  0
 22 40  1  0
 22 41  1  0
 22 42  1  0
 23 24  1  0
 23 25  1  0
 23 43  1  1
 24 44  1  0
 24 45  1  0
 25 46  1  1
M  END
>  <i_m_ct_stereo_status>  (126) 
1

>  <s_m_source_file>  (126) 
/var/tmp/pbs.5076255.sched01/tmpn9kf4o8v/46f5dlbpu8.sdf

>  <i_m_source_file_index>  (126) 
5

>  <i_lp_mmshare_version>  (126) 
48012

>  <i_f3d_flags>  (126) 
0

>  <s_epik_input>  (126) 
W0NIM11PYzFbY0hdW2NIXWMoYzJjMU9bQ0BASF0zQzQ1NilbQ0gyXVtDQEBIXShOKFtDSDNdKVtDSDJdW0NIMl01KVtDSF02W0NASF0oW0NAQEhdM1tPSF0pT0MoPU8pW0NASF0yNA==

>  <s_epik_cmdline>  (126) 
J2VwaWtfcHl0aG9uJywgJy1waHQnLCAnMi4wJywgJy1waCcsICc3LjAnLCAnLXRuJywgJzgnLCAnLW1hJywgJzIwMCcsICctaW1hZScsICc8aW5maWxlLm1hZT4nLCAnLW9tYWUnLCAnPG91dGZpbGUubWFlPic=

>  <r_lp_tautomer_probability>  (126) 
1

>  <r_epik_Ionization_Penalty>  (126) 
1.08801

>  <r_epik_Ionization_Penalty_Charging>  (126) 
0

>  <r_epik_Ionization_Penalty_Neutral>  (126) 
1.08801

>  <r_epik_State_Penalty>  (126) 
1.14403

>  <r_epik_Charging_Adjusted_Penalty>  (126) 
1.14403

>  <i_epik_Tot_Q>  (126) 
0

>  <i_epik_Tot_abs_Q>  (126) 
0

>  <s_epik_Chemistry_Notes>  (126) 
This compound has an ester and may undergo hydrolysis at high or low pH.

>  <s_lp_Force_Field>  (126) 
OPLS3e

>  <r_lp_Energy>  (126) 
358.224

>  <b_lp_Chiralities_Consistent>  (126) 
1

>  <s_lp_Variant>  (126) 
38:0-6

>  <s_i_glide_gridfile>  (126) 
pfpi4k_grid

>  <i_i_glide_lignum>  (126) 
5

>  <i_i_glide_rotatable_bonds>  (126) 
2

>  <r_i_docking_score>  (126) 
-3.05406

>  <r_i_glide_ligand_efficiency>  (126) 
-0.122162

>  <r_i_glide_ligand_efficiency_sa>  (126) 
-0.357204

>  <r_i_glide_ligand_efficiency_ln>  (126) 
-0.723903

>  <r_i_glide_gscore>  (126) 
-3.05406

>  <r_i_glide_lipo>  (126) 
-0.481727

>  <r_i_glide_hbond>  (126) 
-0.0752918

>  <r_i_glide_metal>  (126) 
-0

>  <r_i_glide_rewards>  (126) 
-1.22497

>  <r_i_glide_evdw>  (126) 
-20.6875

>  <r_i_glide_ecoul>  (126) 
-1.58462

>  <r_i_glide_erotb>  (126) 
0

>  <r_i_glide_esite>  (126) 
0

>  <r_i_glide_emodel>  (126) 
-23.7881

>  <r_i_glide_energy>  (126) 
-22.2722

>  <r_i_glide_einternal>  (126) 
0.339771

>  <r_i_glide_intrahb_reward>  (126) 
-0

>  <i_i_glide_confnum>  (126) 
2

>  <i_i_glide_posenum>  (126) 
40

>  <r_i_glide_eff_state_penalty>  (126) 
0

>  <ligand_id>  (126) 
38

>  <original_smiles>  (126) 
COc1ccc2c3c1OC1C(O)C4OC(=O)C3C13CCN(C)C(C2)C43

>  <smiles>  (126) 
[H]OC1([H])C2([H])OC(=O)C3([H])c4c5c(OC([H])([H])[H])c([H])c([H])c4C([H])([H])C4([H])N(C([H])([H])[H])C([H])([H])C([H])([H])C3(C1([H])O5)C24[H]

$$$$
38:5:2
     RDKit          3D

 46 51  0  0  1  0  0  0  0  0999 V2000
    4.1931    0.6937   -3.7980 C   0  0  0  0  0  0  0  0  0  0  0  0
    3.0807   -0.0960   -3.4473 O   0  0  0  0  0  0  0  0  0  0  0  0
    3.3659   -1.2662   -2.8387 C   0  0  0  0  0  0  0  0  0  0  0  0
    2.4454   -2.3033   -3.1138 C   0  0  0  0  0  0  0  0  0  0  0  0
    2.4317   -3.4750   -2.3470 C   0  0  0  0  0  0  0  0  0  0  0  0
    3.4954   -3.8102   -1.4737 C   0  0  0  0  0  0  0  0  0  0  0  0
    4.4653   -2.8130   -1.4699 C   0  0  0  0  0  0  0  0  0  0  0  0
    4.3996   -1.4832   -1.8712 C   0  0  0  0  0  0  0  0  0  0  0  0
    5.0810   -0.5556   -1.0557 O   0  0  0  0  0  0  0  0  0  0  0  0
    4.9188   -0.6946    0.4345 C   0  0  2  0  0  0  0  0  0  0  0  0
    6.0651   -0.7742    1.4525 C   0  0  1  0  0  0  0  0  0  0  0  0
    5.7496   -0.0612    2.6317 O   0  0  0  0  0  0  0  0  0  0  0  0
    6.1930   -2.2833    1.8738 C   0  0  2  0  0  0  0  0  0  0  0  0
    7.1680   -2.7382    0.9162 O   0  0  0  0  0  0  0  0  0  0  0  0
    6.7755   -2.7721   -0.3558 C   0  0  0  0  0  0  0  0  0  0  0  0
    7.4834   -2.7871   -1.3577 O   0  0  0  0  0  0  0  0  0  0  0  0
    5.2645   -2.9134   -0.3403 C   0  0  1  0  0  0  0  0  0  0  0  0
    4.3788   -2.0872    0.7163 C   0  0  2  0  0  0  0  0  0  0  0  0
    2.8103   -1.8015    0.9301 C   0  0  0  0  0  0  0  0  0  0  0  0
    2.1606   -2.6273    2.1020 C   0  0  0  0  0  0  0  0  0  0  0  0
    2.5132   -4.0729    2.0450 N   0  0  0  0  0  0  0  0  0  0  0  0
    2.5841   -4.6632    3.3732 C   0  0  0  0  0  0  0  0  0  0  0  0
    3.7453   -4.2544    1.2738 C   0  0  2  0  0  0  0  0  0  0  0  0
    3.5925   -4.8703   -0.2623 C   0  0  0  0  0  0  0  0  0  0  0  0
    4.7269   -2.9771    1.8531 C   0  0  2  0  0  0  0  0  0  0  0  0
    3.8749    1.6988   -4.0748 H   0  0  0  0  0  0  0  0  0  0  0  0
    4.6232    0.2001   -4.6628 H   0  0  0  0  0  0  0  0  0  0  0  0
    4.9133    0.7980   -3.0046 H   0  0  0  0  0  0  0  0  0  0  0  0
    1.6320   -2.2042   -3.8154 H   0  0  0  0  0  0  0  0  0  0  0  0
    1.6405   -4.1855   -2.5011 H   0  0  0  0  0  0  0  0  0  0  0  0
    4.2842    0.1452    0.7225 H   0  0  0  0  0  0  0  0  0  0  0  0
    6.9488   -0.3614    0.9603 H   0  0  0  0  0  0  0  0  0  0  0  0
    6.5716    0.1278    3.0640 H   0  0  0  0  0  0  0  0  0  0  0  0
    6.6109   -2.3105    2.8779 H   0  0  0  0  0  0  0  0  0  0  0  0
    5.5278   -3.9511   -0.1595 H   0  0  0  0  0  0  0  0  0  0  0  0
    2.5808   -0.7682    1.1898 H   0  0  0  0  0  0  0  0  0  0  0  0
    2.2697   -2.0112    0.0237 H   0  0  0  0  0  0  0  0  0  0  0  0
    2.4980   -2.2010    3.0455 H   0  0  0  0  0  0  0  0  0  0  0  0
    1.0803   -2.5074    2.0887 H   0  0  0  0  0  0  0  0  0  0  0  0
    2.7822   -5.7314    3.2976 H   0  0  0  0  0  0  0  0  0  0  0  0
    1.6310   -4.5444    3.8865 H   0  0  0  0  0  0  0  0  0  0  0  0
    3.3625   -4.2100    3.9877 H   0  0  0  0  0  0  0  0  0  0  0  0
    2.9615   -3.9139    0.6354 H   0  0  0  0  0  0  0  0  0  0  0  0
    2.7166   -5.5177   -0.3055 H   0  0  0  0  0  0  0  0  0  0  0  0
    4.4072   -5.5733   -0.4746 H   0  0  0  0  0  0  0  0  0  0  0  0
    5.3911   -3.8337    1.8966 H   0  0  0  0  0  0  0  0  0  0  0  0
  1  2  1  0
  1 26  1  0
  1 27  1  0
  1 28  1  0
  2  3  1  0
  3  8  2  0
  3  4  1  0
  4  5  2  0
  4 29  1  0
  5  6  1  0
  5 30  1  0
  6 24  1  0
  6  7  2  0
  7 17  1  0
  7  8  1  0
  8  9  1  0
  9 10  1  0
 10 18  1  0
 10 11  1  0
 10 31  1  1
 11 12  1  0
 11 13  1  0
 11 32  1  6
 12 33  1  0
 13 25  1  0
 13 14  1  0
 13 34  1  1
 14 15  1  0
 15 16  2  0
 15 17  1  0
 17 18  1  0
 17 35  1  1
 18 25  1  0
 18 19  1  6
 19 20  1  0
 19 36  1  0
 19 37  1  0
 20 21  1  0
 20 38  1  0
 20 39  1  0
 21 22  1  0
 21 23  1  0
 22 40  1  0
 22 41  1  0
 22 42  1  0
 23 24  1  0
 23 25  1  0
 23 43  1  1
 24 44  1  0
 24 45  1  0
 25 46  1  1
M  END
>  <i_m_ct_stereo_status>  (127) 
1

>  <s_m_source_file>  (127) 
/var/tmp/pbs.5076255.sched01/tmpn9kf4o8v/46f5dlbpu8.sdf

>  <i_m_source_file_index>  (127) 
5

>  <i_lp_mmshare_version>  (127) 
48012

>  <i_f3d_flags>  (127) 
0

>  <s_epik_input>  (127) 
W0NIM11PYzFbY0hdW2NIXWMoYzJjMU9bQ0BASF0zQzQ1NilbQ0gyXVtDQEBIXShOKFtDSDNdKVtDSDJdW0NIMl01KVtDSF02W0NASF0oW0NAQEhdM1tPSF0pT0MoPU8pW0NASF0yNA==

>  <s_epik_cmdline>  (127) 
J2VwaWtfcHl0aG9uJywgJy1waHQnLCAnMi4wJywgJy1waCcsICc3LjAnLCAnLXRuJywgJzgnLCAnLW1hJywgJzIwMCcsICctaW1hZScsICc8aW5maWxlLm1hZT4nLCAnLW9tYWUnLCAnPG91dGZpbGUubWFlPic=

>  <r_lp_tautomer_probability>  (127) 
1

>  <r_epik_Ionization_Penalty>  (127) 
1.08801

>  <r_epik_Ionization_Penalty_Charging>  (127) 
0

>  <r_epik_Ionization_Penalty_Neutral>  (127) 
1.08801

>  <r_epik_State_Penalty>  (127) 
1.14403

>  <r_epik_Charging_Adjusted_Penalty>  (127) 
1.14403

>  <i_epik_Tot_Q>  (127) 
0

>  <i_epik_Tot_abs_Q>  (127) 
0

>  <s_epik_Chemistry_Notes>  (127) 
This compound has an ester and may undergo hydrolysis at high or low pH.

>  <s_lp_Force_Field>  (127) 
OPLS3e

>  <r_lp_Energy>  (127) 
358.224

>  <b_lp_Chiralities_Consistent>  (127) 
1

>  <s_lp_Variant>  (127) 
38:0-6

>  <s_i_glide_gridfile>  (127) 
pfpi4k_grid

>  <i_i_glide_lignum>  (127) 
5

>  <i_i_glide_rotatable_bonds>  (127) 
2

>  <r_i_docking_score>  (127) 
-2.54727

>  <r_i_glide_ligand_efficiency>  (127) 
-0.101891

>  <r_i_glide_ligand_efficiency_sa>  (127) 
-0.297931

>  <r_i_glide_ligand_efficiency_ln>  (127) 
-0.603779

>  <r_i_glide_gscore>  (127) 
-2.54727

>  <r_i_glide_lipo>  (127) 
-0.503026

>  <r_i_glide_hbond>  (127) 
-0.0893901

>  <r_i_glide_metal>  (127) 
-0

>  <r_i_glide_rewards>  (127) 
-1.08841

>  <r_i_glide_evdw>  (127) 
-9.02098

>  <r_i_glide_ecoul>  (127) 
-2.76933

>  <r_i_glide_erotb>  (127) 
0

>  <r_i_glide_esite>  (127) 
0

>  <r_i_glide_emodel>  (127) 
-11.46

>  <r_i_glide_energy>  (127) 
-11.7903

>  <r_i_glide_einternal>  (127) 
4.97133

>  <r_i_glide_intrahb_reward>  (127) 
-0

>  <i_i_glide_confnum>  (127) 
2

>  <i_i_glide_posenum>  (127) 
25

>  <r_i_glide_eff_state_penalty>  (127) 
0

>  <ligand_id>  (127) 
38

>  <original_smiles>  (127) 
COc1ccc2c3c1OC1C(O)C4OC(=O)C3C13CCN(C)C(C2)C43

>  <smiles>  (127) 
[H]OC1([H])C2([H])OC(=O)C3([H])c4c5c(OC([H])([H])[H])c([H])c([H])c4C([H])([H])C4([H])N(C([H])([H])[H])C([H])([H])C([H])([H])C3(C1([H])O5)C24[H]

$$$$
38:6:0
     RDKit          3D

 46 51  0  0  1  0  0  0  0  0999 V2000
    3.0872    0.5663   -4.6847 C   0  0  0  0  0  0  0  0  0  0  0  0
    3.9386    0.1877   -3.6113 O   0  0  0  0  0  0  0  0  0  0  0  0
    3.8658   -1.0962   -3.1254 C   0  0  0  0  0  0  0  0  0  0  0  0
    2.8701   -2.0359   -3.5213 C   0  0  0  0  0  0  0  0  0  0  0  0
    2.6587   -3.2508   -2.8092 C   0  0  0  0  0  0  0  0  0  0  0  0
    3.5560   -3.6238   -1.7853 C   0  0  0  0  0  0  0  0  0  0  0  0
    4.6410   -2.7689   -1.6825 C   0  0  0  0  0  0  0  0  0  0  0  0
    4.7760   -1.4468   -2.0945 C   0  0  0  0  0  0  0  0  0  0  0  0
    5.4600   -0.5650   -1.2182 O   0  0  0  0  0  0  0  0  0  0  0  0
    5.4651   -0.7232    0.2809 C   0  0  2  0  0  0  0  0  0  0  0  0
    6.3731   -1.1312    1.5116 C   0  0  1  0  0  0  0  0  0  0  0  0
    5.9066   -0.4130    2.6388 O   0  0  0  0  0  0  0  0  0  0  0  0
    6.1661   -2.6795    1.8387 C   0  0  2  0  0  0  0  0  0  0  0  0
    7.1058   -3.3154    0.9520 O   0  0  0  0  0  0  0  0  0  0  0  0
    6.8477   -3.2007   -0.3602 C   0  0  0  0  0  0  0  0  0  0  0  0
    7.6193   -3.3540   -1.2946 O   0  0  0  0  0  0  0  0  0  0  0  0
    5.3510   -2.9412   -0.4998 C   0  0  1  0  0  0  0  0  0  0  0  0
    4.5863   -1.9294    0.4613 C   0  0  2  0  0  0  0  0  0  0  0  0
    3.1063   -1.3300    0.4838 C   0  0  0  0  0  0  0  0  0  0  0  0
    2.1084   -2.0075    1.5189 C   0  0  0  0  0  0  0  0  0  0  0  0
    2.2533   -3.5019    1.5943 N   0  0  0  0  0  0  0  0  0  0  0  0
    1.9434   -4.0454    2.9065 C   0  0  0  0  0  0  0  0  0  0  0  0
    3.5065   -3.9871    1.0172 C   0  0  2  0  0  0  0  0  0  0  0  0
    3.3640   -4.6217   -0.5085 C   0  0  0  0  0  0  0  0  0  0  0  0
    4.6210   -2.8584    1.5844 C   0  0  1  0  0  0  0  0  0  0  0  0
    3.2839    1.6099   -4.9285 H   0  0  0  0  0  0  0  0  0  0  0  0
    2.0280    0.5058   -4.4378 H   0  0  0  0  0  0  0  0  0  0  0  0
    3.2929   -0.0237   -5.5752 H   0  0  0  0  0  0  0  0  0  0  0  0
    2.1330   -1.7855   -4.2763 H   0  0  0  0  0  0  0  0  0  0  0  0
    1.7965   -3.8591   -3.0079 H   0  0  0  0  0  0  0  0  0  0  0  0
    6.4561   -0.7572   -0.1728 H   0  0  0  0  0  0  0  0  0  0  0  0
    7.4417   -0.8846    1.4069 H   0  0  0  0  0  0  0  0  0  0  0  0
    6.6405   -0.3126    3.2347 H   0  0  0  0  0  0  0  0  0  0  0  0
    6.3739   -2.8775    2.8781 H   0  0  0  0  0  0  0  0  0  0  0  0
    5.3751   -3.9943   -0.2536 H   0  0  0  0  0  0  0  0  0  0  0  0
    3.1469   -0.2700    0.7481 H   0  0  0  0  0  0  0  0  0  0  0  0
    2.6758   -1.3645   -0.5056 H   0  0  0  0  0  0  0  0  0  0  0  0
    2.2930   -1.5892    2.5109 H   0  0  0  0  0  0  0  0  0  0  0  0
    1.0787   -1.7429    1.2792 H   0  0  0  0  0  0  0  0  0  0  0  0
    1.9309   -5.1355    2.8692 H   0  0  0  0  0  0  0  0  0  0  0  0
    0.9544   -3.7153    3.2303 H   0  0  0  0  0  0  0  0  0  0  0  0
    2.6695   -3.7327    3.6578 H   0  0  0  0  0  0  0  0  0  0  0  0
    2.9204   -3.4863    0.2840 H   0  0  0  0  0  0  0  0  0  0  0  0
    2.3779   -5.0718   -0.6372 H   0  0  0  0  0  0  0  0  0  0  0  0
    4.0563   -5.4572   -0.6379 H   0  0  0  0  0  0  0  0  0  0  0  0
    4.2510   -2.4213    2.5074 H   0  0  0  0  0  0  0  0  0  0  0  0
  1  2  1  0
  1 26  1  0
  1 27  1  0
  1 28  1  0
  2  3  1  0
  3  8  2  0
  3  4  1  0
  4  5  2  0
  4 29  1  0
  5  6  1  0
  5 30  1  0
  6 24  1  0
  6  7  2  0
  7 17  1  0
  7  8  1  0
  8  9  1  0
  9 10  1  0
 10 18  1  0
 10 11  1  0
 10 31  1  1
 11 12  1  0
 11 13  1  0
 11 32  1  6
 12 33  1  0
 13 25  1  0
 13 14  1  0
 13 34  1  1
 14 15  1  0
 15 16  2  0
 15 17  1  0
 17 18  1  0
 17 35  1  1
 18 25  1  0
 18 19  1  6
 19 20  1  0
 19 36  1  0
 19 37  1  0
 20 21  1  0
 20 38  1  0
 20 39  1  0
 21 22  1  0
 21 23  1  0
 22 40  1  0
 22 41  1  0
 22 42  1  0
 23 24  1  0
 23 25  1  0
 23 43  1  1
 24 44  1  0
 24 45  1  0
 25 46  1  1
M  END
>  <i_m_ct_stereo_status>  (128) 
1

>  <s_m_source_file>  (128) 
/var/tmp/pbs.5076255.sched01/tmpn9kf4o8v/46f5dlbpu8.sdf

>  <i_m_source_file_index>  (128) 
6

>  <i_lp_mmshare_version>  (128) 
48012

>  <i_f3d_flags>  (128) 
0

>  <s_epik_input>  (128) 
W0NIM11PYzFbY0hdW2NIXWMoYzJjMU9bQ0BASF0zQzQ1NilbQ0gyXVtDQEBIXShOKFtDSDNdKVtDSDJdW0NIMl01KVtDSF02W0NASF0oW0NAQEhdM1tPSF0pT0MoPU8pW0NASF0yNA==

>  <s_epik_cmdline>  (128) 
J2VwaWtfcHl0aG9uJywgJy1waHQnLCAnMi4wJywgJy1waCcsICc3LjAnLCAnLXRuJywgJzgnLCAnLW1hJywgJzIwMCcsICctaW1hZScsICc8aW5maWxlLm1hZT4nLCAnLW9tYWUnLCAnPG91dGZpbGUubWFlPic=

>  <r_lp_tautomer_probability>  (128) 
1

>  <r_epik_Ionization_Penalty>  (128) 
1.08801

>  <r_epik_Ionization_Penalty_Charging>  (128) 
0

>  <r_epik_Ionization_Penalty_Neutral>  (128) 
1.08801

>  <r_epik_State_Penalty>  (128) 
1.14403

>  <r_epik_Charging_Adjusted_Penalty>  (128) 
1.14403

>  <i_epik_Tot_Q>  (128) 
0

>  <i_epik_Tot_abs_Q>  (128) 
0

>  <s_epik_Chemistry_Notes>  (128) 
This compound has an ester and may undergo hydrolysis at high or low pH.

>  <s_lp_Force_Field>  (128) 
OPLS3e

>  <r_lp_Energy>  (128) 
370.884

>  <b_lp_Chiralities_Consistent>  (128) 
1

>  <s_lp_Variant>  (128) 
38:0-7

>  <s_i_glide_gridfile>  (128) 
pfpi4k_grid

>  <i_i_glide_lignum>  (128) 
6

>  <i_i_glide_rotatable_bonds>  (128) 
2

>  <r_i_docking_score>  (128) 
-3.09687

>  <r_i_glide_ligand_efficiency>  (128) 
-0.123875

>  <r_i_glide_ligand_efficiency_sa>  (128) 
-0.362212

>  <r_i_glide_ligand_efficiency_ln>  (128) 
-0.734051

>  <r_i_glide_gscore>  (128) 
-3.09687

>  <r_i_glide_lipo>  (128) 
-0.667372

>  <r_i_glide_hbond>  (128) 
-0.0950519

>  <r_i_glide_metal>  (128) 
-0

>  <r_i_glide_rewards>  (128) 
-1.21634

>  <r_i_glide_evdw>  (128) 
-17.139

>  <r_i_glide_ecoul>  (128) 
-1.74102

>  <r_i_glide_erotb>  (128) 
0

>  <r_i_glide_esite>  (128) 
0

>  <r_i_glide_emodel>  (128) 
-22.0206

>  <r_i_glide_energy>  (128) 
-18.88

>  <r_i_glide_einternal>  (128) 
0.606132

>  <r_i_glide_intrahb_reward>  (128) 
-0

>  <i_i_glide_confnum>  (128) 
1

>  <i_i_glide_posenum>  (128) 
9

>  <r_i_glide_eff_state_penalty>  (128) 
0

>  <ligand_id>  (128) 
38

>  <original_smiles>  (128) 
COc1ccc2c3c1OC1C(O)C4OC(=O)C3C13CCN(C)C(C2)C43

>  <smiles>  (128) 
[H]OC1([H])C2([H])OC(=O)C3([H])c4c5c(OC([H])([H])[H])c([H])c([H])c4C([H])([H])C4([H])N(C([H])([H])[H])C([H])([H])C([H])([H])C3(C1([H])O5)C24[H]

$$$$
38:6:1
     RDKit          3D

 46 51  0  0  1  0  0  0  0  0999 V2000
    3.4986    0.4844   -4.4192 C   0  0  0  0  0  0  0  0  0  0  0  0
    4.2259    0.1103   -3.2469 O   0  0  0  0  0  0  0  0  0  0  0  0
    3.9942   -1.1381   -2.7150 C   0  0  0  0  0  0  0  0  0  0  0  0
    2.9110   -1.9867   -3.1086 C   0  0  0  0  0  0  0  0  0  0  0  0
    2.4941   -3.1081   -2.3313 C   0  0  0  0  0  0  0  0  0  0  0  0
    3.2957   -3.5350   -1.2456 C   0  0  0  0  0  0  0  0  0  0  0  0
    4.4744   -2.7869   -1.1390 C   0  0  0  0  0  0  0  0  0  0  0  0
    4.8195   -1.5194   -1.6151 C   0  0  0  0  0  0  0  0  0  0  0  0
    5.5794   -0.6529   -0.7704 O   0  0  0  0  0  0  0  0  0  0  0  0
    5.5086   -0.7347    0.7322 C   0  0  2  0  0  0  0  0  0  0  0  0
    6.3187   -1.1772    2.0126 C   0  0  1  0  0  0  0  0  0  0  0  0
    6.0109   -0.2801    3.0589 O   0  0  0  0  0  0  0  0  0  0  0  0
    5.8644   -2.6506    2.4538 C   0  0  2  0  0  0  0  0  0  0  0  0
    6.7020   -3.5092    1.6810 O   0  0  0  0  0  0  0  0  0  0  0  0
    6.5422   -3.4269    0.3322 C   0  0  0  0  0  0  0  0  0  0  0  0
    7.3239   -3.7444   -0.5540 O   0  0  0  0  0  0  0  0  0  0  0  0
    5.1103   -2.9613    0.0885 C   0  0  1  0  0  0  0  0  0  0  0  0
    4.4576   -1.7933    0.9428 C   0  0  2  0  0  0  0  0  0  0  0  0
    3.0712   -1.0065    0.8592 C   0  0  0  0  0  0  0  0  0  0  0  0
    1.9596   -1.4792    1.8894 C   0  0  0  0  0  0  0  0  0  0  0  0
    1.9205   -2.9639    2.0835 N   0  0  0  0  0  0  0  0  0  0  0  0
    1.4744   -3.3778    3.4062 C   0  0  0  0  0  0  0  0  0  0  0  0
    3.1006   -3.6589    1.5775 C   0  0  2  0  0  0  0  0  0  0  0  0
    2.9285   -4.3935    0.0883 C   0  0  0  0  0  0  0  0  0  0  0  0
    4.3280   -2.6425    2.1216 C   0  0  1  0  0  0  0  0  0  0  0  0
    3.8208    1.4826   -4.7157 H   0  0  0  0  0  0  0  0  0  0  0  0
    2.4218    0.5362   -4.2542 H   0  0  0  0  0  0  0  0  0  0  0  0
    3.7079   -0.1917   -5.2499 H   0  0  0  0  0  0  0  0  0  0  0  0
    2.2403   -1.6760   -3.9048 H   0  0  0  0  0  0  0  0  0  0  0  0
    1.5496   -3.5816   -2.5227 H   0  0  0  0  0  0  0  0  0  0  0  0
    6.4914   -0.9493    0.3107 H   0  0  0  0  0  0  0  0  0  0  0  0
    7.4098   -1.0708    1.9080 H   0  0  0  0  0  0  0  0  0  0  0  0
    6.6651    0.4010    3.0209 H   0  0  0  0  0  0  0  0  0  0  0  0
    6.0423   -2.8171    3.5112 H   0  0  0  0  0  0  0  0  0  0  0  0
    4.9816   -3.9899    0.3915 H   0  0  0  0  0  0  0  0  0  0  0  0
    3.2530    0.0524    1.0637 H   0  0  0  0  0  0  0  0  0  0  0  0
    2.6682   -1.0323   -0.1416 H   0  0  0  0  0  0  0  0  0  0  0  0
    2.1575   -1.0124    2.8535 H   0  0  0  0  0  0  0  0  0  0  0  0
    0.9789   -1.1120    1.5941 H   0  0  0  0  0  0  0  0  0  0  0  0
    1.3154   -4.4543    3.4271 H   0  0  0  0  0  0  0  0  0  0  0  0
    0.5236   -2.9048    3.6525 H   0  0  0  0  0  0  0  0  0  0  0  0
    2.1967   -3.1194    4.1782 H   0  0  0  0  0  0  0  0  0  0  0  0
    2.6058   -3.1400    0.7852 H   0  0  0  0  0  0  0  0  0  0  0  0
    1.9055   -4.7294   -0.0561 H   0  0  0  0  0  0  0  0  0  0  0  0
    3.5000   -5.3238    0.0484 H   0  0  0  0  0  0  0  0  0  0  0  0
    3.9898   -2.1021    2.9980 H   0  0  0  0  0  0  0  0  0  0  0  0
  1  2  1  0
  1 26  1  0
  1 27  1  0
  1 28  1  0
  2  3  1  0
  3  8  2  0
  3  4  1  0
  4  5  2  0
  4 29  1  0
  5  6  1  0
  5 30  1  0
  6 24  1  0
  6  7  2  0
  7 17  1  0
  7  8  1  0
  8  9  1  0
  9 10  1  0
 10 18  1  0
 10 11  1  0
 10 31  1  1
 11 12  1  0
 11 13  1  0
 11 32  1  6
 12 33  1  0
 13 25  1  0
 13 14  1  0
 13 34  1  1
 14 15  1  0
 15 16  2  0
 15 17  1  0
 17 18  1  0
 17 35  1  1
 18 25  1  0
 18 19  1  6
 19 20  1  0
 19 36  1  0
 19 37  1  0
 20 21  1  0
 20 38  1  0
 20 39  1  0
 21 22  1  0
 21 23  1  0
 22 40  1  0
 22 41  1  0
 22 42  1  0
 23 24  1  0
 23 25  1  0
 23 43  1  1
 24 44  1  0
 24 45  1  0
 25 46  1  1
M  END
>  <i_m_ct_stereo_status>  (129) 
1

>  <s_m_source_file>  (129) 
/var/tmp/pbs.5076255.sched01/tmpn9kf4o8v/46f5dlbpu8.sdf

>  <i_m_source_file_index>  (129) 
6

>  <i_lp_mmshare_version>  (129) 
48012

>  <i_f3d_flags>  (129) 
0

>  <s_epik_input>  (129) 
W0NIM11PYzFbY0hdW2NIXWMoYzJjMU9bQ0BASF0zQzQ1NilbQ0gyXVtDQEBIXShOKFtDSDNdKVtDSDJdW0NIMl01KVtDSF02W0NASF0oW0NAQEhdM1tPSF0pT0MoPU8pW0NASF0yNA==

>  <s_epik_cmdline>  (129) 
J2VwaWtfcHl0aG9uJywgJy1waHQnLCAnMi4wJywgJy1waCcsICc3LjAnLCAnLXRuJywgJzgnLCAnLW1hJywgJzIwMCcsICctaW1hZScsICc8aW5maWxlLm1hZT4nLCAnLW9tYWUnLCAnPG91dGZpbGUubWFlPic=

>  <r_lp_tautomer_probability>  (129) 
1

>  <r_epik_Ionization_Penalty>  (129) 
1.08801

>  <r_epik_Ionization_Penalty_Charging>  (129) 
0

>  <r_epik_Ionization_Penalty_Neutral>  (129) 
1.08801

>  <r_epik_State_Penalty>  (129) 
1.14403

>  <r_epik_Charging_Adjusted_Penalty>  (129) 
1.14403

>  <i_epik_Tot_Q>  (129) 
0

>  <i_epik_Tot_abs_Q>  (129) 
0

>  <s_epik_Chemistry_Notes>  (129) 
This compound has an ester and may undergo hydrolysis at high or low pH.

>  <s_lp_Force_Field>  (129) 
OPLS3e

>  <r_lp_Energy>  (129) 
370.884

>  <b_lp_Chiralities_Consistent>  (129) 
1

>  <s_lp_Variant>  (129) 
38:0-7

>  <s_i_glide_gridfile>  (129) 
pfpi4k_grid

>  <i_i_glide_lignum>  (129) 
6

>  <i_i_glide_rotatable_bonds>  (129) 
2

>  <r_i_docking_score>  (129) 
-3.09302

>  <r_i_glide_ligand_efficiency>  (129) 
-0.123721

>  <r_i_glide_ligand_efficiency_sa>  (129) 
-0.361761

>  <r_i_glide_ligand_efficiency_ln>  (129) 
-0.733137

>  <r_i_glide_gscore>  (129) 
-3.09302

>  <r_i_glide_lipo>  (129) 
-0.44632

>  <r_i_glide_hbond>  (129) 
-0.331293

>  <r_i_glide_metal>  (129) 
-0

>  <r_i_glide_rewards>  (129) 
-1.20612

>  <r_i_glide_evdw>  (129) 
-19.6181

>  <r_i_glide_ecoul>  (129) 
-0.855859

>  <r_i_glide_erotb>  (129) 
0

>  <r_i_glide_esite>  (129) 
0

>  <r_i_glide_emodel>  (129) 
-23.2809

>  <r_i_glide_energy>  (129) 
-20.474

>  <r_i_glide_einternal>  (129) 
1.19348

>  <r_i_glide_intrahb_reward>  (129) 
-0

>  <i_i_glide_confnum>  (129) 
1

>  <i_i_glide_posenum>  (129) 
4

>  <r_i_glide_eff_state_penalty>  (129) 
0

>  <ligand_id>  (129) 
38

>  <original_smiles>  (129) 
COc1ccc2c3c1OC1C(O)C4OC(=O)C3C13CCN(C)C(C2)C43

>  <smiles>  (129) 
[H]OC1([H])C2([H])OC(=O)C3([H])c4c5c(OC([H])([H])[H])c([H])c([H])c4C([H])([H])C4([H])N(C([H])([H])[H])C([H])([H])C([H])([H])C3(C1([H])O5)C24[H]

$$$$
38:6:2
     RDKit          3D

 46 51  0  0  1  0  0  0  0  0999 V2000
    3.4041    0.4219   -4.3593 C   0  0  0  0  0  0  0  0  0  0  0  0
    4.1853    0.0280   -3.2420 O   0  0  0  0  0  0  0  0  0  0  0  0
    3.9552   -1.2097   -2.6837 C   0  0  0  0  0  0  0  0  0  0  0  0
    2.8807   -2.0771   -3.0627 C   0  0  0  0  0  0  0  0  0  0  0  0
    2.5150   -3.2179   -2.2865 C   0  0  0  0  0  0  0  0  0  0  0  0
    3.3291   -3.6260   -1.2166 C   0  0  0  0  0  0  0  0  0  0  0  0
    4.4945   -2.8531   -1.1158 C   0  0  0  0  0  0  0  0  0  0  0  0
    4.7824   -1.5670   -1.5943 C   0  0  0  0  0  0  0  0  0  0  0  0
    5.5188   -0.6613   -0.7645 O   0  0  0  0  0  0  0  0  0  0  0  0
    5.4743   -0.7721    0.7470 C   0  0  2  0  0  0  0  0  0  0  0  0
    6.3000   -1.1825    2.0400 C   0  0  1  0  0  0  0  0  0  0  0  0
    5.9455   -0.2867    3.0858 O   0  0  0  0  0  0  0  0  0  0  0  0
    5.9114   -2.6907    2.4626 C   0  0  2  0  0  0  0  0  0  0  0  0
    6.7704   -3.5178    1.6464 O   0  0  0  0  0  0  0  0  0  0  0  0
    6.5792   -3.4483    0.3206 C   0  0  0  0  0  0  0  0  0  0  0  0
    7.3820   -3.7376   -0.5554 O   0  0  0  0  0  0  0  0  0  0  0  0
    5.1342   -3.0121    0.0983 C   0  0  1  0  0  0  0  0  0  0  0  0
    4.4592   -1.8706    0.9762 C   0  0  2  0  0  0  0  0  0  0  0  0
    3.0438   -1.1265    0.8959 C   0  0  0  0  0  0  0  0  0  0  0  0
    1.9540   -1.6228    1.9378 C   0  0  0  0  0  0  0  0  0  0  0  0
    1.9566   -3.1110    2.1227 N   0  0  0  0  0  0  0  0  0  0  0  0
    1.5377   -3.5455    3.4468 C   0  0  0  0  0  0  0  0  0  0  0  0
    3.1527   -3.7824    1.6032 C   0  0  2  0  0  0  0  0  0  0  0  0
    2.9901   -4.5094    0.1078 C   0  0  0  0  0  0  0  0  0  0  0  0
    4.3632   -2.7350    2.1561 C   0  0  1  0  0  0  0  0  0  0  0  0
    3.7121    1.4201   -4.6628 H   0  0  0  0  0  0  0  0  0  0  0  0
    2.3364    0.4694   -4.1472 H   0  0  0  0  0  0  0  0  0  0  0  0
    3.5738   -0.2455   -5.2017 H   0  0  0  0  0  0  0  0  0  0  0  0
    2.2119   -1.7987   -3.8556 H   0  0  0  0  0  0  0  0  0  0  0  0
    1.5791   -3.7208   -2.4735 H   0  0  0  0  0  0  0  0  0  0  0  0
    6.4525   -0.9694    0.3203 H   0  0  0  0  0  0  0  0  0  0  0  0
    7.3888   -1.0596    1.9338 H   0  0  0  0  0  0  0  0  0  0  0  0
    5.0083   -0.3169    3.2125 H   0  0  0  0  0  0  0  0  0  0  0  0
    6.0938   -2.8671    3.5217 H   0  0  0  0  0  0  0  0  0  0  0  0
    5.0373   -4.0450    0.4001 H   0  0  0  0  0  0  0  0  0  0  0  0
    3.1972   -0.0653    1.1032 H   0  0  0  0  0  0  0  0  0  0  0  0
    2.6334   -1.1628   -0.1066 H   0  0  0  0  0  0  0  0  0  0  0  0
    2.1552   -1.1565    2.9058 H   0  0  0  0  0  0  0  0  0  0  0  0
    0.9591   -1.2864    1.6452 H   0  0  0  0  0  0  0  0  0  0  0  0
    1.4054   -4.6277    3.4645 H   0  0  0  0  0  0  0  0  0  0  0  0
    0.5769   -3.0958    3.7016 H   0  0  0  0  0  0  0  0  0  0  0  0
    2.2621   -3.2710    4.2157 H   0  0  0  0  0  0  0  0  0  0  0  0
    2.6441   -3.2712    0.8201 H   0  0  0  0  0  0  0  0  0  0  0  0
    1.9684   -4.8776   -0.0236 H   0  0  0  0  0  0  0  0  0  0  0  0
    3.5869   -5.4233    0.0661 H   0  0  0  0  0  0  0  0  0  0  0  0
    4.0112   -2.2046    3.0336 H   0  0  0  0  0  0  0  0  0  0  0  0
  1  2  1  0
  1 26  1  0
  1 27  1  0
  1 28  1  0
  2  3  1  0
  3  8  2  0
  3  4  1  0
  4  5  2  0
  4 29  1  0
  5  6  1  0
  5 30  1  0
  6 24  1  0
  6  7  2  0
  7 17  1  0
  7  8  1  0
  8  9  1  0
  9 10  1  0
 10 18  1  0
 10 11  1  0
 10 31  1  1
 11 12  1  0
 11 13  1  0
 11 32  1  6
 12 33  1  0
 13 25  1  0
 13 14  1  0
 13 34  1  1
 14 15  1  0
 15 16  2  0
 15 17  1  0
 17 18  1  0
 17 35  1  1
 18 25  1  0
 18 19  1  6
 19 20  1  0
 19 36  1  0
 19 37  1  0
 20 21  1  0
 20 38  1  0
 20 39  1  0
 21 22  1  0
 21 23  1  0
 22 40  1  0
 22 41  1  0
 22 42  1  0
 23 24  1  0
 23 25  1  0
 23 43  1  1
 24 44  1  0
 24 45  1  0
 25 46  1  1
M  END
>  <i_m_ct_stereo_status>  (130) 
1

>  <s_m_source_file>  (130) 
/var/tmp/pbs.5076255.sched01/tmpn9kf4o8v/46f5dlbpu8.sdf

>  <i_m_source_file_index>  (130) 
6

>  <i_lp_mmshare_version>  (130) 
48012

>  <i_f3d_flags>  (130) 
0

>  <s_epik_input>  (130) 
W0NIM11PYzFbY0hdW2NIXWMoYzJjMU9bQ0BASF0zQzQ1NilbQ0gyXVtDQEBIXShOKFtDSDNdKVtDSDJdW0NIMl01KVtDSF02W0NASF0oW0NAQEhdM1tPSF0pT0MoPU8pW0NASF0yNA==

>  <s_epik_cmdline>  (130) 
J2VwaWtfcHl0aG9uJywgJy1waHQnLCAnMi4wJywgJy1waCcsICc3LjAnLCAnLXRuJywgJzgnLCAnLW1hJywgJzIwMCcsICctaW1hZScsICc8aW5maWxlLm1hZT4nLCAnLW9tYWUnLCAnPG91dGZpbGUubWFlPic=

>  <r_lp_tautomer_probability>  (130) 
1

>  <r_epik_Ionization_Penalty>  (130) 
1.08801

>  <r_epik_Ionization_Penalty_Charging>  (130) 
0

>  <r_epik_Ionization_Penalty_Neutral>  (130) 
1.08801

>  <r_epik_State_Penalty>  (130) 
1.14403

>  <r_epik_Charging_Adjusted_Penalty>  (130) 
1.14403

>  <i_epik_Tot_Q>  (130) 
0

>  <i_epik_Tot_abs_Q>  (130) 
0

>  <s_epik_Chemistry_Notes>  (130) 
This compound has an ester and may undergo hydrolysis at high or low pH.

>  <s_lp_Force_Field>  (130) 
OPLS3e

>  <r_lp_Energy>  (130) 
370.884

>  <b_lp_Chiralities_Consistent>  (130) 
1

>  <s_lp_Variant>  (130) 
38:0-7

>  <s_i_glide_gridfile>  (130) 
pfpi4k_grid

>  <i_i_glide_lignum>  (130) 
6

>  <i_i_glide_rotatable_bonds>  (130) 
2

>  <r_i_docking_score>  (130) 
-2.67198

>  <r_i_glide_ligand_efficiency>  (130) 
-0.106879

>  <r_i_glide_ligand_efficiency_sa>  (130) 
-0.312517

>  <r_i_glide_ligand_efficiency_ln>  (130) 
-0.633339

>  <r_i_glide_gscore>  (130) 
-2.67198

>  <r_i_glide_lipo>  (130) 
-0.436362

>  <r_i_glide_hbond>  (130) 
-0.037898

>  <r_i_glide_metal>  (130) 
-0

>  <r_i_glide_rewards>  (130) 
-1.21002

>  <r_i_glide_evdw>  (130) 
-18.8301

>  <r_i_glide_ecoul>  (130) 
-0.307947

>  <r_i_glide_erotb>  (130) 
0

>  <r_i_glide_esite>  (130) 
0

>  <r_i_glide_emodel>  (130) 
-22.181

>  <r_i_glide_energy>  (130) 
-19.1381

>  <r_i_glide_einternal>  (130) 
0.129546

>  <r_i_glide_intrahb_reward>  (130) 
-0

>  <i_i_glide_confnum>  (130) 
2

>  <i_i_glide_posenum>  (130) 
15

>  <r_i_glide_eff_state_penalty>  (130) 
0

>  <ligand_id>  (130) 
38

>  <original_smiles>  (130) 
COc1ccc2c3c1OC1C(O)C4OC(=O)C3C13CCN(C)C(C2)C43

>  <smiles>  (130) 
[H]OC1([H])C2([H])OC(=O)C3([H])c4c5c(OC([H])([H])[H])c([H])c([H])c4C([H])([H])C4([H])N(C([H])([H])[H])C([H])([H])C([H])([H])C3(C1([H])O5)C24[H]

$$$$
38:7:0
     RDKit          3D

 46 51  0  0  1  0  0  0  0  0999 V2000
    3.7346    0.5544   -4.3263 C   0  0  0  0  0  0  0  0  0  0  0  0
    4.3430    0.1657   -3.1030 O   0  0  0  0  0  0  0  0  0  0  0  0
    4.1390   -1.1136   -2.6377 C   0  0  0  0  0  0  0  0  0  0  0  0
    3.0323   -1.9108   -3.0876 C   0  0  0  0  0  0  0  0  0  0  0  0
    2.6073   -3.0615   -2.3650 C   0  0  0  0  0  0  0  0  0  0  0  0
    3.3833   -3.5270   -1.2713 C   0  0  0  0  0  0  0  0  0  0  0  0
    4.5702   -2.7986   -1.1271 C   0  0  0  0  0  0  0  0  0  0  0  0
    4.9688   -1.5301   -1.5605 C   0  0  0  0  0  0  0  0  0  0  0  0
    5.8029   -0.7577   -0.6992 O   0  0  0  0  0  0  0  0  0  0  0  0
    5.4582   -0.7637    0.7821 C   0  0  2  0  0  0  0  0  0  0  0  0
    6.3645   -1.2216    1.9497 C   0  0  1  0  0  0  0  0  0  0  0  0
    6.1763   -0.2874    2.9905 O   0  0  0  0  0  0  0  0  0  0  0  0
    5.9140   -2.6776    2.4387 C   0  0  2  0  0  0  0  0  0  0  0  0
    6.7496   -3.5347    1.6418 O   0  0  0  0  0  0  0  0  0  0  0  0
    6.5764   -3.4163    0.3146 C   0  0  0  0  0  0  0  0  0  0  0  0
    7.3842   -3.6937   -0.5623 O   0  0  0  0  0  0  0  0  0  0  0  0
    5.1426   -2.9899    0.0974 C   0  0  1  0  0  0  0  0  0  0  0  0
    4.4439   -1.8481    0.9758 C   0  0  2  0  0  0  0  0  0  0  0  0
    3.0126   -1.1254    0.8873 C   0  0  0  0  0  0  0  0  0  0  0  0
    1.9405   -1.6721    1.9130 C   0  0  0  0  0  0  0  0  0  0  0  0
    1.9750   -3.1528    2.0911 N   0  0  0  0  0  0  0  0  0  0  0  0
    1.5535   -3.6169    3.4029 C   0  0  0  0  0  0  0  0  0  0  0  0
    3.1784   -3.7881    1.5482 C   0  0  2  0  0  0  0  0  0  0  0  0
    3.0211   -4.4419    0.0082 C   0  0  0  0  0  0  0  0  0  0  0  0
    4.3577   -2.7197    2.1261 C   0  0  1  0  0  0  0  0  0  0  0  0
    4.1014    1.5440   -4.5771 H   0  0  0  0  0  0  0  0  0  0  0  0
    2.6531    0.6298   -4.2549 H   0  0  0  0  0  0  0  0  0  0  0  0
    3.9951   -0.1041   -5.1533 H   0  0  0  0  0  0  0  0  0  0  0  0
    2.3838   -1.5597   -3.8607 H   0  0  0  0  0  0  0  0  0  0  0  0
    1.6504   -3.5256   -2.5952 H   0  0  0  0  0  0  0  0  0  0  0  0
    5.0990    0.2316    1.0063 H   0  0  0  0  0  0  0  0  0  0  0  0
    7.4079   -1.1337    1.6506 H   0  0  0  0  0  0  0  0  0  0  0  0
    6.8559    0.3415    2.8490 H   0  0  0  0  0  0  0  0  0  0  0  0
    6.1126   -2.8170    3.4905 H   0  0  0  0  0  0  0  0  0  0  0  0
    5.0580   -4.0335    0.3766 H   0  0  0  0  0  0  0  0  0  0  0  0
    3.0948   -0.0591    1.1045 H   0  0  0  0  0  0  0  0  0  0  0  0
    2.6255   -1.1912   -0.1196 H   0  0  0  0  0  0  0  0  0  0  0  0
    2.1063   -1.2123    2.8817 H   0  0  0  0  0  0  0  0  0  0  0  0
    0.9475   -1.3465    1.6220 H   0  0  0  0  0  0  0  0  0  0  0  0
    1.4381   -4.6992    3.3937 H   0  0  0  0  0  0  0  0  0  0  0  0
    0.5779   -3.1973    3.6574 H   0  0  0  0  0  0  0  0  0  0  0  0
    2.2669   -3.3429    4.1823 H   0  0  0  0  0  0  0  0  0  0  0  0
    2.6546   -3.2685    0.7782 H   0  0  0  0  0  0  0  0  0  0  0  0
    1.9993   -4.7902   -0.1467 H   0  0  0  0  0  0  0  0  0  0  0  0
    3.5987   -5.3677   -0.0567 H   0  0  0  0  0  0  0  0  0  0  0  0
    4.0102   -2.2116    3.0162 H   0  0  0  0  0  0  0  0  0  0  0  0
  1  2  1  0
  1 26  1  0
  1 27  1  0
  1 28  1  0
  2  3  1  0
  3  8  2  0
  3  4  1  0
  4  5  2  0
  4 29  1  0
  5  6  1  0
  5 30  1  0
  6 24  1  0
  6  7  2  0
  7 17  1  0
  7  8  1  0
  8  9  1  0
  9 10  1  0
 10 18  1  0
 10 11  1  0
 10 31  1  1
 11 12  1  0
 11 13  1  0
 11 32  1  6
 12 33  1  0
 13 25  1  0
 13 14  1  0
 13 34  1  1
 14 15  1  0
 15 16  2  0
 15 17  1  0
 17 18  1  0
 17 35  1  1
 18 25  1  0
 18 19  1  6
 19 20  1  0
 19 36  1  0
 19 37  1  0
 20 21  1  0
 20 38  1  0
 20 39  1  0
 21 22  1  0
 21 23  1  0
 22 40  1  0
 22 41  1  0
 22 42  1  0
 23 24  1  0
 23 25  1  0
 23 43  1  1
 24 44  1  0
 24 45  1  0
 25 46  1  1
M  END
>  <i_m_ct_stereo_status>  (131) 
1

>  <s_m_source_file>  (131) 
/var/tmp/pbs.5076255.sched01/tmpn9kf4o8v/46f5dlbpu8.sdf

>  <i_m_source_file_index>  (131) 
7

>  <i_lp_mmshare_version>  (131) 
48012

>  <i_f3d_flags>  (131) 
0

>  <s_epik_input>  (131) 
W0NIM11PYzFbY0hdW2NIXWMoYzJjMU9bQ0BASF0zQzQ1NilbQ0gyXVtDQEBIXShOKFtDSDNdKVtDSDJdW0NIMl01KVtDSF02W0NASF0oW0NAQEhdM1tPSF0pT0MoPU8pW0NASF0yNA==

>  <s_epik_cmdline>  (131) 
J2VwaWtfcHl0aG9uJywgJy1waHQnLCAnMi4wJywgJy1waCcsICc3LjAnLCAnLXRuJywgJzgnLCAnLW1hJywgJzIwMCcsICctaW1hZScsICc8aW5maWxlLm1hZT4nLCAnLW9tYWUnLCAnPG91dGZpbGUubWFlPic=

>  <r_lp_tautomer_probability>  (131) 
1

>  <r_epik_Ionization_Penalty>  (131) 
1.08801

>  <r_epik_Ionization_Penalty_Charging>  (131) 
0

>  <r_epik_Ionization_Penalty_Neutral>  (131) 
1.08801

>  <r_epik_State_Penalty>  (131) 
1.14403

>  <r_epik_Charging_Adjusted_Penalty>  (131) 
1.14403

>  <i_epik_Tot_Q>  (131) 
0

>  <i_epik_Tot_abs_Q>  (131) 
0

>  <s_epik_Chemistry_Notes>  (131) 
This compound has an ester and may undergo hydrolysis at high or low pH.

>  <s_lp_Force_Field>  (131) 
OPLS3e

>  <r_lp_Energy>  (131) 
327.78

>  <b_lp_Chiralities_Consistent>  (131) 
1

>  <s_lp_Variant>  (131) 
38:0-8

>  <s_i_glide_gridfile>  (131) 
pfpi4k_grid

>  <i_i_glide_lignum>  (131) 
7

>  <i_i_glide_rotatable_bonds>  (131) 
2

>  <r_i_docking_score>  (131) 
-3.29454

>  <r_i_glide_ligand_efficiency>  (131) 
-0.131781

>  <r_i_glide_ligand_efficiency_sa>  (131) 
-0.385331

>  <r_i_glide_ligand_efficiency_ln>  (131) 
-0.780904

>  <r_i_glide_gscore>  (131) 
-3.29454

>  <r_i_glide_lipo>  (131) 
-0.391992

>  <r_i_glide_hbond>  (131) 
-0.410921

>  <r_i_glide_metal>  (131) 
-0

>  <r_i_glide_rewards>  (131) 
-1.20945

>  <r_i_glide_evdw>  (131) 
-17.9188

>  <r_i_glide_ecoul>  (131) 
-2.57489

>  <r_i_glide_erotb>  (131) 
0

>  <r_i_glide_esite>  (131) 
0

>  <r_i_glide_emodel>  (131) 
-22.1829

>  <r_i_glide_energy>  (131) 
-20.4937

>  <r_i_glide_einternal>  (131) 
1.02867

>  <r_i_glide_intrahb_reward>  (131) 
-0

>  <i_i_glide_confnum>  (131) 
2

>  <i_i_glide_posenum>  (131) 
32

>  <r_i_glide_eff_state_penalty>  (131) 
0

>  <ligand_id>  (131) 
38

>  <original_smiles>  (131) 
COc1ccc2c3c1OC1C(O)C4OC(=O)C3C13CCN(C)C(C2)C43

>  <smiles>  (131) 
[H]OC1([H])C2([H])OC(=O)C3([H])c4c5c(OC([H])([H])[H])c([H])c([H])c4C([H])([H])C4([H])N(C([H])([H])[H])C([H])([H])C([H])([H])C3(C1([H])O5)C24[H]

$$$$
38:7:1
     RDKit          3D

 46 51  0  0  1  0  0  0  0  0999 V2000
    3.5585    0.5219   -4.3111 C   0  0  0  0  0  0  0  0  0  0  0  0
    4.2303    0.1426   -3.1248 O   0  0  0  0  0  0  0  0  0  0  0  0
    4.0528   -1.1260   -2.6265 C   0  0  0  0  0  0  0  0  0  0  0  0
    2.9863   -1.9878   -3.0618 C   0  0  0  0  0  0  0  0  0  0  0  0
    2.6279   -3.1718   -2.3525 C   0  0  0  0  0  0  0  0  0  0  0  0
    3.4229   -3.6124   -1.2785 C   0  0  0  0  0  0  0  0  0  0  0  0
    4.5754   -2.8288   -1.1253 C   0  0  0  0  0  0  0  0  0  0  0  0
    4.8827   -1.5389   -1.5605 C   0  0  0  0  0  0  0  0  0  0  0  0
    5.6830   -0.7189   -0.6889 O   0  0  0  0  0  0  0  0  0  0  0  0
    5.3784   -0.7772    0.7976 C   0  0  2  0  0  0  0  0  0  0  0  0
    6.3198   -1.1813    1.9956 C   0  0  1  0  0  0  0  0  0  0  0  0
    6.1467   -0.2806    3.0840 O   0  0  0  0  0  0  0  0  0  0  0  0
    5.9356   -2.6894    2.4490 C   0  0  2  0  0  0  0  0  0  0  0  0
    6.8109   -3.4907    1.6351 O   0  0  0  0  0  0  0  0  0  0  0  0
    6.6262   -3.3868    0.3210 C   0  0  0  0  0  0  0  0  0  0  0  0
    7.4488   -3.6080   -0.5643 O   0  0  0  0  0  0  0  0  0  0  0  0
    5.1662   -3.0105    0.1019 C   0  0  1  0  0  0  0  0  0  0  0  0
    4.4059   -1.9124    1.0003 C   0  0  2  0  0  0  0  0  0  0  0  0
    2.9481   -1.2666    0.9066 C   0  0  0  0  0  0  0  0  0  0  0  0
    1.8865   -1.8571    1.9294 C   0  0  0  0  0  0  0  0  0  0  0  0
    1.9901   -3.3426    2.0841 N   0  0  0  0  0  0  0  0  0  0  0  0
    1.5980   -3.8455    3.3939 C   0  0  0  0  0  0  0  0  0  0  0  0
    3.2197   -3.9197    1.5426 C   0  0  2  0  0  0  0  0  0  0  0  0
    3.0914   -4.5692   -0.0016 C   0  0  0  0  0  0  0  0  0  0  0  0
    4.3649   -2.8099    2.1510 C   0  0  1  0  0  0  0  0  0  0  0  0
    3.8610    1.5372   -4.5588 H   0  0  0  0  0  0  0  0  0  0  0  0
    2.4740    0.5298   -4.1924 H   0  0  0  0  0  0  0  0  0  0  0  0
    3.8339   -0.1238   -5.1472 H   0  0  0  0  0  0  0  0  0  0  0  0
    2.3204   -1.6771   -3.8397 H   0  0  0  0  0  0  0  0  0  0  0  0
    1.7013   -3.6728   -2.5820 H   0  0  0  0  0  0  0  0  0  0  0  0
    4.9649    0.1995    1.0470 H   0  0  0  0  0  0  0  0  0  0  0  0
    7.3597   -1.0797    1.6734 H   0  0  0  0  0  0  0  0  0  0  0  0
    5.2397   -0.2999    3.3545 H   0  0  0  0  0  0  0  0  0  0  0  0
    6.1367   -2.8413    3.5091 H   0  0  0  0  0  0  0  0  0  0  0  0
    5.1169   -4.0589    0.3631 H   0  0  0  0  0  0  0  0  0  0  0  0
    2.9647   -0.2068    1.1434 H   0  0  0  0  0  0  0  0  0  0  0  0
    2.6168   -1.3107   -0.1287 H   0  0  0  0  0  0  0  0  0  0  0  0
    2.0425   -1.4072    2.9107 H   0  0  0  0  0  0  0  0  0  0  0  0
    0.8766   -1.5801    1.6347 H   0  0  0  0  0  0  0  0  0  0  0  0
    1.5411   -4.9379    3.3856 H   0  0  0  0  0  0  0  0  0  0  0  0
    0.6071   -3.4718    3.6595 H   0  0  0  0  0  0  0  0  0  0  0  0
    2.2971   -3.5425    4.1770 H   0  0  0  0  0  0  0  0  0  0  0  0
    2.6792   -3.4197    0.7784 H   0  0  0  0  0  0  0  0  0  0  0  0
    2.0855   -4.9718   -0.1693 H   0  0  0  0  0  0  0  0  0  0  0  0
    3.7218   -5.4595   -0.0807 H   0  0  0  0  0  0  0  0  0  0  0  0
    3.9798   -2.3221    3.0486 H   0  0  0  0  0  0  0  0  0  0  0  0
  1  2  1  0
  1 26  1  0
  1 27  1  0
  1 28  1  0
  2  3  1  0
  3  8  2  0
  3  4  1  0
  4  5  2  0
  4 29  1  0
  5  6  1  0
  5 30  1  0
  6 24  1  0
  6  7  2  0
  7 17  1  0
  7  8  1  0
  8  9  1  0
  9 10  1  0
 10 18  1  0
 10 11  1  0
 10 31  1  1
 11 12  1  0
 11 13  1  0
 11 32  1  6
 12 33  1  0
 13 25  1  0
 13 14  1  0
 13 34  1  1
 14 15  1  0
 15 16  2  0
 15 17  1  0
 17 18  1  0
 17 35  1  1
 18 25  1  0
 18 19  1  6
 19 20  1  0
 19 36  1  0
 19 37  1  0
 20 21  1  0
 20 38  1  0
 20 39  1  0
 21 22  1  0
 21 23  1  0
 22 40  1  0
 22 41  1  0
 22 42  1  0
 23 24  1  0
 23 25  1  0
 23 43  1  1
 24 44  1  0
 24 45  1  0
 25 46  1  1
M  END
>  <i_m_ct_stereo_status>  (132) 
1

>  <s_m_source_file>  (132) 
/var/tmp/pbs.5076255.sched01/tmpn9kf4o8v/46f5dlbpu8.sdf

>  <i_m_source_file_index>  (132) 
7

>  <i_lp_mmshare_version>  (132) 
48012

>  <i_f3d_flags>  (132) 
0

>  <s_epik_input>  (132) 
W0NIM11PYzFbY0hdW2NIXWMoYzJjMU9bQ0BASF0zQzQ1NilbQ0gyXVtDQEBIXShOKFtDSDNdKVtDSDJdW0NIMl01KVtDSF02W0NASF0oW0NAQEhdM1tPSF0pT0MoPU8pW0NASF0yNA==

>  <s_epik_cmdline>  (132) 
J2VwaWtfcHl0aG9uJywgJy1waHQnLCAnMi4wJywgJy1waCcsICc3LjAnLCAnLXRuJywgJzgnLCAnLW1hJywgJzIwMCcsICctaW1hZScsICc8aW5maWxlLm1hZT4nLCAnLW9tYWUnLCAnPG91dGZpbGUubWFlPic=

>  <r_lp_tautomer_probability>  (132) 
1

>  <r_epik_Ionization_Penalty>  (132) 
1.08801

>  <r_epik_Ionization_Penalty_Charging>  (132) 
0

>  <r_epik_Ionization_Penalty_Neutral>  (132) 
1.08801

>  <r_epik_State_Penalty>  (132) 
1.14403

>  <r_epik_Charging_Adjusted_Penalty>  (132) 
1.14403

>  <i_epik_Tot_Q>  (132) 
0

>  <i_epik_Tot_abs_Q>  (132) 
0

>  <s_epik_Chemistry_Notes>  (132) 
This compound has an ester and may undergo hydrolysis at high or low pH.

>  <s_lp_Force_Field>  (132) 
OPLS3e

>  <r_lp_Energy>  (132) 
327.78

>  <b_lp_Chiralities_Consistent>  (132) 
1

>  <s_lp_Variant>  (132) 
38:0-8

>  <s_i_glide_gridfile>  (132) 
pfpi4k_grid

>  <i_i_glide_lignum>  (132) 
7

>  <i_i_glide_rotatable_bonds>  (132) 
2

>  <r_i_docking_score>  (132) 
-2.60745

>  <r_i_glide_ligand_efficiency>  (132) 
-0.104298

>  <r_i_glide_ligand_efficiency_sa>  (132) 
-0.304969

>  <r_i_glide_ligand_efficiency_ln>  (132) 
-0.618044

>  <r_i_glide_gscore>  (132) 
-2.60745

>  <r_i_glide_lipo>  (132) 
-0.364009

>  <r_i_glide_hbond>  (132) 
-0.0513874

>  <r_i_glide_metal>  (132) 
-0

>  <r_i_glide_rewards>  (132) 
-1.21338

>  <r_i_glide_evdw>  (132) 
-18.0707

>  <r_i_glide_ecoul>  (132) 
-0.500903

>  <r_i_glide_erotb>  (132) 
0

>  <r_i_glide_esite>  (132) 
0

>  <r_i_glide_emodel>  (132) 
-20.7644

>  <r_i_glide_energy>  (132) 
-18.5716

>  <r_i_glide_einternal>  (132) 
0.23497

>  <r_i_glide_intrahb_reward>  (132) 
-0

>  <i_i_glide_confnum>  (132) 
1

>  <i_i_glide_posenum>  (132) 
27

>  <r_i_glide_eff_state_penalty>  (132) 
0

>  <ligand_id>  (132) 
38

>  <original_smiles>  (132) 
COc1ccc2c3c1OC1C(O)C4OC(=O)C3C13CCN(C)C(C2)C43

>  <smiles>  (132) 
[H]OC1([H])C2([H])OC(=O)C3([H])c4c5c(OC([H])([H])[H])c([H])c([H])c4C([H])([H])C4([H])N(C([H])([H])[H])C([H])([H])C([H])([H])C3(C1([H])O5)C24[H]

$$$$
38:7:2
     RDKit          3D

 46 51  0  0  1  0  0  0  0  0999 V2000
    4.1883    0.7644   -3.7302 C   0  0  0  0  0  0  0  0  0  0  0  0
    3.0914   -0.0364   -3.3868 O   0  0  0  0  0  0  0  0  0  0  0  0
    3.3827   -1.2274   -2.8003 C   0  0  0  0  0  0  0  0  0  0  0  0
    2.4728   -2.2648   -3.1086 C   0  0  0  0  0  0  0  0  0  0  0  0
    2.4496   -3.4536   -2.3799 C   0  0  0  0  0  0  0  0  0  0  0  0
    3.4920   -3.8027   -1.5057 C   0  0  0  0  0  0  0  0  0  0  0  0
    4.4710   -2.8091   -1.4828 C   0  0  0  0  0  0  0  0  0  0  0  0
    4.4111   -1.4527   -1.8466 C   0  0  0  0  0  0  0  0  0  0  0  0
    5.1100   -0.5579   -0.9855 O   0  0  0  0  0  0  0  0  0  0  0  0
    4.9890   -0.7632    0.5160 C   0  0  2  0  0  0  0  0  0  0  0  0
    6.1631   -1.0151    1.5462 C   0  0  1  0  0  0  0  0  0  0  0  0
    5.9250   -0.2977    2.7448 O   0  0  0  0  0  0  0  0  0  0  0  0
    6.2445   -2.5750    1.8738 C   0  0  2  0  0  0  0  0  0  0  0  0
    7.1627   -3.0161    0.8629 O   0  0  0  0  0  0  0  0  0  0  0  0
    6.7578   -2.9002   -0.4050 C   0  0  0  0  0  0  0  0  0  0  0  0
    7.4445   -2.8425   -1.4291 O   0  0  0  0  0  0  0  0  0  0  0  0
    5.2509   -2.9302   -0.3652 C   0  0  1  0  0  0  0  0  0  0  0  0
    4.3759   -2.1115    0.7087 C   0  0  2  0  0  0  0  0  0  0  0  0
    2.8283   -1.8635    0.9056 C   0  0  0  0  0  0  0  0  0  0  0  0
    2.1402   -2.7592    2.0411 C   0  0  0  0  0  0  0  0  0  0  0  0
    2.5544   -4.2205    1.9507 N   0  0  0  0  0  0  0  0  0  0  0  0
    2.5419   -4.8651    3.2512 C   0  0  0  0  0  0  0  0  0  0  0  0
    3.8115   -4.3922    1.2237 C   0  0  2  0  0  0  0  0  0  0  0  0
    3.6152   -4.9242   -0.3276 C   0  0  0  0  0  0  0  0  0  0  0  0
    4.7406   -3.0644    1.7578 C   0  0  1  0  0  0  0  0  0  0  0  0
    3.8710    1.7801   -3.9638 H   0  0  0  0  0  0  0  0  0  0  0  0
    4.5917    0.3025   -4.6264 H   0  0  0  0  0  0  0  0  0  0  0  0
    4.9308    0.8228   -2.9409 H   0  0  0  0  0  0  0  0  0  0  0  0
    1.6886   -2.1113   -3.8209 H   0  0  0  0  0  0  0  0  0  0  0  0
    1.6604   -4.1641   -2.5579 H   0  0  0  0  0  0  0  0  0  0  0  0
    4.3880    0.0678    0.9032 H   0  0  0  0  0  0  0  0  0  0  0  0
    7.0787   -0.6814    1.0567 H   0  0  0  0  0  0  0  0  0  0  0  0
    5.0641   -0.5203    3.0459 H   0  0  0  0  0  0  0  0  0  0  0  0
    6.6228   -2.6695    2.8852 H   0  0  0  0  0  0  0  0  0  0  0  0
    5.5088   -3.9772   -0.2120 H   0  0  0  0  0  0  0  0  0  0  0  0
    2.5793   -0.8432    1.2075 H   0  0  0  0  0  0  0  0  0  0  0  0
    2.2937   -2.0622   -0.0111 H   0  0  0  0  0  0  0  0  0  0  0  0
    2.3959   -2.3715    3.0352 H   0  0  0  0  0  0  0  0  0  0  0  0
    1.0481   -2.6367    1.9871 H   0  0  0  0  0  0  0  0  0  0  0  0
    2.7681   -5.9241    3.1461 H   0  0  0  0  0  0  0  0  0  0  0  0
    1.5532   -4.7783    3.7011 H   0  0  0  0  0  0  0  0  0  0  0  0
    3.2668   -4.4196    3.9300 H   0  0  0  0  0  0  0  0  0  0  0  0
    3.0531   -3.9951    0.5931 H   0  0  0  0  0  0  0  0  0  0  0  0
    2.7278   -5.5600   -0.3630 H   0  0  0  0  0  0  0  0  0  0  0  0
    4.4291   -5.6114   -0.5956 H   0  0  0  0  0  0  0  0  0  0  0  0
    4.3991   -2.7518    2.7351 H   0  0  0  0  0  0  0  0  0  0  0  0
  1  2  1  0
  1 26  1  0
  1 27  1  0
  1 28  1  0
  2  3  1  0
  3  8  2  0
  3  4  1  0
  4  5  2  0
  4 29  1  0
  5  6  1  0
  5 30  1  0
  6 24  1  0
  6  7  2  0
  7 17  1  0
  7  8  1  0
  8  9  1  0
  9 10  1  0
 10 18  1  0
 10 11  1  0
 10 31  1  1
 11 12  1  0
 11 13  1  0
 11 32  1  6
 12 33  1  0
 13 25  1  0
 13 14  1  0
 13 34  1  1
 14 15  1  0
 15 16  2  0
 15 17  1  0
 17 18  1  0
 17 35  1  1
 18 25  1  0
 18 19  1  6
 19 20  1  0
 19 36  1  0
 19 37  1  0
 20 21  1  0
 20 38  1  0
 20 39  1  0
 21 22  1  0
 21 23  1  0
 22 40  1  0
 22 41  1  0
 22 42  1  0
 23 24  1  0
 23 25  1  0
 23 43  1  1
 24 44  1  0
 24 45  1  0
 25 46  1  1
M  END
>  <i_m_ct_stereo_status>  (133) 
1

>  <s_m_source_file>  (133) 
/var/tmp/pbs.5076255.sched01/tmpn9kf4o8v/46f5dlbpu8.sdf

>  <i_m_source_file_index>  (133) 
7

>  <i_lp_mmshare_version>  (133) 
48012

>  <i_f3d_flags>  (133) 
0

>  <s_epik_input>  (133) 
W0NIM11PYzFbY0hdW2NIXWMoYzJjMU9bQ0BASF0zQzQ1NilbQ0gyXVtDQEBIXShOKFtDSDNdKVtDSDJdW0NIMl01KVtDSF02W0NASF0oW0NAQEhdM1tPSF0pT0MoPU8pW0NASF0yNA==

>  <s_epik_cmdline>  (133) 
J2VwaWtfcHl0aG9uJywgJy1waHQnLCAnMi4wJywgJy1waCcsICc3LjAnLCAnLXRuJywgJzgnLCAnLW1hJywgJzIwMCcsICctaW1hZScsICc8aW5maWxlLm1hZT4nLCAnLW9tYWUnLCAnPG91dGZpbGUubWFlPic=

>  <r_lp_tautomer_probability>  (133) 
1

>  <r_epik_Ionization_Penalty>  (133) 
1.08801

>  <r_epik_Ionization_Penalty_Charging>  (133) 
0

>  <r_epik_Ionization_Penalty_Neutral>  (133) 
1.08801

>  <r_epik_State_Penalty>  (133) 
1.14403

>  <r_epik_Charging_Adjusted_Penalty>  (133) 
1.14403

>  <i_epik_Tot_Q>  (133) 
0

>  <i_epik_Tot_abs_Q>  (133) 
0

>  <s_epik_Chemistry_Notes>  (133) 
This compound has an ester and may undergo hydrolysis at high or low pH.

>  <s_lp_Force_Field>  (133) 
OPLS3e

>  <r_lp_Energy>  (133) 
327.78

>  <b_lp_Chiralities_Consistent>  (133) 
1

>  <s_lp_Variant>  (133) 
38:0-8

>  <s_i_glide_gridfile>  (133) 
pfpi4k_grid

>  <i_i_glide_lignum>  (133) 
7

>  <i_i_glide_rotatable_bonds>  (133) 
2

>  <r_i_docking_score>  (133) 
-2.55281

>  <r_i_glide_ligand_efficiency>  (133) 
-0.102112

>  <r_i_glide_ligand_efficiency_sa>  (133) 
-0.298579

>  <r_i_glide_ligand_efficiency_ln>  (133) 
-0.605093

>  <r_i_glide_gscore>  (133) 
-2.55281

>  <r_i_glide_lipo>  (133) 
-0.526172

>  <r_i_glide_hbond>  (133) 
-0.201211

>  <r_i_glide_metal>  (133) 
-0

>  <r_i_glide_rewards>  (133) 
-1.11815

>  <r_i_glide_evdw>  (133) 
-9.31032

>  <r_i_glide_ecoul>  (133) 
-1.61176

>  <r_i_glide_erotb>  (133) 
0

>  <r_i_glide_esite>  (133) 
0

>  <r_i_glide_emodel>  (133) 
-9.55057

>  <r_i_glide_energy>  (133) 
-10.9221

>  <r_i_glide_einternal>  (133) 
4.65424

>  <r_i_glide_intrahb_reward>  (133) 
-0

>  <i_i_glide_confnum>  (133) 
1

>  <i_i_glide_posenum>  (133) 
28

>  <r_i_glide_eff_state_penalty>  (133) 
0

>  <ligand_id>  (133) 
38

>  <original_smiles>  (133) 
COc1ccc2c3c1OC1C(O)C4OC(=O)C3C13CCN(C)C(C2)C43

>  <smiles>  (133) 
[H]OC1([H])C2([H])OC(=O)C3([H])c4c5c(OC([H])([H])[H])c([H])c([H])c4C([H])([H])C4([H])N(C([H])([H])[H])C([H])([H])C([H])([H])C3(C1([H])O5)C24[H]

$$$$
39:0:0
     RDKit          3D

 67 72  0  0  1  0  0  0  0  0999 V2000
    1.0993  -11.2901    3.1626 C   0  0  0  0  0  0  0  0  0  0  0  0
    1.8891  -10.0979    3.7143 C   0  0  2  0  0  0  0  0  0  0  0  0
    0.9305   -9.2270    4.7534 C   0  0  0  0  0  0  0  0  0  0  0  0
    1.3409   -7.7056    5.0480 C   0  0  1  0  0  0  0  0  0  0  0  0
    2.2829   -7.7049    4.0281 C   0  0  1  0  0  0  0  0  0  0  0  0
    3.5323   -8.2684    4.2194 O   0  0  0  0  0  0  0  0  0  0  0  0
    3.8244   -8.0980    2.8870 C   0  0  1  0  0  0  0  0  0  0  0  0
    2.6087   -9.1389    2.5696 C   0  0  1  0  0  0  0  0  0  0  0  0
    2.8298   -9.7795    1.3017 O   0  0  0  0  0  0  0  0  0  0  0  0
    1.7209   -8.0328    2.5134 C   0  0  1  0  0  0  0  0  0  0  0  0
    0.3742   -8.3637    2.2071 O   0  0  0  0  0  0  0  0  0  0  0  0
    3.9205   -6.3784    2.5490 C   0  0  2  0  0  0  0  0  0  0  0  0
    4.7836   -6.2531    1.2693 C   0  0  0  0  0  0  0  0  0  0  0  0
    4.5388   -5.6680    3.8287 C   0  0  1  0  0  0  0  0  0  0  0  0
    5.7981   -5.0743    3.6366 O   0  0  0  0  0  0  0  0  0  0  0  0
    3.4167   -4.7235    4.4958 C   0  0  1  0  0  0  0  0  0  0  0  0
    3.8179   -3.3984    4.1349 O   0  0  0  0  0  0  0  0  0  0  0  0
    3.5981   -3.0369    2.8073 C   0  0  1  0  0  0  0  0  0  0  0  0
    4.8726   -2.3560    2.2478 C   0  0  0  0  0  0  0  0  0  0  0  0
    4.9951   -2.4182    0.7865 N   0  0  0  0  0  0  0  0  0  0  0  0
    6.3741   -2.4400    0.3201 C   0  0  0  0  0  0  0  0  0  0  0  0
    6.4529   -2.5413   -1.2165 C   0  0  0  0  0  0  0  0  0  0  0  0
    5.7369   -1.4560   -1.7915 O   0  0  0  0  0  0  0  0  0  0  0  0
    4.3611   -1.4510   -1.4123 C   0  0  0  0  0  0  0  0  0  0  0  0
    4.2523   -1.3567    0.1221 C   0  0  0  0  0  0  0  0  0  0  0  0
    3.2999   -4.1115    1.9665 O   0  0  0  0  0  0  0  0  0  0  0  0
    2.6353   -5.2846    2.4315 C   0  0  1  0  0  0  0  0  0  0  0  0
    1.6603   -5.5005    1.4250 O   0  0  0  0  0  0  0  0  0  0  0  0
    1.9542   -5.0161    3.8864 C   0  0  2  0  0  0  0  0  0  0  0  0
    1.0425   -3.7408    3.8975 C   0  0  0  0  0  0  0  0  0  0  0  0
    0.8882   -6.2041    4.5611 C   0  0  1  0  0  0  0  0  0  0  0  0
   -0.3642   -6.2617    3.9093 O   0  0  0  0  0  0  0  0  0  0  0  0
    0.2412  -10.9934    2.5458 H   0  0  0  0  0  0  0  0  0  0  0  0
    0.7026  -11.8954    3.9802 H   0  0  0  0  0  0  0  0  0  0  0  0
    1.7268  -11.9626    2.5685 H   0  0  0  0  0  0  0  0  0  0  0  0
    2.7006  -10.5481    4.3003 H   0  0  0  0  0  0  0  0  0  0  0  0
   -0.1198   -9.3150    4.4596 H   0  0  0  0  0  0  0  0  0  0  0  0
    0.9724   -9.7573    5.7012 H   0  0  0  0  0  0  0  0  0  0  0  0
    1.8219   -7.6519    6.0304 H   0  0  0  0  0  0  0  0  0  0  0  0
    2.8351   -6.9571    4.4977 H   0  0  0  0  0  0  0  0  0  0  0  0
    4.7925   -8.5672    2.6980 H   0  0  0  0  0  0  0  0  0  0  0  0
    3.3558  -10.5451    1.3978 H   0  0  0  0  0  0  0  0  0  0  0  0
    2.0793   -7.6301    1.5806 H   0  0  0  0  0  0  0  0  0  0  0  0
    0.3773   -8.9230    1.4312 H   0  0  0  0  0  0  0  0  0  0  0  0
    5.0889   -5.2316    1.0311 H   0  0  0  0  0  0  0  0  0  0  0  0
    4.2511   -6.6365    0.3944 H   0  0  0  0  0  0  0  0  0  0  0  0
    5.7112   -6.8161    1.3685 H   0  0  0  0  0  0  0  0  0  0  0  0
    4.8362   -6.4005    4.5752 H   0  0  0  0  0  0  0  0  0  0  0  0
    5.6892   -4.3927    2.9802 H   0  0  0  0  0  0  0  0  0  0  0  0
    3.4228   -4.8014    5.5860 H   0  0  0  0  0  0  0  0  0  0  0  0
    2.7882   -2.3124    2.7577 H   0  0  0  0  0  0  0  0  0  0  0  0
    4.9208   -1.3265    2.6003 H   0  0  0  0  0  0  0  0  0  0  0  0
    5.7354   -2.8364    2.6895 H   0  0  0  0  0  0  0  0  0  0  0  0
    6.8976   -1.5490    0.6658 H   0  0  0  0  0  0  0  0  0  0  0  0
    6.8877   -3.3000    0.7480 H   0  0  0  0  0  0  0  0  0  0  0  0
    7.4905   -2.5007   -1.5487 H   0  0  0  0  0  0  0  0  0  0  0  0
    6.0426   -3.4861   -1.5736 H   0  0  0  0  0  0  0  0  0  0  0  0
    3.8712   -0.5969   -1.8766 H   0  0  0  0  0  0  0  0  0  0  0  0
    3.8596   -2.3463   -1.7820 H   0  0  0  0  0  0  0  0  0  0  0  0
    3.2002   -1.3915    0.4120 H   0  0  0  0  0  0  0  0  0  0  0  0
    4.6378   -0.3869    0.4415 H   0  0  0  0  0  0  0  0  0  0  0  0
    2.1542   -5.6267    0.6065 H   0  0  0  0  0  0  0  0  0  0  0  0
    0.0634   -3.8921    4.3488 H   0  0  0  0  0  0  0  0  0  0  0  0
    0.8423   -3.3707    2.8907 H   0  0  0  0  0  0  0  0  0  0  0  0
    1.4638   -2.9210    4.4816 H   0  0  0  0  0  0  0  0  0  0  0  0
    0.6119   -5.7571    5.5169 H   0  0  0  0  0  0  0  0  0  0  0  0
   -0.8664   -6.9761    4.3115 H   0  0  0  0  0  0  0  0  0  0  0  0
  1  2  1  0
  1 33  1  0
  1 34  1  0
  1 35  1  0
  2  8  1  0
  2  3  1  0
  2 36  1  1
  3  4  1  0
  3 37  1  0
  3 38  1  0
  4 31  1  0
  4  5  1  0
  4 39  1  1
  5 10  1  0
  5  6  1  0
  5 40  1  6
  6  7  1  0
  7  8  1  0
  7 12  1  0
  7 41  1  1
  8  9  1  6
  8 10  1  0
  9 42  1  0
 10 11  1  0
 10 43  1  6
 11 44  1  0
 12 27  1  0
 12 13  1  6
 12 14  1  0
 13 45  1  0
 13 46  1  0
 13 47  1  0
 14 15  1  0
 14 16  1  0
 14 48  1  1
 15 49  1  0
 16 29  1  0
 16 17  1  0
 16 50  1  1
 17 18  1  0
 18 19  1  0
 18 26  1  0
 18 51  1  1
 19 20  1  0
 19 52  1  0
 19 53  1  0
 20 25  1  0
 20 21  1  0
 21 22  1  0
 21 54  1  0
 21 55  1  0
 22 23  1  0
 22 56  1  0
 22 57  1  0
 23 24  1  0
 24 25  1  0
 24 58  1  0
 24 59  1  0
 25 60  1  0
 25 61  1  0
 26 27  1  0
 27 28  1  6
 27 29  1  0
 28 62  1  0
 29 30  1  6
 29 31  1  0
 30 63  1  0
 30 64  1  0
 30 65  1  0
 31 32  1  0
 31 66  1  1
 32 67  1  0
M  END
>  <i_m_ct_stereo_status>  (134) 
1

>  <s_m_source_file>  (134) 
/var/tmp/pbs.5076255.sched01/tmpn9kf4o8v/46f5dlbpu8.sdf

>  <i_m_source_file_index>  (134) 
8

>  <i_lp_mmshare_version>  (134) 
48012

>  <i_f3d_flags>  (134) 
0

>  <s_epik_input>  (134) 
W0NIM11bQ0BASF0xW0NIMl1bQ0hdKFtDQEBIXShPMilbQ0BASF0zW09IXSlbQ0BIXShbT0hdKVtDQF0oW0NIM10pKFtDQF00KFtPSF0pW0NAXTUoW0NIM10pW0NAQEhdMltDQEBdMTNbT0hdKVtDQEBIXShbQ0BASF01W09IXSlPW0NASF0oTzQpW0NIMl1ONltDSDJdW0NIMl1PW0NIMl1bQ0gyXTY=

>  <s_epik_cmdline>  (134) 
J2VwaWtfcHl0aG9uJywgJy1waHQnLCAnMi4wJywgJy1waCcsICc3LjAnLCAnLXRuJywgJzgnLCAnLW1hJywgJzIwMCcsICctaW1hZScsICc8aW5maWxlLm1hZT4nLCAnLW9tYWUnLCAnPG91dGZpbGUubWFlPic=

>  <r_epik_Ionization_Penalty>  (134) 
0.0114501

>  <r_epik_Ionization_Penalty_Charging>  (134) 
0

>  <r_epik_Ionization_Penalty_Neutral>  (134) 
0.0114501

>  <r_epik_State_Penalty>  (134) 
0.00880224

>  <r_epik_Charging_Adjusted_Penalty>  (134) 
0.00880224

>  <i_epik_Tot_Q>  (134) 
0

>  <i_epik_Tot_abs_Q>  (134) 
0

>  <s_epik_Chemistry_Notes>  (134) 
This compound contains an acetal/aminal-like group ( X-CH(R)-Y where X, Y are N, S, or O) that may be acid/base labile, releasing an aldehyde.

>  <s_lp_Force_Field>  (134) 
OPLS3e

>  <r_lp_Energy>  (134) 
351.564

>  <b_lp_Chiralities_Consistent>  (134) 
1

>  <s_lp_Variant>  (134) 
39:0-1

>  <s_i_glide_gridfile>  (134) 
pfpi4k_grid

>  <i_i_glide_lignum>  (134) 
8

>  <i_i_glide_rotatable_bonds>  (134) 
7

>  <r_i_docking_score>  (134) 
-2.90573

>  <r_i_glide_ligand_efficiency>  (134) 
-0.0908041

>  <r_i_glide_ligand_efficiency_sa>  (134) 
-0.288285

>  <r_i_glide_ligand_efficiency_ln>  (134) 
-0.650673

>  <r_i_glide_gscore>  (134) 
-2.90573

>  <r_i_glide_lipo>  (134) 
-0.428038

>  <r_i_glide_hbond>  (134) 
-0.0538045

>  <r_i_glide_metal>  (134) 
-0

>  <r_i_glide_rewards>  (134) 
-0.290393

>  <r_i_glide_evdw>  (134) 
-20.5126

>  <r_i_glide_ecoul>  (134) 
-8.61868

>  <r_i_glide_erotb>  (134) 
0.192103

>  <r_i_glide_esite>  (134) 
-0.00716956

>  <r_i_glide_emodel>  (134) 
-31.8132

>  <r_i_glide_energy>  (134) 
-29.1313

>  <r_i_glide_einternal>  (134) 
6.72641

>  <r_i_glide_intrahb_reward>  (134) 
-0

>  <i_i_glide_confnum>  (134) 
2

>  <i_i_glide_posenum>  (134) 
2

>  <r_i_glide_eff_state_penalty>  (134) 
0

>  <ligand_id>  (134) 
39

>  <original_smiles>  (134) 
CC1CC2C3OC(C1(O)C3O)C1(C)C(O)C3OC(CN4CCOCC4)OC1(O)C3(C)C2O

>  <smiles>  (134) 
[H]OC1([H])C2([H])OC3([H])C1(O[H])C([H])(C([H])([H])[H])C([H])([H])C2([H])C([H])(O[H])C1(C([H])([H])[H])C2([H])OC([H])(C([H])([H])N4C([H])([H])C([H])([H])OC([H])([H])C4([H])[H])OC1(O[H])C3(C([H])([H])[H])C2([H])O[H]

$$$$
39:0:1
     RDKit          3D

 67 72  0  0  1  0  0  0  0  0999 V2000
    3.8241  -12.3875    3.1434 C   0  0  0  0  0  0  0  0  0  0  0  0
    3.6544  -11.1278    3.9878 C   0  0  2  0  0  0  0  0  0  0  0  0
    2.2536  -11.2302    4.8644 C   0  0  0  0  0  0  0  0  0  0  0  0
    1.6235   -9.8650    5.4239 C   0  0  1  0  0  0  0  0  0  0  0  0
    2.4928   -9.0903    4.6692 C   0  0  1  0  0  0  0  0  0  0  0  0
    3.7986   -8.8653    5.0658 O   0  0  0  0  0  0  0  0  0  0  0  0
    4.0755   -8.2647    3.8558 C   0  0  1  0  0  0  0  0  0  0  0  0
    3.7818   -9.7133    3.1448 C   0  0  1  0  0  0  0  0  0  0  0  0
    4.4701   -9.8553    1.8967 O   0  0  0  0  0  0  0  0  0  0  0  0
    2.4333   -9.3027    3.0484 C   0  0  1  0  0  0  0  0  0  0  0  0
    1.5786  -10.2257    2.4239 O   0  0  0  0  0  0  0  0  0  0  0  0
    3.1395   -6.7822    3.7552 C   0  0  2  0  0  0  0  0  0  0  0  0
    3.8996   -5.8778    2.7480 C   0  0  0  0  0  0  0  0  0  0  0  0
    3.0533   -6.1602    5.2265 C   0  0  1  0  0  0  0  0  0  0  0  0
    3.7169   -4.9301    5.4249 O   0  0  0  0  0  0  0  0  0  0  0  0
    1.5293   -6.2146    5.7225 C   0  0  1  0  0  0  0  0  0  0  0  0
    1.1010   -4.8607    5.6229 O   0  0  0  0  0  0  0  0  0  0  0  0
    0.8763   -4.3954    4.3363 C   0  0  1  0  0  0  0  0  0  0  0  0
    1.4763   -2.9824    4.1840 C   0  0  0  0  0  0  0  0  0  0  0  0
    0.8964   -1.9338    5.0263 N   0  0  0  0  0  0  0  0  0  0  0  0
   -0.4401   -1.5593    4.5890 C   0  0  0  0  0  0  0  0  0  0  0  0
   -1.0559   -0.4594    5.4604 C   0  0  0  0  0  0  0  0  0  0  0  0
   -0.2051    0.6778    5.4670 O   0  0  0  0  0  0  0  0  0  0  0  0
    1.1102    0.3736    5.9196 C   0  0  0  0  0  0  0  0  0  0  0  0
    1.7280   -0.7320    5.0404 C   0  0  0  0  0  0  0  0  0  0  0  0
    1.3795   -5.2110    3.3155 O   0  0  0  0  0  0  0  0  0  0  0  0
    1.4676   -6.6303    3.4707 C   0  0  1  0  0  0  0  0  0  0  0  0
    0.9013   -7.1390    2.2468 O   0  0  0  0  0  0  0  0  0  0  0  0
    0.6175   -7.1361    4.7613 C   0  0  2  0  0  0  0  0  0  0  0  0
   -0.8729   -6.6560    4.6978 C   0  0  0  0  0  0  0  0  0  0  0  0
    0.4120   -8.8295    5.0196 C   0  0  1  0  0  0  0  0  0  0  0  0
   -0.4924   -9.4076    4.0830 O   0  0  0  0  0  0  0  0  0  0  0  0
    3.0150  -12.5336    2.4159 H   0  0  0  0  0  0  0  0  0  0  0  0
    3.8199  -13.2734    3.7734 H   0  0  0  0  0  0  0  0  0  0  0  0
    4.7737  -12.4152    2.5954 H   0  0  0  0  0  0  0  0  0  0  0  0
    4.5027  -11.1467    4.6901 H   0  0  0  0  0  0  0  0  0  0  0  0
    1.5072  -11.8420    4.3437 H   0  0  0  0  0  0  0  0  0  0  0  0
    2.5230  -11.8348    5.7120 H   0  0  0  0  0  0  0  0  0  0  0  0
    1.8430   -9.7896    6.4928 H   0  0  0  0  0  0  0  0  0  0  0  0
    2.4087   -8.2995    5.3404 H   0  0  0  0  0  0  0  0  0  0  0  0
    5.1420   -8.0333    3.8501 H   0  0  0  0  0  0  0  0  0  0  0  0
    4.2087  -10.6744    1.4766 H   0  0  0  0  0  0  0  0  0  0  0  0
    2.5810   -8.5675    2.2712 H   0  0  0  0  0  0  0  0  0  0  0  0
    1.7154  -11.0778    2.8291 H   0  0  0  0  0  0  0  0  0  0  0  0
    3.5577   -4.8399    2.7052 H   0  0  0  0  0  0  0  0  0  0  0  0
    3.8124   -6.2795    1.7367 H   0  0  0  0  0  0  0  0  0  0  0  0
    4.9613   -5.8160    2.9930 H   0  0  0  0  0  0  0  0  0  0  0  0
    3.6475   -6.7379    5.9303 H   0  0  0  0  0  0  0  0  0  0  0  0
    3.2809   -4.2834    4.8860 H   0  0  0  0  0  0  0  0  0  0  0  0
    1.4459   -6.5255    6.7711 H   0  0  0  0  0  0  0  0  0  0  0  0
   -0.1881   -4.3335    4.1719 H   0  0  0  0  0  0  0  0  0  0  0  0
    2.5466   -3.0278    4.3768 H   0  0  0  0  0  0  0  0  0  0  0  0
    1.3909   -2.6868    3.1415 H   0  0  0  0  0  0  0  0  0  0  0  0
   -0.4055   -1.2233    3.5545 H   0  0  0  0  0  0  0  0  0  0  0  0
   -1.1118   -2.4107    4.6379 H   0  0  0  0  0  0  0  0  0  0  0  0
   -2.0360   -0.1819    5.0720 H   0  0  0  0  0  0  0  0  0  0  0  0
   -1.1941   -0.8234    6.4775 H   0  0  0  0  0  0  0  0  0  0  0  0
    1.7146    1.2801    5.8730 H   0  0  0  0  0  0  0  0  0  0  0  0
    1.0790    0.0563    6.9633 H   0  0  0  0  0  0  0  0  0  0  0  0
    2.7217   -0.9712    5.4185 H   0  0  0  0  0  0  0  0  0  0  0  0
    1.8650   -0.3557    4.0253 H   0  0  0  0  0  0  0  0  0  0  0  0
    0.9753   -8.0962    2.2520 H   0  0  0  0  0  0  0  0  0  0  0  0
   -1.6079   -7.4356    4.8811 H   0  0  0  0  0  0  0  0  0  0  0  0
   -1.1339   -6.2767    3.7090 H   0  0  0  0  0  0  0  0  0  0  0  0
   -1.1082   -5.8974    5.4439 H   0  0  0  0  0  0  0  0  0  0  0  0
   -0.1924   -8.8564    5.9183 H   0  0  0  0  0  0  0  0  0  0  0  0
   -1.0685  -10.0547    4.5040 H   0  0  0  0  0  0  0  0  0  0  0  0
  1  2  1  0
  1 33  1  0
  1 34  1  0
  1 35  1  0
  2  8  1  0
  2  3  1  0
  2 36  1  1
  3  4  1  0
  3 37  1  0
  3 38  1  0
  4 31  1  0
  4  5  1  0
  4 39  1  1
  5 10  1  0
  5  6  1  0
  5 40  1  6
  6  7  1  0
  7  8  1  0
  7 12  1  0
  7 41  1  1
  8  9  1  6
  8 10  1  0
  9 42  1  0
 10 11  1  0
 10 43  1  6
 11 44  1  0
 12 27  1  0
 12 13  1  6
 12 14  1  0
 13 45  1  0
 13 46  1  0
 13 47  1  0
 14 15  1  0
 14 16  1  0
 14 48  1  1
 15 49  1  0
 16 29  1  0
 16 17  1  0
 16 50  1  1
 17 18  1  0
 18 19  1  0
 18 26  1  0
 18 51  1  6
 19 20  1  0
 19 52  1  0
 19 53  1  0
 20 25  1  0
 20 21  1  0
 21 22  1  0
 21 54  1  0
 21 55  1  0
 22 23  1  0
 22 56  1  0
 22 57  1  0
 23 24  1  0
 24 25  1  0
 24 58  1  0
 24 59  1  0
 25 60  1  0
 25 61  1  0
 26 27  1  0
 27 28  1  6
 27 29  1  0
 28 62  1  0
 29 30  1  6
 29 31  1  0
 30 63  1  0
 30 64  1  0
 30 65  1  0
 31 32  1  0
 31 66  1  1
 32 67  1  0
M  END
>  <i_m_ct_stereo_status>  (135) 
1

>  <s_m_source_file>  (135) 
/var/tmp/pbs.5076255.sched01/tmpn9kf4o8v/46f5dlbpu8.sdf

>  <i_m_source_file_index>  (135) 
8

>  <i_lp_mmshare_version>  (135) 
48012

>  <i_f3d_flags>  (135) 
0

>  <s_epik_input>  (135) 
W0NIM11bQ0BASF0xW0NIMl1bQ0hdKFtDQEBIXShPMilbQ0BASF0zW09IXSlbQ0BIXShbT0hdKVtDQF0oW0NIM10pKFtDQF00KFtPSF0pW0NAXTUoW0NIM10pW0NAQEhdMltDQEBdMTNbT0hdKVtDQEBIXShbQ0BASF01W09IXSlPW0NASF0oTzQpW0NIMl1ONltDSDJdW0NIMl1PW0NIMl1bQ0gyXTY=

>  <s_epik_cmdline>  (135) 
J2VwaWtfcHl0aG9uJywgJy1waHQnLCAnMi4wJywgJy1waCcsICc3LjAnLCAnLXRuJywgJzgnLCAnLW1hJywgJzIwMCcsICctaW1hZScsICc8aW5maWxlLm1hZT4nLCAnLW9tYWUnLCAnPG91dGZpbGUubWFlPic=

>  <r_epik_Ionization_Penalty>  (135) 
0.0114501

>  <r_epik_Ionization_Penalty_Charging>  (135) 
0

>  <r_epik_Ionization_Penalty_Neutral>  (135) 
0.0114501

>  <r_epik_State_Penalty>  (135) 
0.00880224

>  <r_epik_Charging_Adjusted_Penalty>  (135) 
0.00880224

>  <i_epik_Tot_Q>  (135) 
0

>  <i_epik_Tot_abs_Q>  (135) 
0

>  <s_epik_Chemistry_Notes>  (135) 
This compound contains an acetal/aminal-like group ( X-CH(R)-Y where X, Y are N, S, or O) that may be acid/base labile, releasing an aldehyde.

>  <s_lp_Force_Field>  (135) 
OPLS3e

>  <r_lp_Energy>  (135) 
351.564

>  <b_lp_Chiralities_Consistent>  (135) 
1

>  <s_lp_Variant>  (135) 
39:0-1

>  <s_i_glide_gridfile>  (135) 
pfpi4k_grid

>  <i_i_glide_lignum>  (135) 
8

>  <i_i_glide_rotatable_bonds>  (135) 
7

>  <r_i_docking_score>  (135) 
-2.48425

>  <r_i_glide_ligand_efficiency>  (135) 
-0.0776328

>  <r_i_glide_ligand_efficiency_sa>  (135) 
-0.246469

>  <r_i_glide_ligand_efficiency_ln>  (135) 
-0.556292

>  <r_i_glide_gscore>  (135) 
-2.48425

>  <r_i_glide_lipo>  (135) 
-0.0162604

>  <r_i_glide_hbond>  (135) 
0

>  <r_i_glide_metal>  (135) 
-0

>  <r_i_glide_rewards>  (135) 
-0.289673

>  <r_i_glide_evdw>  (135) 
-18.0054

>  <r_i_glide_ecoul>  (135) 
-9.70821

>  <r_i_glide_erotb>  (135) 
0.192103

>  <r_i_glide_esite>  (135) 
-0.013921

>  <r_i_glide_emodel>  (135) 
-31.3683

>  <r_i_glide_energy>  (135) 
-27.7136

>  <r_i_glide_einternal>  (135) 
2.66967

>  <r_i_glide_intrahb_reward>  (135) 
-0

>  <i_i_glide_confnum>  (135) 
3

>  <i_i_glide_posenum>  (135) 
39

>  <r_i_glide_eff_state_penalty>  (135) 
0

>  <ligand_id>  (135) 
39

>  <original_smiles>  (135) 
CC1CC2C3OC(C1(O)C3O)C1(C)C(O)C3OC(CN4CCOCC4)OC1(O)C3(C)C2O

>  <smiles>  (135) 
[H]OC1([H])C2([H])OC3([H])C1(O[H])C([H])(C([H])([H])[H])C([H])([H])C2([H])C([H])(O[H])C1(C([H])([H])[H])C2([H])OC([H])(C([H])([H])N4C([H])([H])C([H])([H])OC([H])([H])C4([H])[H])OC1(O[H])C3(C([H])([H])[H])C2([H])O[H]

$$$$
39:0:2
     RDKit          3D

 67 72  0  0  1  0  0  0  0  0999 V2000
    3.4847  -12.2359    3.1382 C   0  0  0  0  0  0  0  0  0  0  0  0
    3.4567  -10.9259    3.9135 C   0  0  2  0  0  0  0  0  0  0  0  0
    2.1694  -10.9142    4.9522 C   0  0  0  0  0  0  0  0  0  0  0  0
    1.6593   -9.4978    5.4927 C   0  0  1  0  0  0  0  0  0  0  0  0
    2.4462   -8.8138    4.5742 C   0  0  1  0  0  0  0  0  0  0  0  0
    3.7997   -8.6155    4.7979 O   0  0  0  0  0  0  0  0  0  0  0  0
    3.9514   -8.1115    3.5282 C   0  0  1  0  0  0  0  0  0  0  0  0
    3.5183   -9.5861    2.9626 C   0  0  1  0  0  0  0  0  0  0  0  0
    4.0502   -9.8209    1.6515 O   0  0  0  0  0  0  0  0  0  0  0  0
    2.1758   -9.1374    2.9824 C   0  0  1  0  0  0  0  0  0  0  0  0
    1.2087  -10.0555    2.5156 O   0  0  0  0  0  0  0  0  0  0  0  0
    3.0718   -6.5934    3.4386 C   0  0  2  0  0  0  0  0  0  0  0  0
    3.7265   -5.7989    2.2823 C   0  0  0  0  0  0  0  0  0  0  0  0
    3.1897   -5.8783    4.8585 C   0  0  1  0  0  0  0  0  0  0  0  0
    3.9062   -4.6636    4.8920 O   0  0  0  0  0  0  0  0  0  0  0  0
    1.7367   -5.8354    5.5429 C   0  0  1  0  0  0  0  0  0  0  0  0
    1.3319   -4.4809    5.4016 O   0  0  0  0  0  0  0  0  0  0  0  0
    0.9619   -4.0815    4.1307 C   0  0  1  0  0  0  0  0  0  0  0  0
    1.5954   -2.7106    3.7873 C   0  0  0  0  0  0  0  0  0  0  0  0
    1.1886   -1.5874    4.6344 N   0  0  0  0  0  0  0  0  0  0  0  0
    1.2987   -0.3140    3.9283 C   0  0  0  0  0  0  0  0  0  0  0  0
    0.8698    0.8673    4.8191 C   0  0  0  0  0  0  0  0  0  0  0  0
    1.6530    0.8837    6.0060 O   0  0  0  0  0  0  0  0  0  0  0  0
    1.5518   -0.3274    6.7446 C   0  0  0  0  0  0  0  0  0  0  0  0
    1.9789   -1.5079    5.8587 C   0  0  0  0  0  0  0  0  0  0  0  0
    1.2934   -4.9867    3.1152 O   0  0  0  0  0  0  0  0  0  0  0  0
    1.3826   -6.3943    3.3571 C   0  0  1  0  0  0  0  0  0  0  0  0
    0.6475   -6.9434    2.2550 O   0  0  0  0  0  0  0  0  0  0  0  0
    0.6910   -6.7701    4.7778 C   0  0  2  0  0  0  0  0  0  0  0  0
   -0.7723   -6.2382    4.8721 C   0  0  0  0  0  0  0  0  0  0  0  0
    0.4526   -8.4292    5.1738 C   0  0  1  0  0  0  0  0  0  0  0  0
   -0.5724   -8.9810    4.3617 O   0  0  0  0  0  0  0  0  0  0  0  0
    2.6010  -12.3763    2.4946 H   0  0  0  0  0  0  0  0  0  0  0  0
    3.5019  -13.0673    3.8466 H   0  0  0  0  0  0  0  0  0  0  0  0
    4.3751  -12.3453    2.5014 H   0  0  0  0  0  0  0  0  0  0  0  0
    4.3708  -10.9405    4.5207 H   0  0  0  0  0  0  0  0  0  0  0  0
    1.3473  -11.5161    4.5523 H   0  0  0  0  0  0  0  0  0  0  0  0
    2.4969  -11.4690    5.8257 H   0  0  0  0  0  0  0  0  0  0  0  0
    2.0330   -9.3494    6.5078 H   0  0  0  0  0  0  0  0  0  0  0  0
    2.5008   -7.9780    5.1978 H   0  0  0  0  0  0  0  0  0  0  0  0
    5.0189   -7.9330    3.3762 H   0  0  0  0  0  0  0  0  0  0  0  0
    3.9150  -10.7293    1.3935 H   0  0  0  0  0  0  0  0  0  0  0  0
    2.2596   -8.4538    2.1515 H   0  0  0  0  0  0  0  0  0  0  0  0
    1.3645  -10.2322    1.5911 H   0  0  0  0  0  0  0  0  0  0  0  0
    3.4183   -4.7525    2.2128 H   0  0  0  0  0  0  0  0  0  0  0  0
    3.4990   -6.2638    1.3189 H   0  0  0  0  0  0  0  0  0  0  0  0
    4.8107   -5.7717    2.3994 H   0  0  0  0  0  0  0  0  0  0  0  0
    3.8465   -6.4395    5.5219 H   0  0  0  0  0  0  0  0  0  0  0  0
    3.4296   -4.0471    4.3564 H   0  0  0  0  0  0  0  0  0  0  0  0
    1.7810   -6.0747    6.6100 H   0  0  0  0  0  0  0  0  0  0  0  0
   -0.1127   -3.9279    4.1045 H   0  0  0  0  0  0  0  0  0  0  0  0
    2.6840   -2.7769    3.7686 H   0  0  0  0  0  0  0  0  0  0  0  0
    1.3062   -2.5031    2.7571 H   0  0  0  0  0  0  0  0  0  0  0  0
    2.3200   -0.1584    3.5787 H   0  0  0  0  0  0  0  0  0  0  0  0
    0.6664   -0.3298    3.0400 H   0  0  0  0  0  0  0  0  0  0  0  0
    0.9998    1.8142    4.2912 H   0  0  0  0  0  0  0  0  0  0  0  0
   -0.1862    0.7834    5.0784 H   0  0  0  0  0  0  0  0  0  0  0  0
    2.2013   -0.2657    7.6190 H   0  0  0  0  0  0  0  0  0  0  0  0
    0.5321   -0.4719    7.1028 H   0  0  0  0  0  0  0  0  0  0  0  0
    1.8884   -2.4207    6.4482 H   0  0  0  0  0  0  0  0  0  0  0  0
    3.0387   -1.4030    5.6136 H   0  0  0  0  0  0  0  0  0  0  0  0
    0.6789   -7.9089    2.3100 H   0  0  0  0  0  0  0  0  0  0  0  0
   -1.5103   -6.9664    5.1887 H   0  0  0  0  0  0  0  0  0  0  0  0
   -1.1098   -5.9141    3.8928 H   0  0  0  0  0  0  0  0  0  0  0  0
   -0.8884   -5.4307    5.5952 H   0  0  0  0  0  0  0  0  0  0  0  0
   -0.0300   -8.3646    6.1520 H   0  0  0  0  0  0  0  0  0  0  0  0
   -0.9277   -9.7704    4.7829 H   0  0  0  0  0  0  0  0  0  0  0  0
  1  2  1  0
  1 33  1  0
  1 34  1  0
  1 35  1  0
  2  8  1  0
  2  3  1  0
  2 36  1  1
  3  4  1  0
  3 37  1  0
  3 38  1  0
  4 31  1  0
  4  5  1  0
  4 39  1  1
  5 10  1  0
  5  6  1  0
  5 40  1  6
  6  7  1  0
  7  8  1  0
  7 12  1  0
  7 41  1  1
  8  9  1  6
  8 10  1  0
  9 42  1  0
 10 11  1  0
 10 43  1  6
 11 44  1  0
 12 27  1  0
 12 13  1  6
 12 14  1  0
 13 45  1  0
 13 46  1  0
 13 47  1  0
 14 15  1  0
 14 16  1  0
 14 48  1  1
 15 49  1  0
 16 29  1  0
 16 17  1  0
 16 50  1  1
 17 18  1  0
 18 19  1  0
 18 26  1  0
 18 51  1  1
 19 20  1  0
 19 52  1  0
 19 53  1  0
 20 25  1  0
 20 21  1  0
 21 22  1  0
 21 54  1  0
 21 55  1  0
 22 23  1  0
 22 56  1  0
 22 57  1  0
 23 24  1  0
 24 25  1  0
 24 58  1  0
 24 59  1  0
 25 60  1  0
 25 61  1  0
 26 27  1  0
 27 28  1  6
 27 29  1  0
 28 62  1  0
 29 30  1  6
 29 31  1  0
 30 63  1  0
 30 64  1  0
 30 65  1  0
 31 32  1  0
 31 66  1  1
 32 67  1  0
M  END
>  <i_m_ct_stereo_status>  (136) 
1

>  <s_m_source_file>  (136) 
/var/tmp/pbs.5076255.sched01/tmpn9kf4o8v/46f5dlbpu8.sdf

>  <i_m_source_file_index>  (136) 
8

>  <i_lp_mmshare_version>  (136) 
48012

>  <i_f3d_flags>  (136) 
0

>  <s_epik_input>  (136) 
W0NIM11bQ0BASF0xW0NIMl1bQ0hdKFtDQEBIXShPMilbQ0BASF0zW09IXSlbQ0BIXShbT0hdKVtDQF0oW0NIM10pKFtDQF00KFtPSF0pW0NAXTUoW0NIM10pW0NAQEhdMltDQEBdMTNbT0hdKVtDQEBIXShbQ0BASF01W09IXSlPW0NASF0oTzQpW0NIMl1ONltDSDJdW0NIMl1PW0NIMl1bQ0gyXTY=

>  <s_epik_cmdline>  (136) 
J2VwaWtfcHl0aG9uJywgJy1waHQnLCAnMi4wJywgJy1waCcsICc3LjAnLCAnLXRuJywgJzgnLCAnLW1hJywgJzIwMCcsICctaW1hZScsICc8aW5maWxlLm1hZT4nLCAnLW9tYWUnLCAnPG91dGZpbGUubWFlPic=

>  <r_epik_Ionization_Penalty>  (136) 
0.0114501

>  <r_epik_Ionization_Penalty_Charging>  (136) 
0

>  <r_epik_Ionization_Penalty_Neutral>  (136) 
0.0114501

>  <r_epik_State_Penalty>  (136) 
0.00880224

>  <r_epik_Charging_Adjusted_Penalty>  (136) 
0.00880224

>  <i_epik_Tot_Q>  (136) 
0

>  <i_epik_Tot_abs_Q>  (136) 
0

>  <s_epik_Chemistry_Notes>  (136) 
This compound contains an acetal/aminal-like group ( X-CH(R)-Y where X, Y are N, S, or O) that may be acid/base labile, releasing an aldehyde.

>  <s_lp_Force_Field>  (136) 
OPLS3e

>  <r_lp_Energy>  (136) 
351.564

>  <b_lp_Chiralities_Consistent>  (136) 
1

>  <s_lp_Variant>  (136) 
39:0-1

>  <s_i_glide_gridfile>  (136) 
pfpi4k_grid

>  <i_i_glide_lignum>  (136) 
8

>  <i_i_glide_rotatable_bonds>  (136) 
7

>  <r_i_docking_score>  (136) 
-2.43289

>  <r_i_glide_ligand_efficiency>  (136) 
-0.0760278

>  <r_i_glide_ligand_efficiency_sa>  (136) 
-0.241373

>  <r_i_glide_ligand_efficiency_ln>  (136) 
-0.544791

>  <r_i_glide_gscore>  (136) 
-2.43289

>  <r_i_glide_lipo>  (136) 
-0.0268343

>  <r_i_glide_hbond>  (136) 
0

>  <r_i_glide_metal>  (136) 
-0

>  <r_i_glide_rewards>  (136) 
-0.29317

>  <r_i_glide_evdw>  (136) 
-16.6692

>  <r_i_glide_ecoul>  (136) 
-9.69783

>  <r_i_glide_erotb>  (136) 
0.192103

>  <r_i_glide_esite>  (136) 
-0.0168551

>  <r_i_glide_emodel>  (136) 
-28.9032

>  <r_i_glide_energy>  (136) 
-26.367

>  <r_i_glide_einternal>  (136) 
5.04711

>  <r_i_glide_intrahb_reward>  (136) 
-0

>  <i_i_glide_confnum>  (136) 
2

>  <i_i_glide_posenum>  (136) 
9

>  <r_i_glide_eff_state_penalty>  (136) 
0

>  <ligand_id>  (136) 
39

>  <original_smiles>  (136) 
CC1CC2C3OC(C1(O)C3O)C1(C)C(O)C3OC(CN4CCOCC4)OC1(O)C3(C)C2O

>  <smiles>  (136) 
[H]OC1([H])C2([H])OC3([H])C1(O[H])C([H])(C([H])([H])[H])C([H])([H])C2([H])C([H])(O[H])C1(C([H])([H])[H])C2([H])OC([H])(C([H])([H])N4C([H])([H])C([H])([H])OC([H])([H])C4([H])[H])OC1(O[H])C3(C([H])([H])[H])C2([H])O[H]

$$$$
39:1:0
     RDKit          3D

 67 72  0  0  1  0  0  0  0  0999 V2000
   -2.6532    3.3470    5.7897 C   0  0  0  0  0  0  0  0  0  0  0  0
   -1.2733    2.7153    5.5715 C   0  0  2  0  0  0  0  0  0  0  0  0
   -0.7301    2.0836    6.8950 C   0  0  0  0  0  0  0  0  0  0  0  0
    0.8182    2.1594    7.1319 C   0  0  2  0  0  0  0  0  0  0  0  0
    1.4251    3.5340    6.6067 C   0  0  1  0  0  0  0  0  0  0  0  0
    2.1325    3.2870    5.4198 O   0  0  0  0  0  0  0  0  0  0  0  0
    1.1616    2.8632    4.4835 C   0  0  1  0  0  0  0  0  0  0  0  0
   -0.1805    3.6195    4.8535 C   0  0  1  0  0  0  0  0  0  0  0  0
   -0.6713    4.3830    3.7604 O   0  0  0  0  0  0  0  0  0  0  0  0
    0.4419    4.5260    5.9405 C   0  0  1  0  0  0  0  0  0  0  0  0
   -0.4148    5.1515    6.8814 O   0  0  0  0  0  0  0  0  0  0  0  0
    1.6219    1.7277    3.5046 C   0  0  2  0  0  0  0  0  0  0  0  0
    2.1752    2.3420    2.2074 C   0  0  0  0  0  0  0  0  0  0  0  0
    0.4976    0.6571    3.3343 C   0  0  1  0  0  0  0  0  0  0  0  0
    0.2104    0.2358    2.0243 O   0  0  0  0  0  0  0  0  0  0  0  0
    0.8277   -0.4719    4.3693 C   0  0  1  0  0  0  0  0  0  0  0  0
    1.3586   -1.5029    3.5226 O   0  0  0  0  0  0  0  0  0  0  0  0
    2.6594   -1.3134    3.0150 C   0  0  1  0  0  0  0  0  0  0  0  0
    2.7140   -1.6440    1.5074 C   0  0  0  0  0  0  0  0  0  0  0  0
    4.0663   -1.8330    0.9728 N   0  0  0  0  0  0  0  0  0  0  0  0
    4.0595   -2.5419   -0.3032 C   0  0  0  0  0  0  0  0  0  0  0  0
    5.4849   -2.7329   -0.8645 C   0  0  0  0  0  0  0  0  0  0  0  0
    6.1323   -1.4704   -1.0011 O   0  0  0  0  0  0  0  0  0  0  0  0
    6.1874   -0.7644    0.2322 C   0  0  0  0  0  0  0  0  0  0  0  0
    4.7776   -0.5673    0.7900 C   0  0  0  0  0  0  0  0  0  0  0  0
    3.2108   -0.0368    3.2009 O   0  0  0  0  0  0  0  0  0  0  0  0
    2.7278    0.8121    4.2175 C   0  0  1  0  0  0  0  0  0  0  0  0
    3.8500    1.5227    4.7045 O   0  0  0  0  0  0  0  0  0  0  0  0
    1.9632    0.0153    5.3611 C   0  0  2  0  0  0  0  0  0  0  0  0
    2.8098   -1.2105    5.8837 C   0  0  0  0  0  0  0  0  0  0  0  0
    1.6538    0.8279    6.7722 C   0  0  1  0  0  0  0  0  0  0  0  0
    2.8804    1.0799    7.4392 O   0  0  0  0  0  0  0  0  0  0  0  0
   -2.6491    4.1358    6.5316 H   0  0  0  0  0  0  0  0  0  0  0  0
   -3.3526    2.5873    6.1395 H   0  0  0  0  0  0  0  0  0  0  0  0
   -3.0315    3.7460    4.8511 H   0  0  0  0  0  0  0  0  0  0  0  0
   -1.5467    1.8914    4.9269 H   0  0  0  0  0  0  0  0  0  0  0  0
   -1.2145    2.5998    7.7290 H   0  0  0  0  0  0  0  0  0  0  0  0
   -1.0664    1.0557    6.9720 H   0  0  0  0  0  0  0  0  0  0  0  0
    0.8854    2.2283    8.2177 H   0  0  0  0  0  0  0  0  0  0  0  0
    2.0784    4.0023    7.3416 H   0  0  0  0  0  0  0  0  0  0  0  0
    0.7382    2.0382    4.9375 H   0  0  0  0  0  0  0  0  0  0  0  0
   -0.1940    4.1565    2.9682 H   0  0  0  0  0  0  0  0  0  0  0  0
    1.0135    5.3331    5.4709 H   0  0  0  0  0  0  0  0  0  0  0  0
   -0.8088    4.4787    7.4161 H   0  0  0  0  0  0  0  0  0  0  0  0
    2.5348    1.5882    1.5064 H   0  0  0  0  0  0  0  0  0  0  0  0
    3.0070    3.0187    2.4258 H   0  0  0  0  0  0  0  0  0  0  0  0
    1.4100    2.9183    1.6956 H   0  0  0  0  0  0  0  0  0  0  0  0
   -0.4770    1.0619    3.5348 H   0  0  0  0  0  0  0  0  0  0  0  0
    1.0123    0.0416    1.5635 H   0  0  0  0  0  0  0  0  0  0  0  0
   -0.0595   -0.8442    4.8856 H   0  0  0  0  0  0  0  0  0  0  0  0
    3.2989   -2.0350    3.5212 H   0  0  0  0  0  0  0  0  0  0  0  0
    2.1315   -2.5547    1.3641 H   0  0  0  0  0  0  0  0  0  0  0  0
    2.2095   -0.8612    0.9469 H   0  0  0  0  0  0  0  0  0  0  0  0
    3.5949   -3.5225   -0.1791 H   0  0  0  0  0  0  0  0  0  0  0  0
    3.4468   -2.0014   -1.0277 H   0  0  0  0  0  0  0  0  0  0  0  0
    6.0718   -3.3703   -0.2014 H   0  0  0  0  0  0  0  0  0  0  0  0
    5.4541   -3.2220   -1.8390 H   0  0  0  0  0  0  0  0  0  0  0  0
    6.8118   -1.2978    0.9489 H   0  0  0  0  0  0  0  0  0  0  0  0
    6.6365    0.2135    0.0792 H   0  0  0  0  0  0  0  0  0  0  0  0
    4.2118    0.0867    0.1251 H   0  0  0  0  0  0  0  0  0  0  0  0
    4.9050   -0.0400    1.7316 H   0  0  0  0  0  0  0  0  0  0  0  0
    4.2076    2.0204    3.9829 H   0  0  0  0  0  0  0  0  0  0  0  0
    2.7934   -1.3410    6.9652 H   0  0  0  0  0  0  0  0  0  0  0  0
    3.8644   -1.1224    5.6132 H   0  0  0  0  0  0  0  0  0  0  0  0
    2.4495   -2.1756    5.5316 H   0  0  0  0  0  0  0  0  0  0  0  0
    1.1554    0.0805    7.3894 H   0  0  0  0  0  0  0  0  0  0  0  0
    3.3829    1.6868    6.9126 H   0  0  0  0  0  0  0  0  0  0  0  0
  1  2  1  0
  1 33  1  0
  1 34  1  0
  1 35  1  0
  2  8  1  0
  2  3  1  0
  2 36  1  6
  3  4  1  0
  3 37  1  0
  3 38  1  0
  4 31  1  0
  4  5  1  0
  4 39  1  1
  5 10  1  0
  5  6  1  0
  5 40  1  1
  6  7  1  0
  7  8  1  0
  7 12  1  0
  7 41  1  6
  8  9  1  6
  8 10  1  0
  9 42  1  0
 10 11  1  0
 10 43  1  6
 11 44  1  0
 12 27  1  0
 12 13  1  6
 12 14  1  0
 13 45  1  0
 13 46  1  0
 13 47  1  0
 14 15  1  0
 14 16  1  0
 14 48  1  1
 15 49  1  0
 16 29  1  0
 16 17  1  0
 16 50  1  1
 17 18  1  0
 18 19  1  0
 18 26  1  0
 18 51  1  1
 19 20  1  0
 19 52  1  0
 19 53  1  0
 20 25  1  0
 20 21  1  0
 21 22  1  0
 21 54  1  0
 21 55  1  0
 22 23  1  0
 22 56  1  0
 22 57  1  0
 23 24  1  0
 24 25  1  0
 24 58  1  0
 24 59  1  0
 25 60  1  0
 25 61  1  0
 26 27  1  0
 27 28  1  1
 27 29  1  0
 28 62  1  0
 29 30  1  1
 29 31  1  0
 30 63  1  0
 30 64  1  0
 30 65  1  0
 31 32  1  0
 31 66  1  1
 32 67  1  0
M  END
>  <i_m_ct_stereo_status>  (137) 
1

>  <s_m_source_file>  (137) 
/var/tmp/pbs.5076255.sched01/tmpn9kf4o8v/46f5dlbpu8.sdf

>  <i_m_source_file_index>  (137) 
9

>  <i_lp_mmshare_version>  (137) 
48012

>  <i_f3d_flags>  (137) 
0

>  <s_epik_input>  (137) 
W0NIM11bQ0BASF0xW0NIMl1bQ0hdKFtDQEBIXShPMilbQ0BASF0zW09IXSlbQ0BIXShbT0hdKVtDQF0oW0NIM10pKFtDQF00KFtPSF0pW0NAXTUoW0NIM10pW0NAQEhdMltDQEBdMTNbT0hdKVtDQEBIXShbQ0BASF01W09IXSlPW0NASF0oTzQpW0NIMl1ONltDSDJdW0NIMl1PW0NIMl1bQ0gyXTY=

>  <s_epik_cmdline>  (137) 
J2VwaWtfcHl0aG9uJywgJy1waHQnLCAnMi4wJywgJy1waCcsICc3LjAnLCAnLXRuJywgJzgnLCAnLW1hJywgJzIwMCcsICctaW1hZScsICc8aW5maWxlLm1hZT4nLCAnLW9tYWUnLCAnPG91dGZpbGUubWFlPic=

>  <r_epik_Ionization_Penalty>  (137) 
0.0114501

>  <r_epik_Ionization_Penalty_Charging>  (137) 
0

>  <r_epik_Ionization_Penalty_Neutral>  (137) 
0.0114501

>  <r_epik_State_Penalty>  (137) 
0.00880224

>  <r_epik_Charging_Adjusted_Penalty>  (137) 
0.00880224

>  <i_epik_Tot_Q>  (137) 
0

>  <i_epik_Tot_abs_Q>  (137) 
0

>  <s_epik_Chemistry_Notes>  (137) 
This compound contains an acetal/aminal-like group ( X-CH(R)-Y where X, Y are N, S, or O) that may be acid/base labile, releasing an aldehyde.

>  <s_lp_Force_Field>  (137) 
OPLS3e

>  <r_lp_Energy>  (137) 
164.772

>  <b_lp_Chiralities_Consistent>  (137) 
1

>  <s_lp_Variant>  (137) 
39:0-2

>  <s_i_glide_gridfile>  (137) 
pfpi4k_grid

>  <i_i_glide_lignum>  (137) 
9

>  <i_i_glide_rotatable_bonds>  (137) 
7

>  <r_i_docking_score>  (137) 
-2.96949

>  <r_i_glide_ligand_efficiency>  (137) 
-0.0927965

>  <r_i_glide_ligand_efficiency_sa>  (137) 
-0.294611

>  <r_i_glide_ligand_efficiency_ln>  (137) 
-0.66495

>  <r_i_glide_gscore>  (137) 
-2.96949

>  <r_i_glide_lipo>  (137) 
-0.218919

>  <r_i_glide_hbond>  (137) 
-0.114477

>  <r_i_glide_metal>  (137) 
-0

>  <r_i_glide_rewards>  (137) 
-0.789673

>  <r_i_glide_evdw>  (137) 
-20.5856

>  <r_i_glide_ecoul>  (137) 
-6.68911

>  <r_i_glide_erotb>  (137) 
0.192103

>  <r_i_glide_esite>  (137) 
-0.00587942

>  <r_i_glide_emodel>  (137) 
-36.9755

>  <r_i_glide_energy>  (137) 
-27.2747

>  <r_i_glide_einternal>  (137) 
3.88033

>  <r_i_glide_intrahb_reward>  (137) 
-0.5

>  <i_i_glide_confnum>  (137) 
3

>  <i_i_glide_posenum>  (137) 
21

>  <r_i_glide_eff_state_penalty>  (137) 
0

>  <ligand_id>  (137) 
39

>  <original_smiles>  (137) 
CC1CC2C3OC(C1(O)C3O)C1(C)C(O)C3OC(CN4CCOCC4)OC1(O)C3(C)C2O

>  <smiles>  (137) 
[H]OC1([H])C2([H])OC3([H])C1(O[H])C([H])(C([H])([H])[H])C([H])([H])C2([H])C([H])(O[H])C1(C([H])([H])[H])C2([H])OC([H])(C([H])([H])N4C([H])([H])C([H])([H])OC([H])([H])C4([H])[H])OC1(O[H])C3(C([H])([H])[H])C2([H])O[H]

$$$$
39:1:1
     RDKit          3D

 67 72  0  0  1  0  0  0  0  0999 V2000
   -2.4577    3.3085    5.9187 C   0  0  0  0  0  0  0  0  0  0  0  0
   -1.0527    2.7369    5.6447 C   0  0  2  0  0  0  0  0  0  0  0  0
   -0.3906    2.2041    6.9610 C   0  0  0  0  0  0  0  0  0  0  0  0
    1.1620    2.3712    7.0932 C   0  0  2  0  0  0  0  0  0  0  0  0
    1.6595    3.7440    6.4634 C   0  0  1  0  0  0  0  0  0  0  0  0
    2.3082    3.4744    5.2474 O   0  0  0  0  0  0  0  0  0  0  0  0
    1.3040    2.9480    4.3994 C   0  0  1  0  0  0  0  0  0  0  0  0
   -0.0530    3.6562    4.8172 C   0  0  1  0  0  0  0  0  0  0  0  0
   -0.6599    4.3339    3.7252 O   0  0  0  0  0  0  0  0  0  0  0  0
    0.5834    4.6474    5.8212 C   0  0  1  0  0  0  0  0  0  0  0  0
   -0.2488    5.2547    6.7920 O   0  0  0  0  0  0  0  0  0  0  0  0
    1.7670    1.7860    3.4471 C   0  0  2  0  0  0  0  0  0  0  0  0
    2.2138    2.3561    2.0944 C   0  0  0  0  0  0  0  0  0  0  0  0
    0.6954    0.6494    3.3948 C   0  0  1  0  0  0  0  0  0  0  0  0
    0.3410    0.1614    2.1173 O   0  0  0  0  0  0  0  0  0  0  0  0
    1.1548   -0.4016    4.4670 C   0  0  1  0  0  0  0  0  0  0  0  0
    1.6848   -1.4463    3.6385 O   0  0  0  0  0  0  0  0  0  0  0  0
    2.9422   -1.2234    3.0510 C   0  0  1  0  0  0  0  0  0  0  0  0
    2.9288   -1.6279    1.5609 C   0  0  0  0  0  0  0  0  0  0  0  0
    4.1895   -1.3962    0.8557 N   0  0  0  0  0  0  0  0  0  0  0  0
    5.2630   -2.2657    1.3225 C   0  0  0  0  0  0  0  0  0  0  0  0
    6.5819   -2.0009    0.5791 C   0  0  0  0  0  0  0  0  0  0  0  0
    6.3932   -2.1382   -0.8267 O   0  0  0  0  0  0  0  0  0  0  0  0
    5.3633   -1.3005   -1.3312 C   0  0  0  0  0  0  0  0  0  0  0  0
    4.0403   -1.5480   -0.5878 C   0  0  0  0  0  0  0  0  0  0  0  0
    3.4399    0.0864    3.1306 O   0  0  0  0  0  0  0  0  0  0  0  0
    2.9668    0.9674    4.1312 C   0  0  1  0  0  0  0  0  0  0  0  0
    4.0712    1.7572    4.5167 O   0  0  0  0  0  0  0  0  0  0  0  0
    2.3208    0.1972    5.3624 C   0  0  2  0  0  0  0  0  0  0  0  0
    3.2670   -0.9500    5.8945 C   0  0  0  0  0  0  0  0  0  0  0  0
    2.0526    1.0701    6.7496 C   0  0  1  0  0  0  0  0  0  0  0  0
    3.3037    1.4218    7.3224 O   0  0  0  0  0  0  0  0  0  0  0  0
   -2.4419    4.1411    6.6185 H   0  0  0  0  0  0  0  0  0  0  0  0
   -3.0800    2.5368    6.3710 H   0  0  0  0  0  0  0  0  0  0  0  0
   -2.9477    3.6293    4.9995 H   0  0  0  0  0  0  0  0  0  0  0  0
   -1.3163    1.8677    5.0614 H   0  0  0  0  0  0  0  0  0  0  0  0
   -0.8427    2.7452    7.7933 H   0  0  0  0  0  0  0  0  0  0  0  0
   -0.6665    1.1665    7.1201 H   0  0  0  0  0  0  0  0  0  0  0  0
    1.2934    2.5016    8.1692 H   0  0  0  0  0  0  0  0  0  0  0  0
    2.3295    4.2843    7.1331 H   0  0  0  0  0  0  0  0  0  0  0  0
    0.9535    2.1256    4.9192 H   0  0  0  0  0  0  0  0  0  0  0  0
   -0.1819    4.1473    2.9231 H   0  0  0  0  0  0  0  0  0  0  0  0
    1.0750    5.4602    5.2820 H   0  0  0  0  0  0  0  0  0  0  0  0
    0.2937    5.7829    7.3572 H   0  0  0  0  0  0  0  0  0  0  0  0
    2.5697    1.5824    1.4119 H   0  0  0  0  0  0  0  0  0  0  0  0
    3.0191    3.0781    2.2362 H   0  0  0  0  0  0  0  0  0  0  0  0
    1.4029    2.8861    1.6126 H   0  0  0  0  0  0  0  0  0  0  0  0
   -0.2810    1.0103    3.6499 H   0  0  0  0  0  0  0  0  0  0  0  0
    1.1262    0.0308    1.6054 H   0  0  0  0  0  0  0  0  0  0  0  0
    0.3269   -0.7932    5.0596 H   0  0  0  0  0  0  0  0  0  0  0  0
    3.6398   -1.8734    3.5705 H   0  0  0  0  0  0  0  0  0  0  0  0
    2.6315   -2.6726    1.4831 H   0  0  0  0  0  0  0  0  0  0  0  0
    2.1602   -1.0491    1.0622 H   0  0  0  0  0  0  0  0  0  0  0  0
    5.4440   -2.1077    2.3847 H   0  0  0  0  0  0  0  0  0  0  0  0
    4.9694   -3.3091    1.1998 H   0  0  0  0  0  0  0  0  0  0  0  0
    6.9491   -1.0000    0.8086 H   0  0  0  0  0  0  0  0  0  0  0  0
    7.3406   -2.7084    0.9130 H   0  0  0  0  0  0  0  0  0  0  0  0
    5.6685   -0.2629   -1.2110 H   0  0  0  0  0  0  0  0  0  0  0  0
    5.2471   -1.4774   -2.3980 H   0  0  0  0  0  0  0  0  0  0  0  0
    3.6728   -2.5482   -0.8228 H   0  0  0  0  0  0  0  0  0  0  0  0
    3.2854   -0.8519   -0.9571 H   0  0  0  0  0  0  0  0  0  0  0  0
    4.3556    2.2397    3.7493 H   0  0  0  0  0  0  0  0  0  0  0  0
    3.3242   -1.0202    6.9815 H   0  0  0  0  0  0  0  0  0  0  0  0
    4.2977   -0.8211    5.5544 H   0  0  0  0  0  0  0  0  0  0  0  0
    2.9398   -1.9528    5.6197 H   0  0  0  0  0  0  0  0  0  0  0  0
    1.6379    0.3295    7.4356 H   0  0  0  0  0  0  0  0  0  0  0  0
    3.7363    2.0276    6.7353 H   0  0  0  0  0  0  0  0  0  0  0  0
  1  2  1  0
  1 33  1  0
  1 34  1  0
  1 35  1  0
  2  8  1  0
  2  3  1  0
  2 36  1  6
  3  4  1  0
  3 37  1  0
  3 38  1  0
  4 31  1  0
  4  5  1  0
  4 39  1  1
  5 10  1  0
  5  6  1  0
  5 40  1  1
  6  7  1  0
  7  8  1  0
  7 12  1  0
  7 41  1  6
  8  9  1  6
  8 10  1  0
  9 42  1  0
 10 11  1  0
 10 43  1  6
 11 44  1  0
 12 27  1  0
 12 13  1  6
 12 14  1  0
 13 45  1  0
 13 46  1  0
 13 47  1  0
 14 15  1  0
 14 16  1  0
 14 48  1  1
 15 49  1  0
 16 29  1  0
 16 17  1  0
 16 50  1  1
 17 18  1  0
 18 19  1  0
 18 26  1  0
 18 51  1  1
 19 20  1  0
 19 52  1  0
 19 53  1  0
 20 25  1  0
 20 21  1  0
 21 22  1  0
 21 54  1  0
 21 55  1  0
 22 23  1  0
 22 56  1  0
 22 57  1  0
 23 24  1  0
 24 25  1  0
 24 58  1  0
 24 59  1  0
 25 60  1  0
 25 61  1  0
 26 27  1  0
 27 28  1  1
 27 29  1  0
 28 62  1  0
 29 30  1  1
 29 31  1  0
 30 63  1  0
 30 64  1  0
 30 65  1  0
 31 32  1  0
 31 66  1  1
 32 67  1  0
M  END
>  <i_m_ct_stereo_status>  (138) 
1

>  <s_m_source_file>  (138) 
/var/tmp/pbs.5076255.sched01/tmpn9kf4o8v/46f5dlbpu8.sdf

>  <i_m_source_file_index>  (138) 
9

>  <i_lp_mmshare_version>  (138) 
48012

>  <i_f3d_flags>  (138) 
0

>  <s_epik_input>  (138) 
W0NIM11bQ0BASF0xW0NIMl1bQ0hdKFtDQEBIXShPMilbQ0BASF0zW09IXSlbQ0BIXShbT0hdKVtDQF0oW0NIM10pKFtDQF00KFtPSF0pW0NAXTUoW0NIM10pW0NAQEhdMltDQEBdMTNbT0hdKVtDQEBIXShbQ0BASF01W09IXSlPW0NASF0oTzQpW0NIMl1ONltDSDJdW0NIMl1PW0NIMl1bQ0gyXTY=

>  <s_epik_cmdline>  (138) 
J2VwaWtfcHl0aG9uJywgJy1waHQnLCAnMi4wJywgJy1waCcsICc3LjAnLCAnLXRuJywgJzgnLCAnLW1hJywgJzIwMCcsICctaW1hZScsICc8aW5maWxlLm1hZT4nLCAnLW9tYWUnLCAnPG91dGZpbGUubWFlPic=

>  <r_epik_Ionization_Penalty>  (138) 
0.0114501

>  <r_epik_Ionization_Penalty_Charging>  (138) 
0

>  <r_epik_Ionization_Penalty_Neutral>  (138) 
0.0114501

>  <r_epik_State_Penalty>  (138) 
0.00880224

>  <r_epik_Charging_Adjusted_Penalty>  (138) 
0.00880224

>  <i_epik_Tot_Q>  (138) 
0

>  <i_epik_Tot_abs_Q>  (138) 
0

>  <s_epik_Chemistry_Notes>  (138) 
This compound contains an acetal/aminal-like group ( X-CH(R)-Y where X, Y are N, S, or O) that may be acid/base labile, releasing an aldehyde.

>  <s_lp_Force_Field>  (138) 
OPLS3e

>  <r_lp_Energy>  (138) 
164.772

>  <b_lp_Chiralities_Consistent>  (138) 
1

>  <s_lp_Variant>  (138) 
39:0-2

>  <s_i_glide_gridfile>  (138) 
pfpi4k_grid

>  <i_i_glide_lignum>  (138) 
9

>  <i_i_glide_rotatable_bonds>  (138) 
7

>  <r_i_docking_score>  (138) 
-2.85374

>  <r_i_glide_ligand_efficiency>  (138) 
-0.0891795

>  <r_i_glide_ligand_efficiency_sa>  (138) 
-0.283127

>  <r_i_glide_ligand_efficiency_ln>  (138) 
-0.639031

>  <r_i_glide_gscore>  (138) 
-2.85374

>  <r_i_glide_lipo>  (138) 
-0.155756

>  <r_i_glide_hbond>  (138) 
-0.0844257

>  <r_i_glide_metal>  (138) 
-0

>  <r_i_glide_rewards>  (138) 
-0.789673

>  <r_i_glide_evdw>  (138) 
-20.3644

>  <r_i_glide_ecoul>  (138) 
-6.61938

>  <r_i_glide_erotb>  (138) 
0.192103

>  <r_i_glide_esite>  (138) 
-0.00486231

>  <r_i_glide_emodel>  (138) 
-37.4762

>  <r_i_glide_energy>  (138) 
-26.9838

>  <r_i_glide_einternal>  (138) 
2.14866

>  <r_i_glide_intrahb_reward>  (138) 
-0.5

>  <i_i_glide_confnum>  (138) 
2

>  <i_i_glide_posenum>  (138) 
16

>  <r_i_glide_eff_state_penalty>  (138) 
0

>  <ligand_id>  (138) 
39

>  <original_smiles>  (138) 
CC1CC2C3OC(C1(O)C3O)C1(C)C(O)C3OC(CN4CCOCC4)OC1(O)C3(C)C2O

>  <smiles>  (138) 
[H]OC1([H])C2([H])OC3([H])C1(O[H])C([H])(C([H])([H])[H])C([H])([H])C2([H])C([H])(O[H])C1(C([H])([H])[H])C2([H])OC([H])(C([H])([H])N4C([H])([H])C([H])([H])OC([H])([H])C4([H])[H])OC1(O[H])C3(C([H])([H])[H])C2([H])O[H]

$$$$
39:1:2
     RDKit          3D

 67 72  0  0  1  0  0  0  0  0999 V2000
   -2.4939    3.3149    5.8541 C   0  0  0  0  0  0  0  0  0  0  0  0
   -1.0844    2.7465    5.6065 C   0  0  2  0  0  0  0  0  0  0  0  0
   -0.4419    2.2338    6.9379 C   0  0  0  0  0  0  0  0  0  0  0  0
    1.1083    2.4048    7.0837 C   0  0  2  0  0  0  0  0  0  0  0  0
    1.6110    3.7727    6.4469 C   0  0  1  0  0  0  0  0  0  0  0  0
    2.2729    3.4928    5.2394 O   0  0  0  0  0  0  0  0  0  0  0  0
    1.2811    2.9567    4.3846 C   0  0  1  0  0  0  0  0  0  0  0  0
   -0.0815    3.6623    4.7821 C   0  0  1  0  0  0  0  0  0  0  0  0
   -0.6863    4.3178    3.6809 O   0  0  0  0  0  0  0  0  0  0  0  0
    0.5417    4.6663    5.7807 C   0  0  1  0  0  0  0  0  0  0  0  0
   -0.3043    5.2819    6.7351 O   0  0  0  0  0  0  0  0  0  0  0  0
    1.7575    1.7857    3.4528 C   0  0  2  0  0  0  0  0  0  0  0  0
    2.2170    2.3384    2.1008 C   0  0  0  0  0  0  0  0  0  0  0  0
    0.6853    0.6505    3.3948 C   0  0  1  0  0  0  0  0  0  0  0  0
    0.3754    0.1380    2.1173 O   0  0  0  0  0  0  0  0  0  0  0  0
    1.1346   -0.3894    4.4877 C   0  0  1  0  0  0  0  0  0  0  0  0
    1.6830   -1.4474    3.6869 O   0  0  0  0  0  0  0  0  0  0  0  0
    2.9444   -1.2245    3.1025 C   0  0  1  0  0  0  0  0  0  0  0  0
    2.9459   -1.6353    1.6153 C   0  0  0  0  0  0  0  0  0  0  0  0
    4.2196   -1.4236    0.9250 N   0  0  0  0  0  0  0  0  0  0  0  0
    5.2683   -2.3335    1.3735 C   0  0  0  0  0  0  0  0  0  0  0  0
    6.5992   -2.0805    0.6459 C   0  0  0  0  0  0  0  0  0  0  0  0
    6.4172   -2.1723   -0.7640 O   0  0  0  0  0  0  0  0  0  0  0  0
    5.4127   -1.2858   -1.2478 C   0  0  0  0  0  0  0  0  0  0  0  0
    4.0778   -1.5322   -0.5231 C   0  0  0  0  0  0  0  0  0  0  0  0
    3.4470    0.0864    3.1803 O   0  0  0  0  0  0  0  0  0  0  0  0
    2.9498    0.9775    4.1602 C   0  0  1  0  0  0  0  0  0  0  0  0
    4.0484    1.7772    4.5509 O   0  0  0  0  0  0  0  0  0  0  0  0
    2.2913    0.2184    5.3896 C   0  0  2  0  0  0  0  0  0  0  0  0
    3.2324   -0.9236    5.9451 C   0  0  0  0  0  0  0  0  0  0  0  0
    2.0051    1.1024    6.7640 C   0  0  1  0  0  0  0  0  0  0  0  0
    3.2486    1.4620    7.3485 O   0  0  0  0  0  0  0  0  0  0  0  0
   -2.4910    4.1415    6.5563 H   0  0  0  0  0  0  0  0  0  0  0  0
   -3.1267    2.5473    6.3000 H   0  0  0  0  0  0  0  0  0  0  0  0
   -2.9638    3.6333    4.9225 H   0  0  0  0  0  0  0  0  0  0  0  0
   -1.3449    1.8721    5.0322 H   0  0  0  0  0  0  0  0  0  0  0  0
   -0.9085    2.7817    7.7592 H   0  0  0  0  0  0  0  0  0  0  0  0
   -0.7160    1.1962    7.0997 H   0  0  0  0  0  0  0  0  0  0  0  0
    1.2263    2.5442    8.1597 H   0  0  0  0  0  0  0  0  0  0  0  0
    2.2725    4.3197    7.1196 H   0  0  0  0  0  0  0  0  0  0  0  0
    0.9288    2.1378    4.9101 H   0  0  0  0  0  0  0  0  0  0  0  0
   -0.0943    4.3215    2.9337 H   0  0  0  0  0  0  0  0  0  0  0  0
    1.0388    5.4739    5.2391 H   0  0  0  0  0  0  0  0  0  0  0  0
    0.2276    5.8231    7.2963 H   0  0  0  0  0  0  0  0  0  0  0  0
    2.5799    1.5606    1.4303 H   0  0  0  0  0  0  0  0  0  0  0  0
    3.0154    3.0668    2.2356 H   0  0  0  0  0  0  0  0  0  0  0  0
    1.4139    2.8554    1.5977 H   0  0  0  0  0  0  0  0  0  0  0  0
   -0.2966    1.0186    3.6246 H   0  0  0  0  0  0  0  0  0  0  0  0
    0.1431    0.8523    1.5388 H   0  0  0  0  0  0  0  0  0  0  0  0
    0.3003   -0.7784    5.0730 H   0  0  0  0  0  0  0  0  0  0  0  0
    3.6404   -1.8717    3.6284 H   0  0  0  0  0  0  0  0  0  0  0  0
    2.6394   -2.6776    1.5395 H   0  0  0  0  0  0  0  0  0  0  0  0
    2.1860   -1.0519    1.1073 H   0  0  0  0  0  0  0  0  0  0  0  0
    5.4428   -2.2142    2.4417 H   0  0  0  0  0  0  0  0  0  0  0  0
    4.9512   -3.3655    1.2162 H   0  0  0  0  0  0  0  0  0  0  0  0
    6.9923   -1.0970    0.9063 H   0  0  0  0  0  0  0  0  0  0  0  0
    7.3377   -2.8172    0.9612 H   0  0  0  0  0  0  0  0  0  0  0  0
    5.7404   -0.2590   -1.0907 H   0  0  0  0  0  0  0  0  0  0  0  0
    5.2996   -1.4324   -2.3217 H   0  0  0  0  0  0  0  0  0  0  0  0
    3.6867   -2.5161   -0.7891 H   0  0  0  0  0  0  0  0  0  0  0  0
    3.3435   -0.8052   -0.8754 H   0  0  0  0  0  0  0  0  0  0  0  0
    4.3508    2.2374    3.7802 H   0  0  0  0  0  0  0  0  0  0  0  0
    3.2762   -0.9817    7.0331 H   0  0  0  0  0  0  0  0  0  0  0  0
    4.2667   -0.7953    5.6174 H   0  0  0  0  0  0  0  0  0  0  0  0
    2.9134   -1.9302    5.6769 H   0  0  0  0  0  0  0  0  0  0  0  0
    1.5839    0.3680    7.4515 H   0  0  0  0  0  0  0  0  0  0  0  0
    3.6910    2.0539    6.7553 H   0  0  0  0  0  0  0  0  0  0  0  0
  1  2  1  0
  1 33  1  0
  1 34  1  0
  1 35  1  0
  2  8  1  0
  2  3  1  0
  2 36  1  6
  3  4  1  0
  3 37  1  0
  3 38  1  0
  4 31  1  0
  4  5  1  0
  4 39  1  1
  5 10  1  0
  5  6  1  0
  5 40  1  1
  6  7  1  0
  7  8  1  0
  7 12  1  0
  7 41  1  6
  8  9  1  6
  8 10  1  0
  9 42  1  0
 10 11  1  0
 10 43  1  6
 11 44  1  0
 12 27  1  0
 12 13  1  6
 12 14  1  0
 13 45  1  0
 13 46  1  0
 13 47  1  0
 14 15  1  0
 14 16  1  0
 14 48  1  1
 15 49  1  0
 16 29  1  0
 16 17  1  0
 16 50  1  1
 17 18  1  0
 18 19  1  0
 18 26  1  0
 18 51  1  1
 19 20  1  0
 19 52  1  0
 19 53  1  0
 20 25  1  0
 20 21  1  0
 21 22  1  0
 21 54  1  0
 21 55  1  0
 22 23  1  0
 22 56  1  0
 22 57  1  0
 23 24  1  0
 24 25  1  0
 24 58  1  0
 24 59  1  0
 25 60  1  0
 25 61  1  0
 26 27  1  0
 27 28  1  1
 27 29  1  0
 28 62  1  0
 29 30  1  1
 29 31  1  0
 30 63  1  0
 30 64  1  0
 30 65  1  0
 31 32  1  0
 31 66  1  1
 32 67  1  0
M  END
>  <i_m_ct_stereo_status>  (139) 
1

>  <s_m_source_file>  (139) 
/var/tmp/pbs.5076255.sched01/tmpn9kf4o8v/46f5dlbpu8.sdf

>  <i_m_source_file_index>  (139) 
9

>  <i_lp_mmshare_version>  (139) 
48012

>  <i_f3d_flags>  (139) 
0

>  <s_epik_input>  (139) 
W0NIM11bQ0BASF0xW0NIMl1bQ0hdKFtDQEBIXShPMilbQ0BASF0zW09IXSlbQ0BIXShbT0hdKVtDQF0oW0NIM10pKFtDQF00KFtPSF0pW0NAXTUoW0NIM10pW0NAQEhdMltDQEBdMTNbT0hdKVtDQEBIXShbQ0BASF01W09IXSlPW0NASF0oTzQpW0NIMl1ONltDSDJdW0NIMl1PW0NIMl1bQ0gyXTY=

>  <s_epik_cmdline>  (139) 
J2VwaWtfcHl0aG9uJywgJy1waHQnLCAnMi4wJywgJy1waCcsICc3LjAnLCAnLXRuJywgJzgnLCAnLW1hJywgJzIwMCcsICctaW1hZScsICc8aW5maWxlLm1hZT4nLCAnLW9tYWUnLCAnPG91dGZpbGUubWFlPic=

>  <r_epik_Ionization_Penalty>  (139) 
0.0114501

>  <r_epik_Ionization_Penalty_Charging>  (139) 
0

>  <r_epik_Ionization_Penalty_Neutral>  (139) 
0.0114501

>  <r_epik_State_Penalty>  (139) 
0.00880224

>  <r_epik_Charging_Adjusted_Penalty>  (139) 
0.00880224

>  <i_epik_Tot_Q>  (139) 
0

>  <i_epik_Tot_abs_Q>  (139) 
0

>  <s_epik_Chemistry_Notes>  (139) 
This compound contains an acetal/aminal-like group ( X-CH(R)-Y where X, Y are N, S, or O) that may be acid/base labile, releasing an aldehyde.

>  <s_lp_Force_Field>  (139) 
OPLS3e

>  <r_lp_Energy>  (139) 
164.772

>  <b_lp_Chiralities_Consistent>  (139) 
1

>  <s_lp_Variant>  (139) 
39:0-2

>  <s_i_glide_gridfile>  (139) 
pfpi4k_grid

>  <i_i_glide_lignum>  (139) 
9

>  <i_i_glide_rotatable_bonds>  (139) 
7

>  <r_i_docking_score>  (139) 
-2.75076

>  <r_i_glide_ligand_efficiency>  (139) 
-0.0859613

>  <r_i_glide_ligand_efficiency_sa>  (139) 
-0.27291

>  <r_i_glide_ligand_efficiency_ln>  (139) 
-0.615971

>  <r_i_glide_gscore>  (139) 
-2.75076

>  <r_i_glide_lipo>  (139) 
-0.150836

>  <r_i_glide_hbond>  (139) 
-0.0708133

>  <r_i_glide_metal>  (139) 
-0

>  <r_i_glide_rewards>  (139) 
-0.789673

>  <r_i_glide_evdw>  (139) 
-20.4299

>  <r_i_glide_ecoul>  (139) 
-6.03826

>  <r_i_glide_erotb>  (139) 
0.192103

>  <r_i_glide_esite>  (139) 
-0.00431182

>  <r_i_glide_emodel>  (139) 
-36.6639

>  <r_i_glide_energy>  (139) 
-26.4681

>  <r_i_glide_einternal>  (139) 
1.88633

>  <r_i_glide_intrahb_reward>  (139) 
-0.5

>  <i_i_glide_confnum>  (139) 
2

>  <i_i_glide_posenum>  (139) 
10

>  <r_i_glide_eff_state_penalty>  (139) 
0

>  <ligand_id>  (139) 
39

>  <original_smiles>  (139) 
CC1CC2C3OC(C1(O)C3O)C1(C)C(O)C3OC(CN4CCOCC4)OC1(O)C3(C)C2O

>  <smiles>  (139) 
[H]OC1([H])C2([H])OC3([H])C1(O[H])C([H])(C([H])([H])[H])C([H])([H])C2([H])C([H])(O[H])C1(C([H])([H])[H])C2([H])OC([H])(C([H])([H])N4C([H])([H])C([H])([H])OC([H])([H])C4([H])[H])OC1(O[H])C3(C([H])([H])[H])C2([H])O[H]

$$$$
39:2:0
     RDKit          3D

 68 73  0  0  1  0  0  0  0  0999 V2000
    2.3614   -9.2618    8.0171 C   0  0  0  0  0  0  0  0  0  0  0  0
    2.2566   -9.0881    6.4853 C   0  0  2  0  0  0  0  0  0  0  0  0
    3.5527   -9.8098    5.7488 C   0  0  0  0  0  0  0  0  0  0  0  0
    3.9247   -9.3201    4.2623 C   0  0  1  0  0  0  0  0  0  0  0  0
    3.0718   -8.2324    4.3641 C   0  0  1  0  0  0  0  0  0  0  0  0
    1.7110   -8.3793    4.1592 O   0  0  0  0  0  0  0  0  0  0  0  0
    1.5079   -7.0762    4.5437 C   0  0  1  0  0  0  0  0  0  0  0  0
    2.0595   -7.5084    6.0233 C   0  0  1  0  0  0  0  0  0  0  0  0
    1.5387   -6.6472    7.0262 O   0  0  0  0  0  0  0  0  0  0  0  0
    3.3610   -7.1663    5.5765 C   0  0  1  0  0  0  0  0  0  0  0  0
    4.3864   -7.3234    6.5484 O   0  0  0  0  0  0  0  0  0  0  0  0
    2.2464   -6.0281    3.3579 C   0  0  2  0  0  0  0  0  0  0  0  0
    1.5074   -4.6694    3.4985 C   0  0  0  0  0  0  0  0  0  0  0  0
    2.0520   -6.7239    1.9323 C   0  0  1  0  0  0  0  0  0  0  0  0
    1.2714   -6.0361    0.9730 O   0  0  0  0  0  0  0  0  0  0  0  0
    3.5051   -7.1342    1.3699 C   0  0  1  0  0  0  0  0  0  0  0  0
    3.7381   -6.1357    0.3637 O   0  0  0  0  0  0  0  0  0  0  0  0
    4.1072   -4.8718    0.8270 C   0  0  1  0  0  0  0  0  0  0  0  0
    3.3322   -3.7877    0.0259 C   0  0  0  0  0  0  0  0  0  0  0  0
    3.5960   -3.7863   -1.4379 N   0  0  0  0  0  0  0  0  0  0  0  0
    2.6001   -2.9704   -2.1821 C   0  0  0  0  0  0  0  0  0  0  0  0
    2.8737   -3.0237   -3.6900 C   0  0  0  0  0  0  0  0  0  0  0  0
    4.2063   -2.5904   -3.9323 O   0  0  0  0  0  0  0  0  0  0  0  0
    5.1499   -3.4522   -3.3168 C   0  0  0  0  0  0  0  0  0  0  0  0
    4.9864   -3.4082   -1.8059 C   0  0  0  0  0  0  0  0  0  0  0  0
    3.8125   -4.6577    2.1789 O   0  0  0  0  0  0  0  0  0  0  0  0
    3.9052   -5.7188    3.1371 C   0  0  1  0  0  0  0  0  0  0  0  0
    4.6750   -5.1741    4.2174 O   0  0  0  0  0  0  0  0  0  0  0  0
    4.6383   -7.0223    2.5140 C   0  0  2  0  0  0  0  0  0  0  0  0
    6.0572   -6.6633    1.9448 C   0  0  0  0  0  0  0  0  0  0  0  0
    5.0253   -8.3251    3.5632 C   0  0  1  0  0  0  0  0  0  0  0  0
    6.0348   -7.9586    4.4875 O   0  0  0  0  0  0  0  0  0  0  0  0
    3.2468   -8.7948    8.4510 H   0  0  0  0  0  0  0  0  0  0  0  0
    2.4354  -10.3157    8.2574 H   0  0  0  0  0  0  0  0  0  0  0  0
    1.4789   -8.8960    8.5425 H   0  0  0  0  0  0  0  0  0  0  0  0
    1.3402   -9.6337    6.2024 H   0  0  0  0  0  0  0  0  0  0  0  0
    4.4109   -9.8048    6.4252 H   0  0  0  0  0  0  0  0  0  0  0  0
    3.2837  -10.8596    5.6726 H   0  0  0  0  0  0  0  0  0  0  0  0
    3.5450  -10.0554    3.5491 H   0  0  0  0  0  0  0  0  0  0  0  0
    2.9613   -8.2093    3.3238 H   0  0  0  0  0  0  0  0  0  0  0  0
    0.4274   -6.9181    4.5799 H   0  0  0  0  0  0  0  0  0  0  0  0
    2.0591   -6.8163    7.7938 H   0  0  0  0  0  0  0  0  0  0  0  0
    3.2225   -6.0940    5.5483 H   0  0  0  0  0  0  0  0  0  0  0  0
    5.1966   -7.3273    6.0515 H   0  0  0  0  0  0  0  0  0  0  0  0
    1.7110   -3.9429    2.7090 H   0  0  0  0  0  0  0  0  0  0  0  0
    1.7623   -4.1908    4.4461 H   0  0  0  0  0  0  0  0  0  0  0  0
    0.4259   -4.8097    3.4890 H   0  0  0  0  0  0  0  0  0  0  0  0
    1.4454   -7.6260    2.0066 H   0  0  0  0  0  0  0  0  0  0  0  0
    1.9131   -5.6379    0.4100 H   0  0  0  0  0  0  0  0  0  0  0  0
    3.5034   -8.1232    0.8992 H   0  0  0  0  0  0  0  0  0  0  0  0
    5.1818   -4.7165    0.7277 H   0  0  0  0  0  0  0  0  0  0  0  0
    2.2646   -3.8990    0.2301 H   0  0  0  0  0  0  0  0  0  0  0  0
    3.5725   -2.8232    0.4711 H   0  0  0  0  0  0  0  0  0  0  0  0
    1.5820   -3.3335   -1.9892 H   0  0  0  0  0  0  0  0  0  0  0  0
    2.6437   -1.9345   -1.8323 H   0  0  0  0  0  0  0  0  0  0  0  0
    2.6950   -4.0228   -4.0985 H   0  0  0  0  0  0  0  0  0  0  0  0
    2.1986   -2.3435   -4.2063 H   0  0  0  0  0  0  0  0  0  0  0  0
    5.0492   -4.4629   -3.7068 H   0  0  0  0  0  0  0  0  0  0  0  0
    6.1563   -3.1066   -3.5250 H   0  0  0  0  0  0  0  0  0  0  0  0
    5.2060   -2.4150   -1.4083 H   0  0  0  0  0  0  0  0  0  0  0  0
    5.7239   -4.1060   -1.4009 H   0  0  0  0  0  0  0  0  0  0  0  0
    5.5467   -5.0146    3.9017 H   0  0  0  0  0  0  0  0  0  0  0  0
    6.8545   -7.3261    2.2723 H   0  0  0  0  0  0  0  0  0  0  0  0
    6.3887   -5.6653    2.2346 H   0  0  0  0  0  0  0  0  0  0  0  0
    6.1013   -6.7350    0.8601 H   0  0  0  0  0  0  0  0  0  0  0  0
    5.5269   -9.0299    2.9104 H   0  0  0  0  0  0  0  0  0  0  0  0
    6.8407   -7.8248    4.0146 H   0  0  0  0  0  0  0  0  0  0  0  0
    3.4376   -4.7338   -1.7894 H   0  0  0  0  0  0  0  0  0  0  0  0
  1  2  1  0
  1 33  1  0
  1 34  1  0
  1 35  1  0
  2  8  1  0
  2  3  1  0
  2 36  1  6
  3  4  1  0
  3 37  1  0
  3 38  1  0
  4 31  1  0
  4  5  1  0
  4 39  1  6
  5 10  1  0
  5  6  1  0
  5 40  1  6
  6  7  1  0
  7  8  1  0
  7 12  1  0
  7 41  1  1
  8  9  1  1
  8 10  1  0
  9 42  1  0
 10 11  1  0
 10 43  1  6
 11 44  1  0
 12 27  1  0
 12 13  1  6
 12 14  1  0
 13 45  1  0
 13 46  1  0
 13 47  1  0
 14 15  1  0
 14 16  1  0
 14 48  1  1
 15 49  1  0
 16 29  1  0
 16 17  1  0
 16 50  1  6
 17 18  1  0
 18 19  1  0
 18 26  1  0
 18 51  1  1
 19 20  1  0
 19 52  1  0
 19 53  1  0
 20 25  1  0
 20 21  1  0
 20 68  1  0
 21 22  1  0
 21 54  1  0
 21 55  1  0
 22 23  1  0
 22 56  1  0
 22 57  1  0
 23 24  1  0
 24 25  1  0
 24 58  1  0
 24 59  1  0
 25 60  1  0
 25 61  1  0
 26 27  1  0
 27 28  1  1
 27 29  1  0
 28 62  1  0
 29 30  1  6
 29 31  1  0
 30 63  1  0
 30 64  1  0
 30 65  1  0
 31 32  1  0
 31 66  1  6
 32 67  1  0
M  CHG  1  20   1
M  END
>  <i_m_ct_stereo_status>  (140) 
1

>  <s_m_source_file>  (140) 
/var/tmp/pbs.5076255.sched01/tmpn9kf4o8v/46f5dlbpu8.sdf

>  <i_m_source_file_index>  (140) 
10

>  <i_lp_mmshare_version>  (140) 
48012

>  <i_f3d_flags>  (140) 
0

>  <s_epik_input>  (140) 
W0NIM11bQ0BASF0xW0NIMl1bQ0hdKFtDQEBIXShPMilbQ0BASF0zW09IXSlbQ0BIXShbT0hdKVtDQF0oW0NIM10pKFtDQF00KFtPSF0pW0NAXTUoW0NIM10pW0NAQEhdMltDQEBdMTNbT0hdKVtDQEBIXShbQ0BASF01W09IXSlPW0NASF0oTzQpW0NIMl1ONltDSDJdW0NIMl1PW0NIMl1bQ0gyXTY=

>  <s_epik_cmdline>  (140) 
J2VwaWtfcHl0aG9uJywgJy1waHQnLCAnMi4wJywgJy1waCcsICc3LjAnLCAnLXRuJywgJzgnLCAnLW1hJywgJzIwMCcsICctaW1hZScsICc8aW5maWxlLm1hZT4nLCAnLW9tYWUnLCAnPG91dGZpbGUubWFlPic=

>  <r_epik_Ionization_Penalty>  (140) 
2.34452

>  <r_epik_Ionization_Penalty_Charging>  (140) 
2.34449

>  <r_epik_Ionization_Penalty_Neutral>  (140) 
2.97278e-05

>  <r_epik_State_Penalty>  (140) 
2.49836

>  <r_epik_Charging_Adjusted_Penalty>  (140) 
4.84285

>  <i_epik_Tot_Q>  (140) 
1

>  <i_epik_Tot_abs_Q>  (140) 
1

>  <s_epik_Chemistry_Notes>  (140) 
This compound contains an acetal/aminal-like group ( X-CH(R)-Y where X, Y are N, S, or O) that may be acid/base labile, releasing an aldehyde.

>  <s_lp_Force_Field>  (140) 
OPLS3e

>  <r_lp_Energy>  (140) 
352.452

>  <b_lp_Chiralities_Consistent>  (140) 
1

>  <s_lp_Variant>  (140) 
39:0-3

>  <s_i_glide_gridfile>  (140) 
pfpi4k_grid

>  <i_i_glide_lignum>  (140) 
10

>  <i_i_glide_rotatable_bonds>  (140) 
7

>  <r_i_docking_score>  (140) 
-4.92635

>  <r_i_glide_ligand_efficiency>  (140) 
-0.153948

>  <r_i_glide_ligand_efficiency_sa>  (140) 
-0.488756

>  <r_i_glide_ligand_efficiency_ln>  (140) 
-1.10314

>  <r_i_glide_gscore>  (140) 
-4.92635

>  <r_i_glide_lipo>  (140) 
-0.652564

>  <r_i_glide_hbond>  (140) 
-0.17182

>  <r_i_glide_metal>  (140) 
-0

>  <r_i_glide_rewards>  (140) 
-1.32339

>  <r_i_glide_evdw>  (140) 
-27.8199

>  <r_i_glide_ecoul>  (140) 
-10.4463

>  <r_i_glide_erotb>  (140) 
0.191335

>  <r_i_glide_esite>  (140) 
-0.0119724

>  <r_i_glide_emodel>  (140) 
-61.1683

>  <r_i_glide_energy>  (140) 
-38.2662

>  <r_i_glide_einternal>  (140) 
1.61697

>  <r_i_glide_intrahb_reward>  (140) 
-1

>  <i_i_glide_confnum>  (140) 
2

>  <i_i_glide_posenum>  (140) 
21

>  <r_i_glide_eff_state_penalty>  (140) 
0

>  <ligand_id>  (140) 
39

>  <original_smiles>  (140) 
CC1CC2C3OC(C1(O)C3O)C1(C)C(O)C3OC(CN4CCOCC4)OC1(O)C3(C)C2O

>  <smiles>  (140) 
[H]OC1([H])C2([H])OC3([H])C1(O[H])C([H])(C([H])([H])[H])C([H])([H])C2([H])C([H])(O[H])C1(C([H])([H])[H])C2([H])OC([H])(C([H])([H])[N+]4([H])C([H])([H])C([H])([H])OC([H])([H])C4([H])[H])OC1(O[H])C3(C([H])([H])[H])C2([H])O[H]

$$$$
39:2:1
     RDKit          3D

 68 73  0  0  1  0  0  0  0  0999 V2000
    0.9700  -10.2060    5.3291 C   0  0  0  0  0  0  0  0  0  0  0  0
    1.3224   -9.5029    4.0067 C   0  0  2  0  0  0  0  0  0  0  0  0
    2.6083  -10.2675    3.2888 C   0  0  0  0  0  0  0  0  0  0  0  0
    3.4646   -9.4376    2.1967 C   0  0  1  0  0  0  0  0  0  0  0  0
    2.8005   -8.2562    2.5111 C   0  0  1  0  0  0  0  0  0  0  0  0
    1.5362   -7.9646    2.0183 O   0  0  0  0  0  0  0  0  0  0  0  0
    1.4694   -6.8454    2.8167 C   0  0  1  0  0  0  0  0  0  0  0  0
    1.5271   -7.8602    4.1005 C   0  0  1  0  0  0  0  0  0  0  0  0
    0.8914   -7.2821    5.2274 O   0  0  0  0  0  0  0  0  0  0  0  0
    2.9453   -7.7460    4.0670 C   0  0  1  0  0  0  0  0  0  0  0  0
    3.6564   -8.4739    5.0697 O   0  0  0  0  0  0  0  0  0  0  0  0
    2.6698   -5.6916    2.2879 C   0  0  2  0  0  0  0  0  0  0  0  0
    2.1653   -4.3130    2.7690 C   0  0  0  0  0  0  0  0  0  0  0  0
    2.7823   -5.8100    0.7108 C   0  0  1  0  0  0  0  0  0  0  0  0
    2.4260   -4.6946   -0.0861 O   0  0  0  0  0  0  0  0  0  0  0  0
    4.2419   -6.4079    0.3450 C   0  0  1  0  0  0  0  0  0  0  0  0
    4.9417   -5.2950   -0.1916 O   0  0  0  0  0  0  0  0  0  0  0  0
    5.3135   -4.3195    0.7545 C   0  0  1  0  0  0  0  0  0  0  0  0
    4.9721   -2.9038    0.2405 C   0  0  0  0  0  0  0  0  0  0  0  0
    4.3937   -2.8521   -1.1294 N   0  0  0  0  0  0  0  0  0  0  0  0
    3.9613   -1.4766   -1.5018 C   0  0  0  0  0  0  0  0  0  0  0  0
    3.3082   -1.4597   -2.8976 C   0  0  0  0  0  0  0  0  0  0  0  0
    4.1983   -2.0138   -3.8622 O   0  0  0  0  0  0  0  0  0  0  0  0
    4.5311   -3.3616   -3.5595 C   0  0  0  0  0  0  0  0  0  0  0  0
    5.2528   -3.4161   -2.2095 C   0  0  0  0  0  0  0  0  0  0  0  0
    4.7843   -4.4900    2.0681 O   0  0  0  0  0  0  0  0  0  0  0  0
    4.3549   -5.7805    2.5107 C   0  0  1  0  0  0  0  0  0  0  0  0
    4.8823   -5.8108    3.8140 O   0  0  0  0  0  0  0  0  0  0  0  0
    5.0195   -6.9666    1.6401 C   0  0  2  0  0  0  0  0  0  0  0  0
    6.5714   -6.7979    1.5036 C   0  0  0  0  0  0  0  0  0  0  0  0
    4.8725   -8.5978    2.1513 C   0  0  1  0  0  0  0  0  0  0  0  0
    5.6557   -8.8477    3.2973 O   0  0  0  0  0  0  0  0  0  0  0  0
    1.7687  -10.1382    6.0658 H   0  0  0  0  0  0  0  0  0  0  0  0
    0.7906  -11.2595    5.1448 H   0  0  0  0  0  0  0  0  0  0  0  0
    0.0623   -9.7999    5.7630 H   0  0  0  0  0  0  0  0  0  0  0  0
    0.4490   -9.6656    3.3563 H   0  0  0  0  0  0  0  0  0  0  0  0
    3.2703  -10.7101    4.0387 H   0  0  0  0  0  0  0  0  0  0  0  0
    2.2054  -11.1357    2.7702 H   0  0  0  0  0  0  0  0  0  0  0  0
    3.1946   -9.8023    1.2032 H   0  0  0  0  0  0  0  0  0  0  0  0
    2.9765   -7.8719    1.5470 H   0  0  0  0  0  0  0  0  0  0  0  0
    0.4635   -6.4417    2.7014 H   0  0  0  0  0  0  0  0  0  0  0  0
    1.0738   -7.8345    5.9753 H   0  0  0  0  0  0  0  0  0  0  0  0
    2.9945   -6.7292    4.4359 H   0  0  0  0  0  0  0  0  0  0  0  0
    3.3294   -9.3621    5.0601 H   0  0  0  0  0  0  0  0  0  0  0  0
    2.7052   -3.4663    2.3475 H   0  0  0  0  0  0  0  0  0  0  0  0
    2.2317   -4.2376    3.8534 H   0  0  0  0  0  0  0  0  0  0  0  0
    1.1244   -4.1582    2.4876 H   0  0  0  0  0  0  0  0  0  0  0  0
    2.0218   -6.4924    0.3270 H   0  0  0  0  0  0  0  0  0  0  0  0
    2.5102   -4.9894   -0.9867 H   0  0  0  0  0  0  0  0  0  0  0  0
    4.2020   -7.1598   -0.4468 H   0  0  0  0  0  0  0  0  0  0  0  0
    6.3999   -4.3698    0.8596 H   0  0  0  0  0  0  0  0  0  0  0  0
    4.2722   -2.4567    0.9434 H   0  0  0  0  0  0  0  0  0  0  0  0
    5.8732   -2.3015    0.2939 H   0  0  0  0  0  0  0  0  0  0  0  0
    3.2584   -1.0805   -0.7660 H   0  0  0  0  0  0  0  0  0  0  0  0
    4.8239   -0.8132   -1.4943 H   0  0  0  0  0  0  0  0  0  0  0  0
    2.3638   -2.0075   -2.8939 H   0  0  0  0  0  0  0  0  0  0  0  0
    3.0818   -0.4350   -3.1935 H   0  0  0  0  0  0  0  0  0  0  0  0
    3.6329   -3.9776   -3.5468 H   0  0  0  0  0  0  0  0  0  0  0  0
    5.1786   -3.7771   -4.3288 H   0  0  0  0  0  0  0  0  0  0  0  0
    6.1927   -2.8549   -2.2634 H   0  0  0  0  0  0  0  0  0  0  0  0
    5.5037   -4.4688   -2.0717 H   0  0  0  0  0  0  0  0  0  0  0  0
    5.8339   -5.8202    3.7835 H   0  0  0  0  0  0  0  0  0  0  0  0
    7.1242   -7.7073    1.7140 H   0  0  0  0  0  0  0  0  0  0  0  0
    6.9717   -6.0484    2.1848 H   0  0  0  0  0  0  0  0  0  0  0  0
    6.8862   -6.5427    0.4929 H   0  0  0  0  0  0  0  0  0  0  0  0
    5.4041   -9.1351    1.3734 H   0  0  0  0  0  0  0  0  0  0  0  0
    5.1727   -8.5637    4.0632 H   0  0  0  0  0  0  0  0  0  0  0  0
    3.5501   -3.4037   -1.0715 H   0  0  0  0  0  0  0  0  0  0  0  0
  1  2  1  0
  1 33  1  0
  1 34  1  0
  1 35  1  0
  2  8  1  0
  2  3  1  0
  2 36  1  6
  3  4  1  0
  3 37  1  0
  3 38  1  0
  4 31  1  0
  4  5  1  0
  4 39  1  6
  5 10  1  0
  5  6  1  0
  5 40  1  6
  6  7  1  0
  7  8  1  0
  7 12  1  0
  7 41  1  6
  8  9  1  1
  8 10  1  0
  9 42  1  0
 10 11  1  0
 10 43  1  6
 11 44  1  0
 12 27  1  0
 12 13  1  6
 12 14  1  0
 13 45  1  0
 13 46  1  0
 13 47  1  0
 14 15  1  0
 14 16  1  0
 14 48  1  6
 15 49  1  0
 16 29  1  0
 16 17  1  0
 16 50  1  6
 17 18  1  0
 18 19  1  0
 18 26  1  0
 18 51  1  1
 19 20  1  0
 19 52  1  0
 19 53  1  0
 20 25  1  0
 20 21  1  0
 20 68  1  0
 21 22  1  0
 21 54  1  0
 21 55  1  0
 22 23  1  0
 22 56  1  0
 22 57  1  0
 23 24  1  0
 24 25  1  0
 24 58  1  0
 24 59  1  0
 25 60  1  0
 25 61  1  0
 26 27  1  0
 27 28  1  1
 27 29  1  0
 28 62  1  0
 29 30  1  6
 29 31  1  0
 30 63  1  0
 30 64  1  0
 30 65  1  0
 31 32  1  0
 31 66  1  6
 32 67  1  0
M  CHG  1  20   1
M  END
>  <i_m_ct_stereo_status>  (141) 
1

>  <s_m_source_file>  (141) 
/var/tmp/pbs.5076255.sched01/tmpn9kf4o8v/46f5dlbpu8.sdf

>  <i_m_source_file_index>  (141) 
10

>  <i_lp_mmshare_version>  (141) 
48012

>  <i_f3d_flags>  (141) 
0

>  <s_epik_input>  (141) 
W0NIM11bQ0BASF0xW0NIMl1bQ0hdKFtDQEBIXShPMilbQ0BASF0zW09IXSlbQ0BIXShbT0hdKVtDQF0oW0NIM10pKFtDQF00KFtPSF0pW0NAXTUoW0NIM10pW0NAQEhdMltDQEBdMTNbT0hdKVtDQEBIXShbQ0BASF01W09IXSlPW0NASF0oTzQpW0NIMl1ONltDSDJdW0NIMl1PW0NIMl1bQ0gyXTY=

>  <s_epik_cmdline>  (141) 
J2VwaWtfcHl0aG9uJywgJy1waHQnLCAnMi4wJywgJy1waCcsICc3LjAnLCAnLXRuJywgJzgnLCAnLW1hJywgJzIwMCcsICctaW1hZScsICc8aW5maWxlLm1hZT4nLCAnLW9tYWUnLCAnPG91dGZpbGUubWFlPic=

>  <r_epik_Ionization_Penalty>  (141) 
2.34452

>  <r_epik_Ionization_Penalty_Charging>  (141) 
2.34449

>  <r_epik_Ionization_Penalty_Neutral>  (141) 
2.97278e-05

>  <r_epik_State_Penalty>  (141) 
2.49836

>  <r_epik_Charging_Adjusted_Penalty>  (141) 
4.84285

>  <i_epik_Tot_Q>  (141) 
1

>  <i_epik_Tot_abs_Q>  (141) 
1

>  <s_epik_Chemistry_Notes>  (141) 
This compound contains an acetal/aminal-like group ( X-CH(R)-Y where X, Y are N, S, or O) that may be acid/base labile, releasing an aldehyde.

>  <s_lp_Force_Field>  (141) 
OPLS3e

>  <r_lp_Energy>  (141) 
352.452

>  <b_lp_Chiralities_Consistent>  (141) 
1

>  <s_lp_Variant>  (141) 
39:0-3

>  <s_i_glide_gridfile>  (141) 
pfpi4k_grid

>  <i_i_glide_lignum>  (141) 
10

>  <i_i_glide_rotatable_bonds>  (141) 
7

>  <r_i_docking_score>  (141) 
-4.22536

>  <r_i_glide_ligand_efficiency>  (141) 
-0.132042

>  <r_i_glide_ligand_efficiency_sa>  (141) 
-0.419208

>  <r_i_glide_ligand_efficiency_ln>  (141) 
-0.946173

>  <r_i_glide_gscore>  (141) 
-4.22536

>  <r_i_glide_lipo>  (141) 
-0.71954

>  <r_i_glide_hbond>  (141) 
-0.0963438

>  <r_i_glide_metal>  (141) 
-0

>  <r_i_glide_rewards>  (141) 
-0.856415

>  <r_i_glide_evdw>  (141) 
-35.1218

>  <r_i_glide_ecoul>  (141) 
-6.52961

>  <r_i_glide_erotb>  (141) 
0.191335

>  <r_i_glide_esite>  (141) 
-0.00886017

>  <r_i_glide_emodel>  (141) 
-54.5356

>  <r_i_glide_energy>  (141) 
-41.6514

>  <r_i_glide_einternal>  (141) 
6.50614

>  <r_i_glide_intrahb_reward>  (141) 
-0.5

>  <i_i_glide_confnum>  (141) 
1

>  <i_i_glide_posenum>  (141) 
10

>  <r_i_glide_eff_state_penalty>  (141) 
0

>  <ligand_id>  (141) 
39

>  <original_smiles>  (141) 
CC1CC2C3OC(C1(O)C3O)C1(C)C(O)C3OC(CN4CCOCC4)OC1(O)C3(C)C2O

>  <smiles>  (141) 
[H]OC1([H])C2([H])OC3([H])C1(O[H])C([H])(C([H])([H])[H])C([H])([H])C2([H])C([H])(O[H])C1(C([H])([H])[H])C2([H])OC([H])(C([H])([H])[N+]4([H])C([H])([H])C([H])([H])OC([H])([H])C4([H])[H])OC1(O[H])C3(C([H])([H])[H])C2([H])O[H]

$$$$
39:2:2
     RDKit          3D

 68 73  0  0  1  0  0  0  0  0999 V2000
    1.0217  -10.3157    5.2477 C   0  0  0  0  0  0  0  0  0  0  0  0
    1.3576   -9.5911    3.9318 C   0  0  2  0  0  0  0  0  0  0  0  0
    2.6663  -10.3127    3.2067 C   0  0  0  0  0  0  0  0  0  0  0  0
    3.5076   -9.4483    2.1316 C   0  0  1  0  0  0  0  0  0  0  0  0
    2.8192   -8.2889    2.4665 C   0  0  1  0  0  0  0  0  0  0  0  0
    1.5562   -8.0176    1.9644 O   0  0  0  0  0  0  0  0  0  0  0  0
    1.4537   -6.9130    2.7791 C   0  0  1  0  0  0  0  0  0  0  0  0
    1.5228   -7.9441    4.0474 C   0  0  1  0  0  0  0  0  0  0  0  0
    0.8737   -7.3988    5.1824 O   0  0  0  0  0  0  0  0  0  0  0  0
    2.9340   -7.7992    4.0310 C   0  0  1  0  0  0  0  0  0  0  0  0
    3.6476   -8.5037    5.0423 O   0  0  0  0  0  0  0  0  0  0  0  0
    2.6343   -5.7267    2.2724 C   0  0  2  0  0  0  0  0  0  0  0  0
    2.0939   -4.3682    2.7747 C   0  0  0  0  0  0  0  0  0  0  0  0
    2.7556   -5.8205    0.6948 C   0  0  1  0  0  0  0  0  0  0  0  0
    2.3766   -4.6985   -0.0848 O   0  0  0  0  0  0  0  0  0  0  0  0
    4.2274   -6.3822    0.3266 C   0  0  1  0  0  0  0  0  0  0  0  0
    4.9043   -5.2459   -0.1914 O   0  0  0  0  0  0  0  0  0  0  0  0
    5.2495   -4.2745    0.7687 C   0  0  1  0  0  0  0  0  0  0  0  0
    4.8753   -2.8619    0.2732 C   0  0  0  0  0  0  0  0  0  0  0  0
    4.3260   -2.8047   -1.1089 N   0  0  0  0  0  0  0  0  0  0  0  0
    3.8667   -1.4372   -1.4671 C   0  0  0  0  0  0  0  0  0  0  0  0
    3.2441   -1.4082   -2.8776 C   0  0  0  0  0  0  0  0  0  0  0  0
    4.1675   -1.9226   -3.8299 O   0  0  0  0  0  0  0  0  0  0  0  0
    4.5248   -3.2669   -3.5436 C   0  0  0  0  0  0  0  0  0  0  0  0
    5.2229   -3.3242   -2.1783 C   0  0  0  0  0  0  0  0  0  0  0  0
    4.7202   -4.4765    2.0766 O   0  0  0  0  0  0  0  0  0  0  0  0
    4.3192   -5.7809    2.4999 C   0  0  1  0  0  0  0  0  0  0  0  0
    4.8415   -5.8163    3.8093 O   0  0  0  0  0  0  0  0  0  0  0  0
    5.0131   -6.9409    1.6183 C   0  0  2  0  0  0  0  0  0  0  0  0
    6.5631   -6.7350    1.4918 C   0  0  0  0  0  0  0  0  0  0  0  0
    4.8965   -8.5809    2.1050 C   0  0  1  0  0  0  0  0  0  0  0  0
    5.6650   -8.8533    3.2529 O   0  0  0  0  0  0  0  0  0  0  0  0
    1.8246  -10.2391    5.9794 H   0  0  0  0  0  0  0  0  0  0  0  0
    0.8708  -11.3720    5.0507 H   0  0  0  0  0  0  0  0  0  0  0  0
    0.1062   -9.9374    5.6892 H   0  0  0  0  0  0  0  0  0  0  0  0
    0.4923   -9.7659    3.2752 H   0  0  0  0  0  0  0  0  0  0  0  0
    3.3361  -10.7352    3.9633 H   0  0  0  0  0  0  0  0  0  0  0  0
    2.2938  -11.1855    2.6762 H   0  0  0  0  0  0  0  0  0  0  0  0
    3.2477   -9.7967    1.1274 H   0  0  0  0  0  0  0  0  0  0  0  0
    2.9904   -7.8835    1.5088 H   0  0  0  0  0  0  0  0  0  0  0  0
    0.4434   -6.5311    2.6661 H   0  0  0  0  0  0  0  0  0  0  0  0
    1.0787   -7.9713    5.9110 H   0  0  0  0  0  0  0  0  0  0  0  0
    2.9717   -6.7855    4.4086 H   0  0  0  0  0  0  0  0  0  0  0  0
    4.5623   -8.4747    4.7842 H   0  0  0  0  0  0  0  0  0  0  0  0
    2.6144   -3.5009    2.3666 H   0  0  0  0  0  0  0  0  0  0  0  0
    2.1567   -4.3061    3.8601 H   0  0  0  0  0  0  0  0  0  0  0  0
    1.0510   -4.2345    2.4946 H   0  0  0  0  0  0  0  0  0  0  0  0
    2.0076   -6.5093    0.2978 H   0  0  0  0  0  0  0  0  0  0  0  0
    2.4619   -4.9768   -0.9921 H   0  0  0  0  0  0  0  0  0  0  0  0
    4.2149   -7.1218   -0.4785 H   0  0  0  0  0  0  0  0  0  0  0  0
    6.3366   -4.3016    0.8740 H   0  0  0  0  0  0  0  0  0  0  0  0
    4.1462   -2.4468    0.9644 H   0  0  0  0  0  0  0  0  0  0  0  0
    5.7559   -2.2296    0.3555 H   0  0  0  0  0  0  0  0  0  0  0  0
    3.1367   -1.0768   -0.7396 H   0  0  0  0  0  0  0  0  0  0  0  0
    4.7100   -0.7519   -1.4295 H   0  0  0  0  0  0  0  0  0  0  0  0
    2.3128   -1.9765   -2.9044 H   0  0  0  0  0  0  0  0  0  0  0  0
    3.0028   -0.3835   -3.1588 H   0  0  0  0  0  0  0  0  0  0  0  0
    3.6404   -3.9017   -3.5600 H   0  0  0  0  0  0  0  0  0  0  0  0
    5.1973   -3.6546   -4.3036 H   0  0  0  0  0  0  0  0  0  0  0  0
    6.1477   -2.7406   -2.2020 H   0  0  0  0  0  0  0  0  0  0  0  0
    5.4975   -4.3719   -2.0547 H   0  0  0  0  0  0  0  0  0  0  0  0
    5.7927   -5.8212    3.7777 H   0  0  0  0  0  0  0  0  0  0  0  0
    7.1316   -7.6370    1.6898 H   0  0  0  0  0  0  0  0  0  0  0  0
    6.9404   -5.9878    2.1875 H   0  0  0  0  0  0  0  0  0  0  0  0
    6.8739   -6.4509    0.4884 H   0  0  0  0  0  0  0  0  0  0  0  0
    5.4450   -9.0982    1.3232 H   0  0  0  0  0  0  0  0  0  0  0  0
    5.7421   -9.7916    3.3291 H   0  0  0  0  0  0  0  0  0  0  0  0
    3.4948   -3.3778   -1.0775 H   0  0  0  0  0  0  0  0  0  0  0  0
  1  2  1  0
  1 33  1  0
  1 34  1  0
  1 35  1  0
  2  8  1  0
  2  3  1  0
  2 36  1  6
  3  4  1  0
  3 37  1  0
  3 38  1  0
  4 31  1  0
  4  5  1  0
  4 39  1  6
  5 10  1  0
  5  6  1  0
  5 40  1  6
  6  7  1  0
  7  8  1  0
  7 12  1  0
  7 41  1  6
  8  9  1  1
  8 10  1  0
  9 42  1  0
 10 11  1  0
 10 43  1  6
 11 44  1  0
 12 27  1  0
 12 13  1  6
 12 14  1  0
 13 45  1  0
 13 46  1  0
 13 47  1  0
 14 15  1  0
 14 16  1  0
 14 48  1  6
 15 49  1  0
 16 29  1  0
 16 17  1  0
 16 50  1  6
 17 18  1  0
 18 19  1  0
 18 26  1  0
 18 51  1  1
 19 20  1  0
 19 52  1  0
 19 53  1  0
 20 25  1  0
 20 21  1  0
 20 68  1  0
 21 22  1  0
 21 54  1  0
 21 55  1  0
 22 23  1  0
 22 56  1  0
 22 57  1  0
 23 24  1  0
 24 25  1  0
 24 58  1  0
 24 59  1  0
 25 60  1  0
 25 61  1  0
 26 27  1  0
 27 28  1  1
 27 29  1  0
 28 62  1  0
 29 30  1  6
 29 31  1  0
 30 63  1  0
 30 64  1  0
 30 65  1  0
 31 32  1  0
 31 66  1  6
 32 67  1  0
M  CHG  1  20   1
M  END
>  <i_m_ct_stereo_status>  (142) 
1

>  <s_m_source_file>  (142) 
/var/tmp/pbs.5076255.sched01/tmpn9kf4o8v/46f5dlbpu8.sdf

>  <i_m_source_file_index>  (142) 
10

>  <i_lp_mmshare_version>  (142) 
48012

>  <i_f3d_flags>  (142) 
0

>  <s_epik_input>  (142) 
W0NIM11bQ0BASF0xW0NIMl1bQ0hdKFtDQEBIXShPMilbQ0BASF0zW09IXSlbQ0BIXShbT0hdKVtDQF0oW0NIM10pKFtDQF00KFtPSF0pW0NAXTUoW0NIM10pW0NAQEhdMltDQEBdMTNbT0hdKVtDQEBIXShbQ0BASF01W09IXSlPW0NASF0oTzQpW0NIMl1ONltDSDJdW0NIMl1PW0NIMl1bQ0gyXTY=

>  <s_epik_cmdline>  (142) 
J2VwaWtfcHl0aG9uJywgJy1waHQnLCAnMi4wJywgJy1waCcsICc3LjAnLCAnLXRuJywgJzgnLCAnLW1hJywgJzIwMCcsICctaW1hZScsICc8aW5maWxlLm1hZT4nLCAnLW9tYWUnLCAnPG91dGZpbGUubWFlPic=

>  <r_epik_Ionization_Penalty>  (142) 
2.34452

>  <r_epik_Ionization_Penalty_Charging>  (142) 
2.34449

>  <r_epik_Ionization_Penalty_Neutral>  (142) 
2.97278e-05

>  <r_epik_State_Penalty>  (142) 
2.49836

>  <r_epik_Charging_Adjusted_Penalty>  (142) 
4.84285

>  <i_epik_Tot_Q>  (142) 
1

>  <i_epik_Tot_abs_Q>  (142) 
1

>  <s_epik_Chemistry_Notes>  (142) 
This compound contains an acetal/aminal-like group ( X-CH(R)-Y where X, Y are N, S, or O) that may be acid/base labile, releasing an aldehyde.

>  <s_lp_Force_Field>  (142) 
OPLS3e

>  <r_lp_Energy>  (142) 
352.452

>  <b_lp_Chiralities_Consistent>  (142) 
1

>  <s_lp_Variant>  (142) 
39:0-3

>  <s_i_glide_gridfile>  (142) 
pfpi4k_grid

>  <i_i_glide_lignum>  (142) 
10

>  <i_i_glide_rotatable_bonds>  (142) 
7

>  <r_i_docking_score>  (142) 
-4.07415

>  <r_i_glide_ligand_efficiency>  (142) 
-0.127317

>  <r_i_glide_ligand_efficiency_sa>  (142) 
-0.404207

>  <r_i_glide_ligand_efficiency_ln>  (142) 
-0.912313

>  <r_i_glide_gscore>  (142) 
-4.07415

>  <r_i_glide_lipo>  (142) 
-0.703999

>  <r_i_glide_hbond>  (142) 
-0.056467

>  <r_i_glide_metal>  (142) 
-0

>  <r_i_glide_rewards>  (142) 
-0.851277

>  <r_i_glide_evdw>  (142) 
-35.1908

>  <r_i_glide_ecoul>  (142) 
-5.8897

>  <r_i_glide_erotb>  (142) 
0.191335

>  <r_i_glide_esite>  (142) 
-0.010744

>  <r_i_glide_emodel>  (142) 
-53.4566

>  <r_i_glide_energy>  (142) 
-41.0805

>  <r_i_glide_einternal>  (142) 
7.22723

>  <r_i_glide_intrahb_reward>  (142) 
-0.5

>  <i_i_glide_confnum>  (142) 
2

>  <i_i_glide_posenum>  (142) 
16

>  <r_i_glide_eff_state_penalty>  (142) 
0

>  <ligand_id>  (142) 
39

>  <original_smiles>  (142) 
CC1CC2C3OC(C1(O)C3O)C1(C)C(O)C3OC(CN4CCOCC4)OC1(O)C3(C)C2O

>  <smiles>  (142) 
[H]OC1([H])C2([H])OC3([H])C1(O[H])C([H])(C([H])([H])[H])C([H])([H])C2([H])C([H])(O[H])C1(C([H])([H])[H])C2([H])OC([H])(C([H])([H])[N+]4([H])C([H])([H])C([H])([H])OC([H])([H])C4([H])[H])OC1(O[H])C3(C([H])([H])[H])C2([H])O[H]

$$$$
39:3:0
     RDKit          3D

 68 73  0  0  1  0  0  0  0  0999 V2000
    0.4553  -10.7014    3.5802 C   0  0  0  0  0  0  0  0  0  0  0  0
    1.4114   -9.4998    3.5445 C   0  0  2  0  0  0  0  0  0  0  0  0
    2.8891   -9.9483    3.7880 C   0  0  0  0  0  0  0  0  0  0  0  0
    3.8058   -8.9568    4.5803 C   0  0  2  0  0  0  0  0  0  0  0  0
    3.0105   -8.2239    5.7415 C   0  0  1  0  0  0  0  0  0  0  0  0
    2.7917   -6.8935    5.3513 O   0  0  0  0  0  0  0  0  0  0  0  0
    1.9303   -6.9760    4.2321 C   0  0  1  0  0  0  0  0  0  0  0  0
    1.0242   -8.2516    4.4429 C   0  0  1  0  0  0  0  0  0  0  0  0
   -0.3522   -7.9344    4.4091 O   0  0  0  0  0  0  0  0  0  0  0  0
    1.5061   -8.5506    5.8768 C   0  0  1  0  0  0  0  0  0  0  0  0
    1.2405   -9.8267    6.4238 O   0  0  0  0  0  0  0  0  0  0  0  0
    2.1949   -5.9230    3.1018 C   0  0  2  0  0  0  0  0  0  0  0  0
    1.3172   -4.6782    3.3243 C   0  0  0  0  0  0  0  0  0  0  0  0
    2.0923   -6.5895    1.6914 C   0  0  1  0  0  0  0  0  0  0  0  0
    1.3861   -5.8667    0.6950 O   0  0  0  0  0  0  0  0  0  0  0  0
    3.5752   -6.9735    1.3273 C   0  0  1  0  0  0  0  0  0  0  0  0
    3.8986   -5.9530    0.3705 O   0  0  0  0  0  0  0  0  0  0  0  0
    4.1744   -4.6654    0.8602 C   0  0  1  0  0  0  0  0  0  0  0  0
    3.4166   -3.6126    0.0153 C   0  0  0  0  0  0  0  0  0  0  0  0
    3.6113   -3.7591   -1.4517 N   0  0  0  0  0  0  0  0  0  0  0  0
    2.6472   -2.9169   -2.2110 C   0  0  0  0  0  0  0  0  0  0  0  0
    2.8529   -3.0599   -3.7258 C   0  0  0  0  0  0  0  0  0  0  0  0
    4.2012   -2.7459   -4.0512 O   0  0  0  0  0  0  0  0  0  0  0  0
    5.1179   -3.6167   -3.4048 C   0  0  0  0  0  0  0  0  0  0  0  0
    4.9981   -3.4735   -1.8879 C   0  0  0  0  0  0  0  0  0  0  0  0
    3.8503   -4.4395    2.2028 O   0  0  0  0  0  0  0  0  0  0  0  0
    3.7507   -5.5314    3.1003 C   0  0  1  0  0  0  0  0  0  0  0  0
    4.2430   -5.0781    4.3413 O   0  0  0  0  0  0  0  0  0  0  0  0
    4.5245   -6.8162    2.5855 C   0  0  2  0  0  0  0  0  0  0  0  0
    6.0002   -6.4717    2.1468 C   0  0  0  0  0  0  0  0  0  0  0  0
    4.7830   -8.0300    3.6922 C   0  0  1  0  0  0  0  0  0  0  0  0
    5.7064   -7.5673    4.6669 O   0  0  0  0  0  0  0  0  0  0  0  0
    0.4540  -11.2266    4.5344 H   0  0  0  0  0  0  0  0  0  0  0  0
    0.7587  -11.4289    2.8260 H   0  0  0  0  0  0  0  0  0  0  0  0
   -0.5702  -10.4064    3.3526 H   0  0  0  0  0  0  0  0  0  0  0  0
    1.3359   -9.2442    2.5002 H   0  0  0  0  0  0  0  0  0  0  0  0
    2.8586  -10.8838    4.3456 H   0  0  0  0  0  0  0  0  0  0  0  0
    3.3492  -10.2105    2.8366 H   0  0  0  0  0  0  0  0  0  0  0  0
    4.4794   -9.6354    5.1030 H   0  0  0  0  0  0  0  0  0  0  0  0
    3.5449   -8.2469    6.6892 H   0  0  0  0  0  0  0  0  0  0  0  0
    2.4626   -7.5501    3.5577 H   0  0  0  0  0  0  0  0  0  0  0  0
   -0.8176   -8.7322    4.6255 H   0  0  0  0  0  0  0  0  0  0  0  0
    1.0568   -7.8382    6.5735 H   0  0  0  0  0  0  0  0  0  0  0  0
    1.6905  -10.5046    5.9401 H   0  0  0  0  0  0  0  0  0  0  0  0
    1.4775   -3.8965    2.5765 H   0  0  0  0  0  0  0  0  0  0  0  0
    1.5095   -4.2345    4.3035 H   0  0  0  0  0  0  0  0  0  0  0  0
    0.2635   -4.9559    3.2895 H   0  0  0  0  0  0  0  0  0  0  0  0
    1.4735   -7.4662    1.7059 H   0  0  0  0  0  0  0  0  0  0  0  0
    2.0403   -5.3654    0.2378 H   0  0  0  0  0  0  0  0  0  0  0  0
    3.6619   -7.9566    0.8668 H   0  0  0  0  0  0  0  0  0  0  0  0
    5.2419   -4.4764    0.7689 H   0  0  0  0  0  0  0  0  0  0  0  0
    2.3577   -3.6705    0.2577 H   0  0  0  0  0  0  0  0  0  0  0  0
    3.7317   -2.6217    0.3394 H   0  0  0  0  0  0  0  0  0  0  0  0
    1.6197   -3.1837   -1.9587 H   0  0  0  0  0  0  0  0  0  0  0  0
    2.7778   -1.8707   -1.9296 H   0  0  0  0  0  0  0  0  0  0  0  0
    2.6040   -4.0681   -4.0601 H   0  0  0  0  0  0  0  0  0  0  0  0
    2.1926   -2.3774   -4.2643 H   0  0  0  0  0  0  0  0  0  0  0  0
    4.9543   -4.6473   -3.7214 H   0  0  0  0  0  0  0  0  0  0  0  0
    6.1363   -3.3606   -3.6898 H   0  0  0  0  0  0  0  0  0  0  0  0
    5.2802   -2.4684   -1.5792 H   0  0  0  0  0  0  0  0  0  0  0  0
    5.6983   -4.1673   -1.4242 H   0  0  0  0  0  0  0  0  0  0  0  0
    4.1507   -5.8008    4.9513 H   0  0  0  0  0  0  0  0  0  0  0  0
    6.3507   -5.5334    2.5837 H   0  0  0  0  0  0  0  0  0  0  0  0
    6.1431   -6.4248    1.0668 H   0  0  0  0  0  0  0  0  0  0  0  0
    6.7349   -7.2208    2.4406 H   0  0  0  0  0  0  0  0  0  0  0  0
    5.3337   -8.7714    3.1172 H   0  0  0  0  0  0  0  0  0  0  0  0
    6.0431   -8.3075    5.1471 H   0  0  0  0  0  0  0  0  0  0  0  0
    3.4184   -4.7234   -1.7239 H   0  0  0  0  0  0  0  0  0  0  0  0
  1  2  1  0
  1 33  1  0
  1 34  1  0
  1 35  1  0
  2  8  1  0
  2  3  1  0
  2 36  1  6
  3  4  1  0
  3 37  1  0
  3 38  1  0
  4 31  1  0
  4  5  1  0
  4 39  1  1
  5 10  1  0
  5  6  1  0
  5 40  1  1
  6  7  1  0
  7  8  1  0
  7 12  1  0
  7 41  1  1
  8  9  1  1
  8 10  1  0
  9 42  1  0
 10 11  1  0
 10 43  1  1
 11 44  1  0
 12 27  1  0
 12 13  1  6
 12 14  1  0
 13 45  1  0
 13 46  1  0
 13 47  1  0
 14 15  1  0
 14 16  1  0
 14 48  1  1
 15 49  1  0
 16 29  1  0
 16 17  1  0
 16 50  1  6
 17 18  1  0
 18 19  1  0
 18 26  1  0
 18 51  1  1
 19 20  1  0
 19 52  1  0
 19 53  1  0
 20 25  1  0
 20 21  1  0
 20 68  1  0
 21 22  1  0
 21 54  1  0
 21 55  1  0
 22 23  1  0
 22 56  1  0
 22 57  1  0
 23 24  1  0
 24 25  1  0
 24 58  1  0
 24 59  1  0
 25 60  1  0
 25 61  1  0
 26 27  1  0
 27 28  1  1
 27 29  1  0
 28 62  1  0
 29 30  1  6
 29 31  1  0
 30 63  1  0
 30 64  1  0
 30 65  1  0
 31 32  1  0
 31 66  1  6
 32 67  1  0
M  CHG  1  20   1
M  END
>  <i_m_ct_stereo_status>  (143) 
1

>  <s_m_source_file>  (143) 
/var/tmp/pbs.5076255.sched01/tmpn9kf4o8v/46f5dlbpu8.sdf

>  <i_m_source_file_index>  (143) 
11

>  <i_lp_mmshare_version>  (143) 
48012

>  <i_f3d_flags>  (143) 
0

>  <s_epik_input>  (143) 
W0NIM11bQ0BASF0xW0NIMl1bQ0hdKFtDQEBIXShPMilbQ0BASF0zW09IXSlbQ0BIXShbT0hdKVtDQF0oW0NIM10pKFtDQF00KFtPSF0pW0NAXTUoW0NIM10pW0NAQEhdMltDQEBdMTNbT0hdKVtDQEBIXShbQ0BASF01W09IXSlPW0NASF0oTzQpW0NIMl1ONltDSDJdW0NIMl1PW0NIMl1bQ0gyXTY=

>  <s_epik_cmdline>  (143) 
J2VwaWtfcHl0aG9uJywgJy1waHQnLCAnMi4wJywgJy1waCcsICc3LjAnLCAnLXRuJywgJzgnLCAnLW1hJywgJzIwMCcsICctaW1hZScsICc8aW5maWxlLm1hZT4nLCAnLW9tYWUnLCAnPG91dGZpbGUubWFlPic=

>  <r_epik_Ionization_Penalty>  (143) 
2.34452

>  <r_epik_Ionization_Penalty_Charging>  (143) 
2.34449

>  <r_epik_Ionization_Penalty_Neutral>  (143) 
2.97278e-05

>  <r_epik_State_Penalty>  (143) 
2.49836

>  <r_epik_Charging_Adjusted_Penalty>  (143) 
4.84285

>  <i_epik_Tot_Q>  (143) 
1

>  <i_epik_Tot_abs_Q>  (143) 
1

>  <s_epik_Chemistry_Notes>  (143) 
This compound contains an acetal/aminal-like group ( X-CH(R)-Y where X, Y are N, S, or O) that may be acid/base labile, releasing an aldehyde.

>  <s_lp_Force_Field>  (143) 
OPLS3e

>  <r_lp_Energy>  (143) 
166.36

>  <b_lp_Chiralities_Consistent>  (143) 
1

>  <s_lp_Variant>  (143) 
39:0-4

>  <s_i_glide_gridfile>  (143) 
pfpi4k_grid

>  <i_i_glide_lignum>  (143) 
11

>  <i_i_glide_rotatable_bonds>  (143) 
7

>  <r_i_docking_score>  (143) 
-4.79048

>  <r_i_glide_ligand_efficiency>  (143) 
-0.149702

>  <r_i_glide_ligand_efficiency_sa>  (143) 
-0.475276

>  <r_i_glide_ligand_efficiency_ln>  (143) 
-1.07272

>  <r_i_glide_gscore>  (143) 
-4.79048

>  <r_i_glide_lipo>  (143) 
-0.549351

>  <r_i_glide_hbond>  (143) 
-0.230656

>  <r_i_glide_metal>  (143) 
-0

>  <r_i_glide_rewards>  (143) 
-0.821861

>  <r_i_glide_evdw>  (143) 
-30.6441

>  <r_i_glide_ecoul>  (143) 
-12.2433

>  <r_i_glide_erotb>  (143) 
0.191335

>  <r_i_glide_esite>  (143) 
-0.0112467

>  <r_i_glide_emodel>  (143) 
-60.4911

>  <r_i_glide_energy>  (143) 
-42.8874

>  <r_i_glide_einternal>  (143) 
3.12196

>  <r_i_glide_intrahb_reward>  (143) 
-0.5

>  <i_i_glide_confnum>  (143) 
2

>  <i_i_glide_posenum>  (143) 
5

>  <r_i_glide_eff_state_penalty>  (143) 
0

>  <ligand_id>  (143) 
39

>  <original_smiles>  (143) 
CC1CC2C3OC(C1(O)C3O)C1(C)C(O)C3OC(CN4CCOCC4)OC1(O)C3(C)C2O

>  <smiles>  (143) 
[H]OC1([H])C2([H])OC3([H])C1(O[H])C([H])(C([H])([H])[H])C([H])([H])C2([H])C([H])(O[H])C1(C([H])([H])[H])C2([H])OC([H])(C([H])([H])[N+]4([H])C([H])([H])C([H])([H])OC([H])([H])C4([H])[H])OC1(O[H])C3(C([H])([H])[H])C2([H])O[H]

$$$$
39:3:1
     RDKit          3D

 68 73  0  0  1  0  0  0  0  0999 V2000
    0.2674  -10.7924    3.1830 C   0  0  0  0  0  0  0  0  0  0  0  0
    1.3123   -9.6797    3.1949 C   0  0  2  0  0  0  0  0  0  0  0  0
    2.7520  -10.2540    3.3747 C   0  0  0  0  0  0  0  0  0  0  0  0
    3.7468   -9.3798    4.2123 C   0  0  2  0  0  0  0  0  0  0  0  0
    3.0255   -8.6822    5.4441 C   0  0  1  0  0  0  0  0  0  0  0  0
    2.8707   -7.3163    5.1650 O   0  0  0  0  0  0  0  0  0  0  0  0
    1.9962   -7.2584    4.0550 C   0  0  1  0  0  0  0  0  0  0  0  0
    1.0177   -8.4879    4.2007 C   0  0  1  0  0  0  0  0  0  0  0  0
   -0.3394   -8.0788    4.2402 O   0  0  0  0  0  0  0  0  0  0  0  0
    1.5093   -8.9315    5.5988 C   0  0  1  0  0  0  0  0  0  0  0  0
    1.1947  -10.2535    5.9688 O   0  0  0  0  0  0  0  0  0  0  0  0
    2.3185   -6.1429    2.9942 C   0  0  2  0  0  0  0  0  0  0  0  0
    1.5121   -4.8700    3.3178 C   0  0  0  0  0  0  0  0  0  0  0  0
    2.1429   -6.7160    1.5447 C   0  0  1  0  0  0  0  0  0  0  0  0
    1.4530   -5.9174    0.6098 O   0  0  0  0  0  0  0  0  0  0  0  0
    3.5923   -7.1615    1.1255 C   0  0  1  0  0  0  0  0  0  0  0  0
    3.9587   -6.1016    0.2312 O   0  0  0  0  0  0  0  0  0  0  0  0
    4.3360   -4.8740    0.7889 C   0  0  1  0  0  0  0  0  0  0  0  0
    3.6249   -3.7203    0.0521 C   0  0  0  0  0  0  0  0  0  0  0  0
    3.6780   -3.8328   -1.4446 N   0  0  0  0  0  0  0  0  0  0  0  0
    2.6797   -2.9408   -2.0785 C   0  0  0  0  0  0  0  0  0  0  0  0
    2.7318   -3.0618   -3.6092 C   0  0  0  0  0  0  0  0  0  0  0  0
    4.0541   -2.7901   -4.0571 O   0  0  0  0  0  0  0  0  0  0  0  0
    4.9990   -3.7061   -3.5201 C   0  0  0  0  0  0  0  0  0  0  0  0
    5.0304   -3.5892   -1.9933 C   0  0  0  0  0  0  0  0  0  0  0  0
    4.0428   -4.7171    2.1453 O   0  0  0  0  0  0  0  0  0  0  0  0
    3.8993   -5.8457    2.9889 C   0  0  1  0  0  0  0  0  0  0  0  0
    4.4365   -5.4944    4.2547 O   0  0  0  0  0  0  0  0  0  0  0  0
    4.5708   -7.1502    2.3660 C   0  0  2  0  0  0  0  0  0  0  0  0
    6.0549   -6.8793    1.9142 C   0  0  0  0  0  0  0  0  0  0  0  0
    4.7680   -8.4572    3.3713 C   0  0  1  0  0  0  0  0  0  0  0  0
    5.7649   -8.1437    4.3333 O   0  0  0  0  0  0  0  0  0  0  0  0
    0.2413  -11.3982    4.0951 H   0  0  0  0  0  0  0  0  0  0  0  0
    0.4877  -11.4967    2.3840 H   0  0  0  0  0  0  0  0  0  0  0  0
   -0.7368  -10.4010    3.0041 H   0  0  0  0  0  0  0  0  0  0  0  0
    1.2216   -9.3502    2.1698 H   0  0  0  0  0  0  0  0  0  0  0  0
    2.6555  -11.2255    3.8660 H   0  0  0  0  0  0  0  0  0  0  0  0
    3.1662  -10.4735    2.3991 H   0  0  0  0  0  0  0  0  0  0  0  0
    4.3745  -10.1430    4.6657 H   0  0  0  0  0  0  0  0  0  0  0  0
    3.5759   -8.8153    6.3745 H   0  0  0  0  0  0  0  0  0  0  0  0
    2.4791   -7.8159    3.3347 H   0  0  0  0  0  0  0  0  0  0  0  0
   -0.8412   -8.8574    4.4639 H   0  0  0  0  0  0  0  0  0  0  0  0
    1.1120   -8.2721    6.3746 H   0  0  0  0  0  0  0  0  0  0  0  0
    1.5879  -10.5118    6.7960 H   0  0  0  0  0  0  0  0  0  0  0  0
    1.7185   -4.0500    2.6290 H   0  0  0  0  0  0  0  0  0  0  0  0
    1.7542   -4.5166    4.3238 H   0  0  0  0  0  0  0  0  0  0  0  0
    0.4419   -5.0684    3.2882 H   0  0  0  0  0  0  0  0  0  0  0  0
    1.4618   -7.5495    1.5151 H   0  0  0  0  0  0  0  0  0  0  0  0
    2.1099   -5.3301    0.2423 H   0  0  0  0  0  0  0  0  0  0  0  0
    3.6134   -8.1158    0.5959 H   0  0  0  0  0  0  0  0  0  0  0  0
    5.4111   -4.7475    0.6743 H   0  0  0  0  0  0  0  0  0  0  0  0
    2.5900   -3.6817    0.3952 H   0  0  0  0  0  0  0  0  0  0  0  0
    4.0645   -2.7781    0.3800 H   0  0  0  0  0  0  0  0  0  0  0  0
    1.6677   -3.1734   -1.7328 H   0  0  0  0  0  0  0  0  0  0  0  0
    2.8827   -1.9055   -1.7928 H   0  0  0  0  0  0  0  0  0  0  0  0
    2.4081   -4.0516   -3.9334 H   0  0  0  0  0  0  0  0  0  0  0  0
    2.0534   -2.3420   -4.0634 H   0  0  0  0  0  0  0  0  0  0  0  0
    4.7639   -4.7212   -3.8432 H   0  0  0  0  0  0  0  0  0  0  0  0
    5.9804   -3.4642   -3.9123 H   0  0  0  0  0  0  0  0  0  0  0  0
    5.3734   -2.5996   -1.6975 H   0  0  0  0  0  0  0  0  0  0  0  0
    5.7390   -4.3125   -1.5920 H   0  0  0  0  0  0  0  0  0  0  0  0
    5.3863   -5.5481    4.1745 H   0  0  0  0  0  0  0  0  0  0  0  0
    6.4825   -6.0008    2.4050 H   0  0  0  0  0  0  0  0  0  0  0  0
    6.1754   -6.7634    0.8386 H   0  0  0  0  0  0  0  0  0  0  0  0
    6.7420   -7.6988    2.1282 H   0  0  0  0  0  0  0  0  0  0  0  0
    5.2374   -9.1968    2.7274 H   0  0  0  0  0  0  0  0  0  0  0  0
    6.0041   -8.9375    4.7992 H   0  0  0  0  0  0  0  0  0  0  0  0
    3.4187   -4.7888   -1.7071 H   0  0  0  0  0  0  0  0  0  0  0  0
  1  2  1  0
  1 33  1  0
  1 34  1  0
  1 35  1  0
  2  8  1  0
  2  3  1  0
  2 36  1  6
  3  4  1  0
  3 37  1  0
  3 38  1  0
  4 31  1  0
  4  5  1  0
  4 39  1  1
  5 10  1  0
  5  6  1  0
  5 40  1  1
  6  7  1  0
  7  8  1  0
  7 12  1  0
  7 41  1  1
  8  9  1  1
  8 10  1  0
  9 42  1  0
 10 11  1  0
 10 43  1  1
 11 44  1  0
 12 27  1  0
 12 13  1  1
 12 14  1  0
 13 45  1  0
 13 46  1  0
 13 47  1  0
 14 15  1  0
 14 16  1  0
 14 48  1  1
 15 49  1  0
 16 29  1  0
 16 17  1  0
 16 50  1  6
 17 18  1  0
 18 19  1  0
 18 26  1  0
 18 51  1  1
 19 20  1  0
 19 52  1  0
 19 53  1  0
 20 25  1  0
 20 21  1  0
 20 68  1  0
 21 22  1  0
 21 54  1  0
 21 55  1  0
 22 23  1  0
 22 56  1  0
 22 57  1  0
 23 24  1  0
 24 25  1  0
 24 58  1  0
 24 59  1  0
 25 60  1  0
 25 61  1  0
 26 27  1  0
 27 28  1  1
 27 29  1  0
 28 62  1  0
 29 30  1  6
 29 31  1  0
 30 63  1  0
 30 64  1  0
 30 65  1  0
 31 32  1  0
 31 66  1  6
 32 67  1  0
M  CHG  1  20   1
M  END
>  <i_m_ct_stereo_status>  (144) 
1

>  <s_m_source_file>  (144) 
/var/tmp/pbs.5076255.sched01/tmpn9kf4o8v/46f5dlbpu8.sdf

>  <i_m_source_file_index>  (144) 
11

>  <i_lp_mmshare_version>  (144) 
48012

>  <i_f3d_flags>  (144) 
0

>  <s_epik_input>  (144) 
W0NIM11bQ0BASF0xW0NIMl1bQ0hdKFtDQEBIXShPMilbQ0BASF0zW09IXSlbQ0BIXShbT0hdKVtDQF0oW0NIM10pKFtDQF00KFtPSF0pW0NAXTUoW0NIM10pW0NAQEhdMltDQEBdMTNbT0hdKVtDQEBIXShbQ0BASF01W09IXSlPW0NASF0oTzQpW0NIMl1ONltDSDJdW0NIMl1PW0NIMl1bQ0gyXTY=

>  <s_epik_cmdline>  (144) 
J2VwaWtfcHl0aG9uJywgJy1waHQnLCAnMi4wJywgJy1waCcsICc3LjAnLCAnLXRuJywgJzgnLCAnLW1hJywgJzIwMCcsICctaW1hZScsICc8aW5maWxlLm1hZT4nLCAnLW9tYWUnLCAnPG91dGZpbGUubWFlPic=

>  <r_epik_Ionization_Penalty>  (144) 
2.34452

>  <r_epik_Ionization_Penalty_Charging>  (144) 
2.34449

>  <r_epik_Ionization_Penalty_Neutral>  (144) 
2.97278e-05

>  <r_epik_State_Penalty>  (144) 
2.49836

>  <r_epik_Charging_Adjusted_Penalty>  (144) 
4.84285

>  <i_epik_Tot_Q>  (144) 
1

>  <i_epik_Tot_abs_Q>  (144) 
1

>  <s_epik_Chemistry_Notes>  (144) 
This compound contains an acetal/aminal-like group ( X-CH(R)-Y where X, Y are N, S, or O) that may be acid/base labile, releasing an aldehyde.

>  <s_lp_Force_Field>  (144) 
OPLS3e

>  <r_lp_Energy>  (144) 
166.36

>  <b_lp_Chiralities_Consistent>  (144) 
1

>  <s_lp_Variant>  (144) 
39:0-4

>  <s_i_glide_gridfile>  (144) 
pfpi4k_grid

>  <i_i_glide_lignum>  (144) 
11

>  <i_i_glide_rotatable_bonds>  (144) 
7

>  <r_i_docking_score>  (144) 
-4.54661

>  <r_i_glide_ligand_efficiency>  (144) 
-0.142082

>  <r_i_glide_ligand_efficiency_sa>  (144) 
-0.451081

>  <r_i_glide_ligand_efficiency_ln>  (144) 
-1.01811

>  <r_i_glide_gscore>  (144) 
-4.54661

>  <r_i_glide_lipo>  (144) 
-0.595048

>  <r_i_glide_hbond>  (144) 
-0.228394

>  <r_i_glide_metal>  (144) 
-0

>  <r_i_glide_rewards>  (144) 
-0.334218

>  <r_i_glide_evdw>  (144) 
-30.3823

>  <r_i_glide_ecoul>  (144) 
-13.6199

>  <r_i_glide_erotb>  (144) 
0.191335

>  <r_i_glide_esite>  (144) 
-0.0181843

>  <r_i_glide_emodel>  (144) 
-56.2954

>  <r_i_glide_energy>  (144) 
-44.0022

>  <r_i_glide_einternal>  (144) 
2.19446

>  <r_i_glide_intrahb_reward>  (144) 
-0

>  <i_i_glide_confnum>  (144) 
2

>  <i_i_glide_posenum>  (144) 
1

>  <r_i_glide_eff_state_penalty>  (144) 
0

>  <ligand_id>  (144) 
39

>  <original_smiles>  (144) 
CC1CC2C3OC(C1(O)C3O)C1(C)C(O)C3OC(CN4CCOCC4)OC1(O)C3(C)C2O

>  <smiles>  (144) 
[H]OC1([H])C2([H])OC3([H])C1(O[H])C([H])(C([H])([H])[H])C([H])([H])C2([H])C([H])(O[H])C1(C([H])([H])[H])C2([H])OC([H])(C([H])([H])[N+]4([H])C([H])([H])C([H])([H])OC([H])([H])C4([H])[H])OC1(O[H])C3(C([H])([H])[H])C2([H])O[H]

$$$$
39:3:2
     RDKit          3D

 68 73  0  0  1  0  0  0  0  0999 V2000
    0.6170  -10.7116    3.5987 C   0  0  0  0  0  0  0  0  0  0  0  0
    1.5741   -9.5018    3.5290 C   0  0  2  0  0  0  0  0  0  0  0  0
    3.0611   -9.9323    3.7502 C   0  0  0  0  0  0  0  0  0  0  0  0
    3.9822   -8.9204    4.5136 C   0  0  2  0  0  0  0  0  0  0  0  0
    3.2023   -8.1951    5.6923 C   0  0  1  0  0  0  0  0  0  0  0  0
    2.9400   -6.8731    5.3132 O   0  0  0  0  0  0  0  0  0  0  0  0
    2.0689   -6.9679    4.2032 C   0  0  1  0  0  0  0  0  0  0  0  0
    1.1840   -8.2604    4.4375 C   0  0  1  0  0  0  0  0  0  0  0  0
   -0.1986   -7.9500    4.4366 O   0  0  0  0  0  0  0  0  0  0  0  0
    1.7061   -8.5455    5.8599 C   0  0  1  0  0  0  0  0  0  0  0  0
    1.4794   -9.8158    6.4184 O   0  0  0  0  0  0  0  0  0  0  0  0
    2.3066   -5.9044    3.0711 C   0  0  2  0  0  0  0  0  0  0  0  0
    1.4136   -4.6746    3.3091 C   0  0  0  0  0  0  0  0  0  0  0  0
    2.1772   -6.5855    1.6650 C   0  0  1  0  0  0  0  0  0  0  0  0
    1.4396   -5.9043    0.6761 O   0  0  0  0  0  0  0  0  0  0  0  0
    3.6556   -6.9522    1.2729 C   0  0  1  0  0  0  0  0  0  0  0  0
    3.9375   -5.9337    0.3040 O   0  0  0  0  0  0  0  0  0  0  0  0
    4.2124   -4.6434    0.7780 C   0  0  1  0  0  0  0  0  0  0  0  0
    3.4228   -3.5981   -0.0407 C   0  0  0  0  0  0  0  0  0  0  0  0
    3.5713   -3.7530   -1.5222 N   0  0  0  0  0  0  0  0  0  0  0  0
    2.6104   -2.8923   -2.2484 C   0  0  0  0  0  0  0  0  0  0  0  0
    2.7440   -3.0700   -3.7668 C   0  0  0  0  0  0  0  0  0  0  0  0
    4.0872   -2.8048   -4.1488 O   0  0  0  0  0  0  0  0  0  0  0  0
    5.0051   -3.6924   -3.5291 C   0  0  0  0  0  0  0  0  0  0  0  0
    4.9547   -3.5266   -2.0066 C   0  0  0  0  0  0  0  0  0  0  0  0
    3.9078   -4.4138    2.1193 O   0  0  0  0  0  0  0  0  0  0  0  0
    3.8588   -5.4853    3.0403 C   0  0  1  0  0  0  0  0  0  0  0  0
    4.3667   -5.0020    4.2771 O   0  0  0  0  0  0  0  0  0  0  0  0
    4.6301   -6.7731    2.5055 C   0  0  2  0  0  0  0  0  0  0  0  0
    6.0911   -6.4171    2.0301 C   0  0  0  0  0  0  0  0  0  0  0  0
    4.9315   -7.9815    3.6057 C   0  0  1  0  0  0  0  0  0  0  0  0
    5.8988   -7.5198    4.5377 O   0  0  0  0  0  0  0  0  0  0  0  0
    0.6410  -11.2435    4.5553 H   0  0  0  0  0  0  0  0  0  0  0  0
    0.9095  -11.4415    2.8401 H   0  0  0  0  0  0  0  0  0  0  0  0
   -0.4184  -10.4343    3.3909 H   0  0  0  0  0  0  0  0  0  0  0  0
    1.4647   -9.2468    2.4866 H   0  0  0  0  0  0  0  0  0  0  0  0
    3.0514  -10.8715    4.3032 H   0  0  0  0  0  0  0  0  0  0  0  0
    3.4937  -10.1790    2.7876 H   0  0  0  0  0  0  0  0  0  0  0  0
    4.6720   -9.5914    5.0230 H   0  0  0  0  0  0  0  0  0  0  0  0
    3.7544   -8.2150    6.6310 H   0  0  0  0  0  0  0  0  0  0  0  0
    2.5946   -7.5374    3.5242 H   0  0  0  0  0  0  0  0  0  0  0  0
   -0.6522   -8.7504    4.6747 H   0  0  0  0  0  0  0  0  0  0  0  0
    1.2603   -7.8461    6.5738 H   0  0  0  0  0  0  0  0  0  0  0  0
    1.8392  -10.5011    5.8645 H   0  0  0  0  0  0  0  0  0  0  0  0
    1.5524   -3.8958    2.5592 H   0  0  0  0  0  0  0  0  0  0  0  0
    1.6243   -4.2290    4.2856 H   0  0  0  0  0  0  0  0  0  0  0  0
    0.3627   -4.9604    3.2990 H   0  0  0  0  0  0  0  0  0  0  0  0
    1.5695   -7.4735    1.6935 H   0  0  0  0  0  0  0  0  0  0  0  0
    2.0275   -5.8293   -0.0774 H   0  0  0  0  0  0  0  0  0  0  0  0
    3.7432   -7.9364    0.8097 H   0  0  0  0  0  0  0  0  0  0  0  0
    5.2740   -4.4374    0.6703 H   0  0  0  0  0  0  0  0  0  0  0  0
    2.3713   -3.6532    0.2449 H   0  0  0  0  0  0  0  0  0  0  0  0
    3.7512   -2.6047    0.2672 H   0  0  0  0  0  0  0  0  0  0  0  0
    1.5805   -3.1228   -1.9490 H   0  0  0  0  0  0  0  0  0  0  0  0
    2.7849   -1.8455   -1.9861 H   0  0  0  0  0  0  0  0  0  0  0  0
    2.4424   -4.0728   -4.0746 H   0  0  0  0  0  0  0  0  0  0  0  0
    2.0898   -2.3716   -4.2844 H   0  0  0  0  0  0  0  0  0  0  0  0
    4.7911   -4.7195   -3.8244 H   0  0  0  0  0  0  0  0  0  0  0  0
    6.0030   -3.4609   -3.8697 H   0  0  0  0  0  0  0  0  0  0  0  0
    5.2792   -2.5273   -1.7209 H   0  0  0  0  0  0  0  0  0  0  0  0
    5.6419   -4.2456   -1.5634 H   0  0  0  0  0  0  0  0  0  0  0  0
    5.3122   -4.9676    4.1887 H   0  0  0  0  0  0  0  0  0  0  0  0
    6.4456   -5.4732    2.4550 H   0  0  0  0  0  0  0  0  0  0  0  0
    6.2056   -6.3709    0.9468 H   0  0  0  0  0  0  0  0  0  0  0  0
    6.8425   -7.1586    2.3030 H   0  0  0  0  0  0  0  0  0  0  0  0
    5.4611   -8.7244    3.0159 H   0  0  0  0  0  0  0  0  0  0  0  0
    6.2217   -8.2555    5.0429 H   0  0  0  0  0  0  0  0  0  0  0  0
    3.3378   -4.7224   -1.7662 H   0  0  0  0  0  0  0  0  0  0  0  0
  1  2  1  0
  1 33  1  0
  1 34  1  0
  1 35  1  0
  2  8  1  0
  2  3  1  0
  2 36  1  6
  3  4  1  0
  3 37  1  0
  3 38  1  0
  4 31  1  0
  4  5  1  0
  4 39  1  1
  5 10  1  0
  5  6  1  0
  5 40  1  1
  6  7  1  0
  7  8  1  0
  7 12  1  0
  7 41  1  1
  8  9  1  1
  8 10  1  0
  9 42  1  0
 10 11  1  0
 10 43  1  1
 11 44  1  0
 12 27  1  0
 12 13  1  6
 12 14  1  0
 13 45  1  0
 13 46  1  0
 13 47  1  0
 14 15  1  0
 14 16  1  0
 14 48  1  1
 15 49  1  0
 16 29  1  0
 16 17  1  0
 16 50  1  6
 17 18  1  0
 18 19  1  0
 18 26  1  0
 18 51  1  1
 19 20  1  0
 19 52  1  0
 19 53  1  0
 20 25  1  0
 20 21  1  0
 20 68  1  0
 21 22  1  0
 21 54  1  0
 21 55  1  0
 22 23  1  0
 22 56  1  0
 22 57  1  0
 23 24  1  0
 24 25  1  0
 24 58  1  0
 24 59  1  0
 25 60  1  0
 25 61  1  0
 26 27  1  0
 27 28  1  1
 27 29  1  0
 28 62  1  0
 29 30  1  6
 29 31  1  0
 30 63  1  0
 30 64  1  0
 30 65  1  0
 31 32  1  0
 31 66  1  6
 32 67  1  0
M  CHG  1  20   1
M  END
>  <i_m_ct_stereo_status>  (145) 
1

>  <s_m_source_file>  (145) 
/var/tmp/pbs.5076255.sched01/tmpn9kf4o8v/46f5dlbpu8.sdf

>  <i_m_source_file_index>  (145) 
11

>  <i_lp_mmshare_version>  (145) 
48012

>  <i_f3d_flags>  (145) 
0

>  <s_epik_input>  (145) 
W0NIM11bQ0BASF0xW0NIMl1bQ0hdKFtDQEBIXShPMilbQ0BASF0zW09IXSlbQ0BIXShbT0hdKVtDQF0oW0NIM10pKFtDQF00KFtPSF0pW0NAXTUoW0NIM10pW0NAQEhdMltDQEBdMTNbT0hdKVtDQEBIXShbQ0BASF01W09IXSlPW0NASF0oTzQpW0NIMl1ONltDSDJdW0NIMl1PW0NIMl1bQ0gyXTY=

>  <s_epik_cmdline>  (145) 
J2VwaWtfcHl0aG9uJywgJy1waHQnLCAnMi4wJywgJy1waCcsICc3LjAnLCAnLXRuJywgJzgnLCAnLW1hJywgJzIwMCcsICctaW1hZScsICc8aW5maWxlLm1hZT4nLCAnLW9tYWUnLCAnPG91dGZpbGUubWFlPic=

>  <r_epik_Ionization_Penalty>  (145) 
2.34452

>  <r_epik_Ionization_Penalty_Charging>  (145) 
2.34449

>  <r_epik_Ionization_Penalty_Neutral>  (145) 
2.97278e-05

>  <r_epik_State_Penalty>  (145) 
2.49836

>  <r_epik_Charging_Adjusted_Penalty>  (145) 
4.84285

>  <i_epik_Tot_Q>  (145) 
1

>  <i_epik_Tot_abs_Q>  (145) 
1

>  <s_epik_Chemistry_Notes>  (145) 
This compound contains an acetal/aminal-like group ( X-CH(R)-Y where X, Y are N, S, or O) that may be acid/base labile, releasing an aldehyde.

>  <s_lp_Force_Field>  (145) 
OPLS3e

>  <r_lp_Energy>  (145) 
166.36

>  <b_lp_Chiralities_Consistent>  (145) 
1

>  <s_lp_Variant>  (145) 
39:0-4

>  <s_i_glide_gridfile>  (145) 
pfpi4k_grid

>  <i_i_glide_lignum>  (145) 
11

>  <i_i_glide_rotatable_bonds>  (145) 
7

>  <r_i_docking_score>  (145) 
-4.27762

>  <r_i_glide_ligand_efficiency>  (145) 
-0.133676

>  <r_i_glide_ligand_efficiency_sa>  (145) 
-0.424394

>  <r_i_glide_ligand_efficiency_ln>  (145) 
-0.957877

>  <r_i_glide_gscore>  (145) 
-4.27762

>  <r_i_glide_lipo>  (145) 
-0.498248

>  <r_i_glide_hbond>  (145) 
-0.279608

>  <r_i_glide_metal>  (145) 
-0

>  <r_i_glide_rewards>  (145) 
-0.324516

>  <r_i_glide_evdw>  (145) 
-31.487

>  <r_i_glide_ecoul>  (145) 
-11.8849

>  <r_i_glide_erotb>  (145) 
0.191335

>  <r_i_glide_esite>  (145) 
-0.00949609

>  <r_i_glide_emodel>  (145) 
-54.884

>  <r_i_glide_energy>  (145) 
-43.3719

>  <r_i_glide_einternal>  (145) 
2.46009

>  <r_i_glide_intrahb_reward>  (145) 
-0

>  <i_i_glide_confnum>  (145) 
2

>  <i_i_glide_posenum>  (145) 
39

>  <r_i_glide_eff_state_penalty>  (145) 
0

>  <ligand_id>  (145) 
39

>  <original_smiles>  (145) 
CC1CC2C3OC(C1(O)C3O)C1(C)C(O)C3OC(CN4CCOCC4)OC1(O)C3(C)C2O

>  <smiles>  (145) 
[H]OC1([H])C2([H])OC3([H])C1(O[H])C([H])(C([H])([H])[H])C([H])([H])C2([H])C([H])(O[H])C1(C([H])([H])[H])C2([H])OC([H])(C([H])([H])[N+]4([H])C([H])([H])C([H])([H])OC([H])([H])C4([H])[H])OC1(O[H])C3(C([H])([H])[H])C2([H])O[H]

$$$$
40:0:0
     RDKit          3D

 66 72  0  0  1  0  0  0  0  0999 V2000
    2.5164   -6.6520    1.0068 C   0  0  0  0  0  0  0  0  0  0  0  0
    3.8091   -6.1952    1.3712 O   0  0  0  0  0  0  0  0  0  0  0  0
    3.9138   -4.7829    1.5308 C   0  0  1  0  0  0  0  0  0  0  0  0
    4.8032   -4.2329    0.3790 C   0  0  2  0  0  0  0  0  0  0  0  0
    6.2448   -4.4813    0.5009 O   0  0  0  0  0  0  0  0  0  0  0  0
    6.6705   -5.2161    1.5961 C   0  0  0  0  0  0  0  0  0  0  0  0
    7.7359   -6.1460    1.5652 C   0  0  0  0  0  0  0  0  0  0  0  0
    8.5912   -6.2003    0.4987 O   0  0  0  0  0  0  0  0  0  0  0  0
    7.8895   -7.1001    2.5948 C   0  0  0  0  0  0  0  0  0  0  0  0
    6.9459   -7.1897    3.6346 C   0  0  0  0  0  0  0  0  0  0  0  0
    5.8989   -6.2514    3.7194 C   0  0  0  0  0  0  0  0  0  0  0  0
    5.8870   -5.2099    2.7649 C   0  0  0  0  0  0  0  0  0  0  0  0
    4.7777   -4.2312    2.6380 C   0  0  1  0  0  0  0  0  0  0  0  0
    5.1216   -2.7448    2.8899 C   0  0  0  0  0  0  0  0  0  0  0  0
    6.0995   -2.0597    1.9183 C   0  0  0  0  0  0  0  0  0  0  0  0
    5.5225   -1.7419    0.5769 N   0  0  2  0  0  0  0  0  0  0  0  0
    5.0423   -0.3304    0.5195 C   0  0  0  0  0  0  0  0  0  0  0  0
    4.5413   -2.7298   -0.0007 C   0  0  1  0  0  0  0  0  0  0  0  0
    4.4451   -2.5704   -1.5586 C   0  0  0  0  0  0  0  0  0  0  0  0
    3.1180   -3.0945   -2.1271 C   0  0  0  0  0  0  0  0  0  0  0  0
    3.4442   -3.4755   -3.5679 C   0  0  0  0  0  0  0  0  0  0  0  0
    4.8876   -3.9755   -3.5286 C   0  0  0  0  0  0  0  0  0  0  0  0
    5.5787   -3.2343   -2.3821 C   0  0  0  0  0  0  0  0  0  0  0  0
    3.4377   -4.5590    3.0159 C   0  0  1  0  0  0  0  0  0  0  0  0
    2.1629   -3.7698    3.1668 C   0  0  0  0  0  0  0  0  0  0  0  0
    1.1901   -4.7778    3.8080 C   0  0  0  0  0  0  0  0  0  0  0  0
    2.0239   -5.8758    4.3813 N   0  0  2  0  0  0  0  0  0  0  0  0
    1.5996   -6.2913    5.7411 C   0  0  0  0  0  0  0  0  0  0  0  0
    3.4305   -5.4335    4.2464 C   0  0  1  0  0  0  0  0  0  0  0  0
    4.5396   -6.5127    4.3923 C   0  0  0  0  0  0  0  0  0  0  0  0
    2.5445   -7.7354    0.8930 H   0  0  0  0  0  0  0  0  0  0  0  0
    2.1523   -6.1920    0.0860 H   0  0  0  0  0  0  0  0  0  0  0  0
    1.7904   -6.4804    1.7893 H   0  0  0  0  0  0  0  0  0  0  0  0
    4.5055   -4.8459   -0.4692 H   0  0  0  0  0  0  0  0  0  0  0  0
    9.2322   -6.9004    0.5822 H   0  0  0  0  0  0  0  0  0  0  0  0
    8.6710   -7.8420    2.5132 H   0  0  0  0  0  0  0  0  0  0  0  0
    6.9708   -8.0494    4.2987 H   0  0  0  0  0  0  0  0  0  0  0  0
    4.1978   -2.1585    2.8521 H   0  0  0  0  0  0  0  0  0  0  0  0
    5.4850   -2.6454    3.9150 H   0  0  0  0  0  0  0  0  0  0  0  0
    6.4305   -1.1339    2.3925 H   0  0  0  0  0  0  0  0  0  0  0  0
    7.0102   -2.6326    1.8044 H   0  0  0  0  0  0  0  0  0  0  0  0
    4.1322   -0.1923    1.1033 H   0  0  0  0  0  0  0  0  0  0  0  0
    4.8204   -0.0110   -0.4962 H   0  0  0  0  0  0  0  0  0  0  0  0
    5.7983    0.3660    0.8903 H   0  0  0  0  0  0  0  0  0  0  0  0
    3.5721   -2.4619    0.4189 H   0  0  0  0  0  0  0  0  0  0  0  0
    4.4438   -1.5238   -1.8523 H   0  0  0  0  0  0  0  0  0  0  0  0
    2.7786   -3.9731   -1.5756 H   0  0  0  0  0  0  0  0  0  0  0  0
    2.3165   -2.3522   -2.0560 H   0  0  0  0  0  0  0  0  0  0  0  0
    2.7505   -4.2306   -3.9424 H   0  0  0  0  0  0  0  0  0  0  0  0
    3.3688   -2.5964   -4.2042 H   0  0  0  0  0  0  0  0  0  0  0  0
    4.9014   -5.0408   -3.3006 H   0  0  0  0  0  0  0  0  0  0  0  0
    5.4086   -3.8595   -4.4730 H   0  0  0  0  0  0  0  0  0  0  0  0
    6.2820   -2.4805   -2.7363 H   0  0  0  0  0  0  0  0  0  0  0  0
    6.1925   -3.9498   -1.8388 H   0  0  0  0  0  0  0  0  0  0  0  0
    2.3285   -2.9218    3.8406 H   0  0  0  0  0  0  0  0  0  0  0  0
    1.8121   -3.4058    2.1973 H   0  0  0  0  0  0  0  0  0  0  0  0
    0.5606   -4.2848    4.5488 H   0  0  0  0  0  0  0  0  0  0  0  0
    0.5174   -5.2009    3.0585 H   0  0  0  0  0  0  0  0  0  0  0  0
    1.6691   -5.4670    6.4497 H   0  0  0  0  0  0  0  0  0  0  0  0
    2.2092   -7.1227    6.0990 H   0  0  0  0  0  0  0  0  0  0  0  0
    0.5612   -6.6308    5.7089 H   0  0  0  0  0  0  0  0  0  0  0  0
    3.6142   -4.7358    5.0646 H   0  0  0  0  0  0  0  0  0  0  0  0
    4.1643   -7.4629    4.0051 H   0  0  0  0  0  0  0  0  0  0  0  0
    4.7257   -6.6818    5.4537 H   0  0  0  0  0  0  0  0  0  0  0  0
    1.9269   -6.6799    3.7764 H   0  0  0  0  0  0  0  0  0  0  0  0
    6.3324   -1.7865   -0.0220 H   0  0  0  0  0  0  0  0  0  0  0  0
  1  2  1  0
  1 31  1  0
  1 32  1  0
  1 33  1  0
  3  2  1  1
  3 13  1  0
  3 24  1  0
  3  4  1  0
  4 18  1  0
  4  5  1  0
  4 34  1  6
  5  6  1  0
  6 12  2  0
  6  7  1  0
  7  8  1  0
  7  9  2  0
  8 35  1  0
  9 10  1  0
  9 36  1  0
 10 11  2  0
 10 37  1  0
 11 30  1  0
 11 12  1  0
 12 13  1  0
 13 14  1  6
 13 24  1  0
 14 15  1  0
 14 38  1  0
 14 39  1  0
 15 16  1  0
 15 40  1  0
 15 41  1  0
 16 17  1  0
 16 18  1  0
 16 66  1  6
 17 42  1  0
 17 43  1  0
 17 44  1  0
 18 19  1  0
 18 45  1  1
 19 23  1  0
 19 20  1  0
 19 46  1  0
 20 21  1  0
 20 47  1  0
 20 48  1  0
 21 22  1  0
 21 49  1  0
 21 50  1  0
 22 23  1  0
 22 51  1  0
 22 52  1  0
 23 53  1  0
 23 54  1  0
 24 29  1  0
 24 25  1  6
 25 26  1  0
 25 55  1  0
 25 56  1  0
 26 27  1  0
 26 57  1  0
 26 58  1  0
 27 28  1  0
 27 29  1  0
 27 65  1  6
 28 59  1  0
 28 60  1  0
 28 61  1  0
 29 30  1  0
 29 62  1  1
 30 63  1  0
 30 64  1  0
M  CHG  2  16   1  27   1
M  END
>  <i_m_ct_stereo_status>  (146) 
1

>  <s_m_source_file>  (146) 
/var/tmp/pbs.5076255.sched01/tmpn9kf4o8v/46f5dlbpu8.sdf

>  <i_m_source_file_index>  (146) 
12

>  <i_lp_mmshare_version>  (146) 
48012

>  <i_f3d_flags>  (146) 
0

>  <s_epik_input>  (146) 
W0NIMl0xW0NIMl1bQ0gyXVtDSDJdW0NIXTFbQ0BIXShOKFtDSDNdKVtDSDJdW0NIMl0yKVtDSF0oQzMoW0NAQF00NVtDQF0yMzYpT1tDSDNdKU9jN2M2YyhbY0hdW2NIXWM3W09IXSlbQ0gyXVtDQEBIXTVOKFtDSDNdKVtDSDJdW0NIMl00

>  <s_epik_cmdline>  (146) 
J2VwaWtfcHl0aG9uJywgJy1waHQnLCAnMi4wJywgJy1waCcsICc3LjAnLCAnLXRuJywgJzgnLCAnLW1hJywgJzIwMCcsICctaW1hZScsICc8aW5maWxlLm1hZT4nLCAnLW9tYWUnLCAnPG91dGZpbGUubWFlPic=

>  <r_lp_tautomer_probability>  (146) 
1

>  <r_epik_Ionization_Penalty>  (146) 
0.175544

>  <r_epik_Ionization_Penalty_Charging>  (146) 
0.173733

>  <r_epik_Ionization_Penalty_Neutral>  (146) 
0.00181053

>  <r_epik_State_Penalty>  (146) 
0.150271

>  <r_epik_Charging_Adjusted_Penalty>  (146) 
0.324004

>  <i_epik_Tot_Q>  (146) 
2

>  <i_epik_Tot_abs_Q>  (146) 
2

>  <s_lp_Force_Field>  (146) 
OPLS3e

>  <r_lp_Energy>  (146) 
137.434

>  <b_lp_Chiralities_Consistent>  (146) 
1

>  <s_lp_Variant>  (146) 
40:0-1

>  <s_i_glide_gridfile>  (146) 
pfpi4k_grid

>  <i_i_glide_lignum>  (146) 
12

>  <i_i_glide_rotatable_bonds>  (146) 
3

>  <r_i_docking_score>  (146) 
-3.57007

>  <r_i_glide_ligand_efficiency>  (146) 
-0.119002

>  <r_i_glide_ligand_efficiency_sa>  (146) 
-0.369768

>  <r_i_glide_ligand_efficiency_ln>  (146) 
-0.811159

>  <r_i_glide_gscore>  (146) 
-3.57007

>  <r_i_glide_lipo>  (146) 
-0.885662

>  <r_i_glide_hbond>  (146) 
0

>  <r_i_glide_metal>  (146) 
-0

>  <r_i_glide_rewards>  (146) 
-0.596148

>  <r_i_glide_evdw>  (146) 
-23.7016

>  <r_i_glide_ecoul>  (146) 
-6.78994

>  <r_i_glide_erotb>  (146) 
0.115858

>  <r_i_glide_esite>  (146) 
-0.000550576

>  <r_i_glide_emodel>  (146) 
-36.9089

>  <r_i_glide_energy>  (146) 
-30.4915

>  <r_i_glide_einternal>  (146) 
1.18317

>  <r_i_glide_intrahb_reward>  (146) 
-0

>  <i_i_glide_confnum>  (146) 
1

>  <i_i_glide_posenum>  (146) 
4

>  <r_i_glide_eff_state_penalty>  (146) 
0

>  <ligand_id>  (146) 
40

>  <original_smiles>  (146) 
COC12C3Oc4c(O)ccc5c4C1(CCN(C)C3C1CCCC1)C21CCN(C)C1C5

>  <smiles>  (146) 
[H]Oc1c([H])c([H])c2c3c1OC1([H])C4(OC([H])([H])[H])C3(C([H])([H])C([H])([H])[N+]([H])(C([H])([H])[H])C1([H])C1([H])C([H])([H])C([H])([H])C([H])([H])C1([H])[H])C41C([H])([H])C([H])([H])[N+]([H])(C([H])([H])[H])C1([H])C2([H])[H]

$$$$
40:0:1
     RDKit          3D

 66 72  0  0  1  0  0  0  0  0999 V2000
    2.1733   -0.4420    1.7002 C   0  0  0  0  0  0  0  0  0  0  0  0
    2.6138   -1.7884    1.8195 O   0  0  0  0  0  0  0  0  0  0  0  0
    3.9430   -2.0018    1.3524 C   0  0  1  0  0  0  0  0  0  0  0  0
    3.8818   -2.6867   -0.0426 C   0  0  2  0  0  0  0  0  0  0  0  0
    3.5375   -4.1089   -0.0474 O   0  0  0  0  0  0  0  0  0  0  0  0
    3.2567   -4.6878    1.1756 C   0  0  0  0  0  0  0  0  0  0  0  0
    2.2401   -5.6425    1.3595 C   0  0  0  0  0  0  0  0  0  0  0  0
    1.6119   -6.1557    0.2670 O   0  0  0  0  0  0  0  0  0  0  0  0
    1.7721   -5.9764    2.6490 C   0  0  0  0  0  0  0  0  0  0  0  0
    2.2226   -5.2521    3.7714 C   0  0  0  0  0  0  0  0  0  0  0  0
    3.2379   -4.2846    3.6228 C   0  0  0  0  0  0  0  0  0  0  0  0
    3.8183   -4.1471    2.3444 C   0  0  0  0  0  0  0  0  0  0  0  0
    4.7833   -3.0801    1.9890 C   0  0  1  0  0  0  0  0  0  0  0  0
    6.1896   -3.5406    1.5473 C   0  0  0  0  0  0  0  0  0  0  0  0
    6.3149   -4.3480    0.2444 C   0  0  0  0  0  0  0  0  0  0  0  0
    6.1496   -3.5355   -1.0002 N   0  0  2  0  0  0  0  0  0  0  0  0
    7.4718   -3.1088   -1.5577 C   0  0  0  0  0  0  0  0  0  0  0  0
    5.1351   -2.4221   -0.9562 C   0  0  1  0  0  0  0  0  0  0  0  0
    4.6822   -2.0451   -2.4035 C   0  0  0  0  0  0  0  0  0  0  0  0
    4.0145   -0.6705   -2.4882 C   0  0  0  0  0  0  0  0  0  0  0  0
    3.0827   -0.7444   -3.6894 C   0  0  0  0  0  0  0  0  0  0  0  0
    2.6157   -2.1996   -3.7126 C   0  0  0  0  0  0  0  0  0  0  0  0
    3.7222   -3.0427   -3.0818 C   0  0  0  0  0  0  0  0  0  0  0  0
    4.7930   -1.8218    2.6673 C   0  0  1  0  0  0  0  0  0  0  0  0
    5.7174   -0.6355    2.6661 C   0  0  0  0  0  0  0  0  0  0  0  0
    5.1775    0.2367    3.8148 C   0  0  0  0  0  0  0  0  0  0  0  0
    4.3126   -0.6348    4.6556 N   0  0  2  0  0  0  0  0  0  0  0  0
    4.5297   -0.4568    6.1122 C   0  0  0  0  0  0  0  0  0  0  0  0
    4.4896   -2.0075    4.1345 C   0  0  1  0  0  0  0  0  0  0  0  0
    3.4321   -3.0681    4.5452 C   0  0  0  0  0  0  0  0  0  0  0  0
    1.1324   -0.3747    2.0141 H   0  0  0  0  0  0  0  0  0  0  0  0
    2.2414   -0.0661    0.6807 H   0  0  0  0  0  0  0  0  0  0  0  0
    2.7431    0.2198    2.3483 H   0  0  0  0  0  0  0  0  0  0  0  0
    3.0094   -2.2392   -0.5078 H   0  0  0  0  0  0  0  0  0  0  0  0
    2.1161   -6.0129   -0.5233 H   0  0  0  0  0  0  0  0  0  0  0  0
    0.9715   -6.6921    2.7527 H   0  0  0  0  0  0  0  0  0  0  0  0
    1.6998   -5.3620    4.7158 H   0  0  0  0  0  0  0  0  0  0  0  0
    6.8337   -2.6625    1.4285 H   0  0  0  0  0  0  0  0  0  0  0  0
    6.6074   -4.1268    2.3653 H   0  0  0  0  0  0  0  0  0  0  0  0
    7.3076   -4.7996    0.2398 H   0  0  0  0  0  0  0  0  0  0  0  0
    5.6529   -5.2161    0.2565 H   0  0  0  0  0  0  0  0  0  0  0  0
    7.9251   -2.3264   -0.9519 H   0  0  0  0  0  0  0  0  0  0  0  0
    7.3816   -2.7477   -2.5803 H   0  0  0  0  0  0  0  0  0  0  0  0
    8.2117   -3.9085   -1.6122 H   0  0  0  0  0  0  0  0  0  0  0  0
    5.6523   -1.5597   -0.5389 H   0  0  0  0  0  0  0  0  0  0  0  0
    5.5263   -1.9568   -3.0748 H   0  0  0  0  0  0  0  0  0  0  0  0
    3.4171   -0.5214   -1.5979 H   0  0  0  0  0  0  0  0  0  0  0  0
    4.7334    0.1484   -2.5531 H   0  0  0  0  0  0  0  0  0  0  0  0
    2.2688   -0.0232   -3.6108 H   0  0  0  0  0  0  0  0  0  0  0  0
    3.6366   -0.5145   -4.5972 H   0  0  0  0  0  0  0  0  0  0  0  0
    1.7185   -2.3050   -3.1041 H   0  0  0  0  0  0  0  0  0  0  0  0
    2.3888   -2.5547   -4.7113 H   0  0  0  0  0  0  0  0  0  0  0  0
    4.2601   -3.6328   -3.8279 H   0  0  0  0  0  0  0  0  0  0  0  0
    3.2584   -3.7647   -2.4114 H   0  0  0  0  0  0  0  0  0  0  0  0
    6.7356   -0.9581    2.8799 H   0  0  0  0  0  0  0  0  0  0  0  0
    5.7074   -0.1254    1.6991 H   0  0  0  0  0  0  0  0  0  0  0  0
    5.9989    0.6895    4.3707 H   0  0  0  0  0  0  0  0  0  0  0  0
    4.5569    1.0455    3.4299 H   0  0  0  0  0  0  0  0  0  0  0  0
    5.5521   -0.7013    6.3974 H   0  0  0  0  0  0  0  0  0  0  0  0
    3.8435   -1.0810    6.6852 H   0  0  0  0  0  0  0  0  0  0  0  0
    4.3393    0.5833    6.3855 H   0  0  0  0  0  0  0  0  0  0  0  0
    5.4247   -2.3772    4.5567 H   0  0  0  0  0  0  0  0  0  0  0  0
    2.4603   -2.5809    4.6473 H   0  0  0  0  0  0  0  0  0  0  0  0
    3.6757   -3.4505    5.5363 H   0  0  0  0  0  0  0  0  0  0  0  0
    3.3562   -0.3765    4.4500 H   0  0  0  0  0  0  0  0  0  0  0  0
    5.7739   -4.2102   -1.6555 H   0  0  0  0  0  0  0  0  0  0  0  0
  1  2  1  0
  1 31  1  0
  1 32  1  0
  1 33  1  0
  3  2  1  1
  3 13  1  0
  3 24  1  0
  3  4  1  0
  4 18  1  0
  4  5  1  0
  4 34  1  6
  5  6  1  0
  6 12  2  0
  6  7  1  0
  7  8  1  0
  7  9  2  0
  8 35  1  0
  9 10  1  0
  9 36  1  0
 10 11  2  0
 10 37  1  0
 11 30  1  0
 11 12  1  0
 12 13  1  0
 13 14  1  6
 13 24  1  0
 14 15  1  0
 14 38  1  0
 14 39  1  0
 15 16  1  0
 15 40  1  0
 15 41  1  0
 16 17  1  0
 16 18  1  0
 16 66  1  6
 17 42  1  0
 17 43  1  0
 17 44  1  0
 18 19  1  0
 18 45  1  1
 19 23  1  0
 19 20  1  0
 19 46  1  0
 20 21  1  0
 20 47  1  0
 20 48  1  0
 21 22  1  0
 21 49  1  0
 21 50  1  0
 22 23  1  0
 22 51  1  0
 22 52  1  0
 23 53  1  0
 23 54  1  0
 24 29  1  0
 24 25  1  1
 25 26  1  0
 25 55  1  0
 25 56  1  0
 26 27  1  0
 26 57  1  0
 26 58  1  0
 27 28  1  0
 27 29  1  0
 27 65  1  1
 28 59  1  0
 28 60  1  0
 28 61  1  0
 29 30  1  0
 29 62  1  1
 30 63  1  0
 30 64  1  0
M  CHG  2  16   1  27   1
M  END
>  <i_m_ct_stereo_status>  (147) 
1

>  <s_m_source_file>  (147) 
/var/tmp/pbs.5076255.sched01/tmpn9kf4o8v/46f5dlbpu8.sdf

>  <i_m_source_file_index>  (147) 
12

>  <i_lp_mmshare_version>  (147) 
48012

>  <i_f3d_flags>  (147) 
0

>  <s_epik_input>  (147) 
W0NIMl0xW0NIMl1bQ0gyXVtDSDJdW0NIXTFbQ0BIXShOKFtDSDNdKVtDSDJdW0NIMl0yKVtDSF0oQzMoW0NAQF00NVtDQF0yMzYpT1tDSDNdKU9jN2M2YyhbY0hdW2NIXWM3W09IXSlbQ0gyXVtDQEBIXTVOKFtDSDNdKVtDSDJdW0NIMl00

>  <s_epik_cmdline>  (147) 
J2VwaWtfcHl0aG9uJywgJy1waHQnLCAnMi4wJywgJy1waCcsICc3LjAnLCAnLXRuJywgJzgnLCAnLW1hJywgJzIwMCcsICctaW1hZScsICc8aW5maWxlLm1hZT4nLCAnLW9tYWUnLCAnPG91dGZpbGUubWFlPic=

>  <r_lp_tautomer_probability>  (147) 
1

>  <r_epik_Ionization_Penalty>  (147) 
0.175544

>  <r_epik_Ionization_Penalty_Charging>  (147) 
0.173733

>  <r_epik_Ionization_Penalty_Neutral>  (147) 
0.00181053

>  <r_epik_State_Penalty>  (147) 
0.150271

>  <r_epik_Charging_Adjusted_Penalty>  (147) 
0.324004

>  <i_epik_Tot_Q>  (147) 
2

>  <i_epik_Tot_abs_Q>  (147) 
2

>  <s_lp_Force_Field>  (147) 
OPLS3e

>  <r_lp_Energy>  (147) 
137.434

>  <b_lp_Chiralities_Consistent>  (147) 
1

>  <s_lp_Variant>  (147) 
40:0-1

>  <s_i_glide_gridfile>  (147) 
pfpi4k_grid

>  <i_i_glide_lignum>  (147) 
12

>  <i_i_glide_rotatable_bonds>  (147) 
3

>  <r_i_docking_score>  (147) 
-3.47576

>  <r_i_glide_ligand_efficiency>  (147) 
-0.115859

>  <r_i_glide_ligand_efficiency_sa>  (147) 
-0.36

>  <r_i_glide_ligand_efficiency_ln>  (147) 
-0.78973

>  <r_i_glide_gscore>  (147) 
-3.47576

>  <r_i_glide_lipo>  (147) 
-1.03954

>  <r_i_glide_hbond>  (147) 
0

>  <r_i_glide_metal>  (147) 
-0

>  <r_i_glide_rewards>  (147) 
-0.596148

>  <r_i_glide_evdw>  (147) 
-22.4708

>  <r_i_glide_ecoul>  (147) 
-5.54923

>  <r_i_glide_erotb>  (147) 
0.115858

>  <r_i_glide_esite>  (147) 
0

>  <r_i_glide_emodel>  (147) 
-34.5699

>  <r_i_glide_energy>  (147) 
-28.02

>  <r_i_glide_einternal>  (147) 
0.254528

>  <r_i_glide_intrahb_reward>  (147) 
-0

>  <i_i_glide_confnum>  (147) 
1

>  <i_i_glide_posenum>  (147) 
22

>  <r_i_glide_eff_state_penalty>  (147) 
0

>  <ligand_id>  (147) 
40

>  <original_smiles>  (147) 
COC12C3Oc4c(O)ccc5c4C1(CCN(C)C3C1CCCC1)C21CCN(C)C1C5

>  <smiles>  (147) 
[H]Oc1c([H])c([H])c2c3c1OC1([H])C4(OC([H])([H])[H])C3(C([H])([H])C([H])([H])[N+]([H])(C([H])([H])[H])C1([H])C1([H])C([H])([H])C([H])([H])C([H])([H])C1([H])[H])C41C([H])([H])C([H])([H])[N+]([H])(C([H])([H])[H])C1([H])C2([H])[H]

$$$$
40:0:2
     RDKit          3D

 66 72  0  0  1  0  0  0  0  0999 V2000
    1.8296   -0.2803    1.6698 C   0  0  0  0  0  0  0  0  0  0  0  0
    2.2196   -1.6437    1.7905 O   0  0  0  0  0  0  0  0  0  0  0  0
    3.5858   -1.8939    1.4628 C   0  0  1  0  0  0  0  0  0  0  0  0
    3.6419   -2.6906    0.1233 C   0  0  2  0  0  0  0  0  0  0  0  0
    3.2824   -4.1082    0.1961 O   0  0  0  0  0  0  0  0  0  0  0  0
    2.8797   -4.5917    1.4281 C   0  0  0  0  0  0  0  0  0  0  0  0
    1.8641   -5.5580    1.5980 C   0  0  0  0  0  0  0  0  0  0  0  0
    1.3563   -6.2126    0.5138 O   0  0  0  0  0  0  0  0  0  0  0  0
    1.2712   -5.7662    2.8652 C   0  0  0  0  0  0  0  0  0  0  0  0
    1.6096   -4.9419    3.9527 C   0  0  0  0  0  0  0  0  0  0  0  0
    2.6440   -3.9871    3.8217 C   0  0  0  0  0  0  0  0  0  0  0  0
    3.3358   -3.9564    2.5941 C   0  0  0  0  0  0  0  0  0  0  0  0
    4.3503   -2.9252    2.2541 C   0  0  1  0  0  0  0  0  0  0  0  0
    5.7877   -3.4294    1.9852 C   0  0  0  0  0  0  0  0  0  0  0  0
    6.0175   -4.3397    0.7636 C   0  0  0  0  0  0  0  0  0  0  0  0
    5.9724   -3.6318   -0.5557 N   0  0  2  0  0  0  0  0  0  0  0  0
    7.3474   -3.2736   -1.0239 C   0  0  0  0  0  0  0  0  0  0  0  0
    4.9779   -2.5028   -0.6906 C   0  0  1  0  0  0  0  0  0  0  0  0
    4.6723   -2.2172   -2.1984 C   0  0  0  0  0  0  0  0  0  0  0  0
    3.9627   -0.8794   -2.4482 C   0  0  0  0  0  0  0  0  0  0  0  0
    3.1687   -1.0871   -3.7318 C   0  0  0  0  0  0  0  0  0  0  0  0
    2.7516   -2.5565   -3.7070 C   0  0  0  0  0  0  0  0  0  0  0  0
    3.8221   -3.2941   -2.9022 C   0  0  0  0  0  0  0  0  0  0  0  0
    4.3182   -1.6180    2.8315 C   0  0  1  0  0  0  0  0  0  0  0  0
    5.2622   -0.4427    2.8319 C   0  0  0  0  0  0  0  0  0  0  0  0
    4.6268    0.5289    3.8465 C   0  0  0  0  0  0  0  0  0  0  0  0
    3.6732   -0.2719    4.6667 N   0  0  2  0  0  0  0  0  0  0  0  0
    3.7543    0.0174    6.1191 C   0  0  0  0  0  0  0  0  0  0  0  0
    3.8788   -1.6843    4.2739 C   0  0  1  0  0  0  0  0  0  0  0  0
    2.7698   -2.7049    4.6617 C   0  0  0  0  0  0  0  0  0  0  0  0
    0.7615   -0.1899    1.8627 H   0  0  0  0  0  0  0  0  0  0  0  0
    2.0419    0.1309    0.6836 H   0  0  0  0  0  0  0  0  0  0  0  0
    2.3298    0.3500    2.3960 H   0  0  0  0  0  0  0  0  0  0  0  0
    2.8168   -2.2861   -0.4530 H   0  0  0  0  0  0  0  0  0  0  0  0
    0.9684   -7.0510    0.7181 H   0  0  0  0  0  0  0  0  0  0  0  0
    0.4496   -6.4605    2.9594 H   0  0  0  0  0  0  0  0  0  0  0  0
    0.9995   -4.9641    4.8480 H   0  0  0  0  0  0  0  0  0  0  0  0
    6.4458   -2.5649    1.8523 H   0  0  0  0  0  0  0  0  0  0  0  0
    6.1428   -3.9347    2.8851 H   0  0  0  0  0  0  0  0  0  0  0  0
    7.0005   -4.7958    0.8881 H   0  0  0  0  0  0  0  0  0  0  0  0
    5.3455   -5.1993    0.7818 H   0  0  0  0  0  0  0  0  0  0  0  0
    7.7584   -2.4477   -0.4422 H   0  0  0  0  0  0  0  0  0  0  0  0
    7.3723   -2.9931   -2.0782 H   0  0  0  0  0  0  0  0  0  0  0  0
    8.0508   -4.1058   -0.9332 H   0  0  0  0  0  0  0  0  0  0  0  0
    5.4701   -1.6168   -0.2924 H   0  0  0  0  0  0  0  0  0  0  0  0
    5.5945   -2.1386   -2.7685 H   0  0  0  0  0  0  0  0  0  0  0  0
    3.2577   -0.6554   -1.6480 H   0  0  0  0  0  0  0  0  0  0  0  0
    4.6612   -0.0399   -2.5045 H   0  0  0  0  0  0  0  0  0  0  0  0
    2.3248   -0.4039   -3.7948 H   0  0  0  0  0  0  0  0  0  0  0  0
    3.8099   -0.8993   -4.5892 H   0  0  0  0  0  0  0  0  0  0  0  0
    1.7948   -2.6610   -3.1940 H   0  0  0  0  0  0  0  0  0  0  0  0
    2.6320   -2.9809   -4.7010 H   0  0  0  0  0  0  0  0  0  0  0  0
    4.4464   -3.9330   -3.5335 H   0  0  0  0  0  0  0  0  0  0  0  0
    3.3139   -3.9501   -2.2032 H   0  0  0  0  0  0  0  0  0  0  0  0
    6.2485   -0.7583    3.1847 H   0  0  0  0  0  0  0  0  0  0  0  0
    5.3516   -0.0116    1.8315 H   0  0  0  0  0  0  0  0  0  0  0  0
    5.4006    1.0076    4.4469 H   0  0  0  0  0  0  0  0  0  0  0  0
    4.0773    1.3273    3.3415 H   0  0  0  0  0  0  0  0  0  0  0  0
    4.7433   -0.2110    6.5176 H   0  0  0  0  0  0  0  0  0  0  0  0
    3.0090   -0.5569    6.6711 H   0  0  0  0  0  0  0  0  0  0  0  0
    3.5525    1.0773    6.2915 H   0  0  0  0  0  0  0  0  0  0  0  0
    4.7669   -2.0264    4.8081 H   0  0  0  0  0  0  0  0  0  0  0  0
    1.8005   -2.2026    4.6353 H   0  0  0  0  0  0  0  0  0  0  0  0
    2.9159   -3.0082    5.6988 H   0  0  0  0  0  0  0  0  0  0  0  0
    2.7428   -0.0253    4.3534 H   0  0  0  0  0  0  0  0  0  0  0  0
    5.6481   -4.3539   -1.1867 H   0  0  0  0  0  0  0  0  0  0  0  0
  1  2  1  0
  1 31  1  0
  1 32  1  0
  1 33  1  0
  3  2  1  1
  3 13  1  0
  3 24  1  0
  3  4  1  0
  4 18  1  0
  4  5  1  0
  4 34  1  6
  5  6  1  0
  6 12  2  0
  6  7  1  0
  7  8  1  0
  7  9  2  0
  8 35  1  0
  9 10  1  0
  9 36  1  0
 10 11  2  0
 10 37  1  0
 11 30  1  0
 11 12  1  0
 12 13  1  0
 13 14  1  6
 13 24  1  0
 14 15  1  0
 14 38  1  0
 14 39  1  0
 15 16  1  0
 15 40  1  0
 15 41  1  0
 16 17  1  0
 16 18  1  0
 16 66  1  6
 17 42  1  0
 17 43  1  0
 17 44  1  0
 18 19  1  0
 18 45  1  1
 19 23  1  0
 19 20  1  0
 19 46  1  0
 20 21  1  0
 20 47  1  0
 20 48  1  0
 21 22  1  0
 21 49  1  0
 21 50  1  0
 22 23  1  0
 22 51  1  0
 22 52  1  0
 23 53  1  0
 23 54  1  0
 24 29  1  0
 24 25  1  6
 25 26  1  0
 25 55  1  0
 25 56  1  0
 26 27  1  0
 26 57  1  0
 26 58  1  0
 27 28  1  0
 27 29  1  0
 27 65  1  6
 28 59  1  0
 28 60  1  0
 28 61  1  0
 29 30  1  0
 29 62  1  1
 30 63  1  0
 30 64  1  0
M  CHG  2  16   1  27   1
M  END
>  <i_m_ct_stereo_status>  (148) 
1

>  <s_m_source_file>  (148) 
/var/tmp/pbs.5076255.sched01/tmpn9kf4o8v/46f5dlbpu8.sdf

>  <i_m_source_file_index>  (148) 
12

>  <i_lp_mmshare_version>  (148) 
48012

>  <i_f3d_flags>  (148) 
0

>  <s_epik_input>  (148) 
W0NIMl0xW0NIMl1bQ0gyXVtDSDJdW0NIXTFbQ0BIXShOKFtDSDNdKVtDSDJdW0NIMl0yKVtDSF0oQzMoW0NAQF00NVtDQF0yMzYpT1tDSDNdKU9jN2M2YyhbY0hdW2NIXWM3W09IXSlbQ0gyXVtDQEBIXTVOKFtDSDNdKVtDSDJdW0NIMl00

>  <s_epik_cmdline>  (148) 
J2VwaWtfcHl0aG9uJywgJy1waHQnLCAnMi4wJywgJy1waCcsICc3LjAnLCAnLXRuJywgJzgnLCAnLW1hJywgJzIwMCcsICctaW1hZScsICc8aW5maWxlLm1hZT4nLCAnLW9tYWUnLCAnPG91dGZpbGUubWFlPic=

>  <r_lp_tautomer_probability>  (148) 
1

>  <r_epik_Ionization_Penalty>  (148) 
0.175544

>  <r_epik_Ionization_Penalty_Charging>  (148) 
0.173733

>  <r_epik_Ionization_Penalty_Neutral>  (148) 
0.00181053

>  <r_epik_State_Penalty>  (148) 
0.150271

>  <r_epik_Charging_Adjusted_Penalty>  (148) 
0.324004

>  <i_epik_Tot_Q>  (148) 
2

>  <i_epik_Tot_abs_Q>  (148) 
2

>  <s_lp_Force_Field>  (148) 
OPLS3e

>  <r_lp_Energy>  (148) 
137.434

>  <b_lp_Chiralities_Consistent>  (148) 
1

>  <s_lp_Variant>  (148) 
40:0-1

>  <s_i_glide_gridfile>  (148) 
pfpi4k_grid

>  <i_i_glide_lignum>  (148) 
12

>  <i_i_glide_rotatable_bonds>  (148) 
3

>  <r_i_docking_score>  (148) 
-3.17093

>  <r_i_glide_ligand_efficiency>  (148) 
-0.105698

>  <r_i_glide_ligand_efficiency_sa>  (148) 
-0.328427

>  <r_i_glide_ligand_efficiency_ln>  (148) 
-0.72047

>  <r_i_glide_gscore>  (148) 
-3.17093

>  <r_i_glide_lipo>  (148) 
-0.891212

>  <r_i_glide_hbond>  (148) 
0

>  <r_i_glide_metal>  (148) 
-0

>  <r_i_glide_rewards>  (148) 
-0.596148

>  <r_i_glide_evdw>  (148) 
-24.5943

>  <r_i_glide_ecoul>  (148) 
-3.79808

>  <r_i_glide_erotb>  (148) 
0.115858

>  <r_i_glide_esite>  (148) 
0

>  <r_i_glide_emodel>  (148) 
-33.1889

>  <r_i_glide_energy>  (148) 
-28.3924

>  <r_i_glide_einternal>  (148) 
1.07529

>  <r_i_glide_intrahb_reward>  (148) 
-0

>  <i_i_glide_confnum>  (148) 
1

>  <i_i_glide_posenum>  (148) 
30

>  <r_i_glide_eff_state_penalty>  (148) 
0

>  <ligand_id>  (148) 
40

>  <original_smiles>  (148) 
COC12C3Oc4c(O)ccc5c4C1(CCN(C)C3C1CCCC1)C21CCN(C)C1C5

>  <smiles>  (148) 
[H]Oc1c([H])c([H])c2c3c1OC1([H])C4(OC([H])([H])[H])C3(C([H])([H])C([H])([H])[N+]([H])(C([H])([H])[H])C1([H])C1([H])C([H])([H])C([H])([H])C([H])([H])C1([H])[H])C41C([H])([H])C([H])([H])[N+]([H])(C([H])([H])[H])C1([H])C2([H])[H]

$$$$
40:1:0
     RDKit          3D

 65 71  0  0  1  0  0  0  0  0999 V2000
    1.3731   -5.2880   -0.6679 C   0  0  0  0  0  0  0  0  0  0  0  0
    1.9409   -5.0921    0.6119 O   0  0  0  0  0  0  0  0  0  0  0  0
    3.3036   -5.4579    0.7770 C   0  0  1  0  0  0  0  0  0  0  0  0
    3.3717   -6.5863    1.8404 C   0  0  2  0  0  0  0  0  0  0  0  0
    3.4589   -6.1852    3.2356 O   0  0  0  0  0  0  0  0  0  0  0  0
    3.0761   -4.8647    3.4999 C   0  0  0  0  0  0  0  0  0  0  0  0
    2.1922   -4.4832    4.5348 C   0  0  0  0  0  0  0  0  0  0  0  0
    1.8057   -5.3797    5.4828 O   0  0  0  0  0  0  0  0  0  0  0  0
    1.6331   -3.1827    4.5531 C   0  0  0  0  0  0  0  0  0  0  0  0
    1.8596   -2.2887    3.4841 C   0  0  0  0  0  0  0  0  0  0  0  0
    2.7610   -2.6601    2.4487 C   0  0  0  0  0  0  0  0  0  0  0  0
    3.4140   -3.9002    2.5744 C   0  0  0  0  0  0  0  0  0  0  0  0
    4.2443   -4.5276    1.5167 C   0  0  1  0  0  0  0  0  0  0  0  0
    5.6781   -4.8471    1.9425 C   0  0  0  0  0  0  0  0  0  0  0  0
    6.3090   -6.1556    1.3712 C   0  0  0  0  0  0  0  0  0  0  0  0
    5.7884   -7.3756    1.9908 N   0  0  0  0  0  0  0  0  0  0  0  0
    6.7845   -8.4408    1.7765 C   0  0  0  0  0  0  0  0  0  0  0  0
    4.4081   -7.7216    1.5538 C   0  0  1  0  0  0  0  0  0  0  0  0
    3.9468   -9.0728    2.2070 C   0  0  0  0  0  0  0  0  0  0  0  0
    2.6239   -9.6607    1.6497 C   0  0  0  0  0  0  0  0  0  0  0  0
    2.0522  -10.4699    2.8081 C   0  0  0  0  0  0  0  0  0  0  0  0
    2.5122   -9.7591    4.0847 C   0  0  0  0  0  0  0  0  0  0  0  0
    3.8554   -9.1017    3.7670 C   0  0  0  0  0  0  0  0  0  0  0  0
    4.0798   -4.2232    0.1286 C   0  0  1  0  0  0  0  0  0  0  0  0
    4.8734   -4.5123   -1.1069 C   0  0  0  0  0  0  0  0  0  0  0  0
    4.2267   -3.6046   -2.1949 C   0  0  0  0  0  0  0  0  0  0  0  0
    3.3522   -2.6461   -1.4771 N   0  0  2  0  0  0  0  0  0  0  0  0
    3.4064   -1.2873   -2.0470 C   0  0  0  0  0  0  0  0  0  0  0  0
    3.7133   -2.7669   -0.0399 C   0  0  1  0  0  0  0  0  0  0  0  0
    2.7244   -2.1440    0.9885 C   0  0  0  0  0  0  0  0  0  0  0  0
    0.3187   -5.0831   -0.6862 H   0  0  0  0  0  0  0  0  0  0  0  0
    1.4213   -6.3090   -0.9770 H   0  0  0  0  0  0  0  0  0  0  0  0
    1.7892   -4.6421   -1.4143 H   0  0  0  0  0  0  0  0  0  0  0  0
    2.3711   -6.9996    1.7883 H   0  0  0  0  0  0  0  0  0  0  0  0
    2.1733   -6.2426    5.3465 H   0  0  0  0  0  0  0  0  0  0  0  0
    0.9269   -2.9190    5.3357 H   0  0  0  0  0  0  0  0  0  0  0  0
    1.2560   -1.3865    3.3995 H   0  0  0  0  0  0  0  0  0  0  0  0
    6.3084   -4.0025    1.6331 H   0  0  0  0  0  0  0  0  0  0  0  0
    5.7454   -4.8781    3.0390 H   0  0  0  0  0  0  0  0  0  0  0  0
    6.2774   -6.2232    0.2797 H   0  0  0  0  0  0  0  0  0  0  0  0
    7.3778   -6.0861    1.6008 H   0  0  0  0  0  0  0  0  0  0  0  0
    6.6135   -9.2883    2.4352 H   0  0  0  0  0  0  0  0  0  0  0  0
    7.8086   -8.1218    2.0011 H   0  0  0  0  0  0  0  0  0  0  0  0
    6.7806   -8.8088    0.7522 H   0  0  0  0  0  0  0  0  0  0  0  0
    4.4817   -7.8740    0.4715 H   0  0  0  0  0  0  0  0  0  0  0  0
    4.6420   -9.8748    1.9406 H   0  0  0  0  0  0  0  0  0  0  0  0
    1.8640   -8.9321    1.3673 H   0  0  0  0  0  0  0  0  0  0  0  0
    2.8081  -10.2579    0.7475 H   0  0  0  0  0  0  0  0  0  0  0  0
    0.9650  -10.5382    2.7370 H   0  0  0  0  0  0  0  0  0  0  0  0
    2.4692  -11.4723    2.7862 H   0  0  0  0  0  0  0  0  0  0  0  0
    1.7946   -8.9828    4.3515 H   0  0  0  0  0  0  0  0  0  0  0  0
    2.5901  -10.4387    4.9305 H   0  0  0  0  0  0  0  0  0  0  0  0
    4.6993   -9.6588    4.1821 H   0  0  0  0  0  0  0  0  0  0  0  0
    3.9014   -8.1401    4.2847 H   0  0  0  0  0  0  0  0  0  0  0  0
    5.9243   -4.2303   -0.9319 H   0  0  0  0  0  0  0  0  0  0  0  0
    4.8016   -5.5820   -1.3450 H   0  0  0  0  0  0  0  0  0  0  0  0
    5.0136   -3.1395   -2.7782 H   0  0  0  0  0  0  0  0  0  0  0  0
    3.6368   -4.1848   -2.9092 H   0  0  0  0  0  0  0  0  0  0  0  0
    4.3848   -0.8400   -1.9796 H   0  0  0  0  0  0  0  0  0  0  0  0
    2.6874   -0.6750   -1.5258 H   0  0  0  0  0  0  0  0  0  0  0  0
    3.0984   -1.3345   -3.0865 H   0  0  0  0  0  0  0  0  0  0  0  0
    4.6468   -2.2422    0.1223 H   0  0  0  0  0  0  0  0  0  0  0  0
    1.7064   -2.3374    0.6690 H   0  0  0  0  0  0  0  0  0  0  0  0
    2.8509   -1.0631    1.0148 H   0  0  0  0  0  0  0  0  0  0  0  0
    2.4228   -2.9491   -1.5589 H   0  0  0  0  0  0  0  0  0  0  0  0
  1  2  1  0
  1 31  1  0
  1 32  1  0
  1 33  1  0
  3  2  1  1
  3 13  1  0
  3 24  1  0
  3  4  1  0
  4 18  1  0
  4  5  1  0
  4 34  1  1
  5  6  1  0
  6 12  2  0
  6  7  1  0
  7  8  1  0
  7  9  2  0
  8 35  1  0
  9 10  1  0
  9 36  1  0
 10 11  2  0
 10 37  1  0
 11 30  1  0
 11 12  1  0
 12 13  1  0
 13 14  1  1
 13 24  1  0
 14 15  1  0
 14 38  1  0
 14 39  1  0
 15 16  1  0
 15 40  1  0
 15 41  1  0
 16 17  1  0
 16 18  1  0
 17 42  1  0
 17 43  1  0
 17 44  1  0
 18 19  1  0
 18 45  1  6
 19 23  1  0
 19 20  1  0
 19 46  1  0
 20 21  1  0
 20 47  1  0
 20 48  1  0
 21 22  1  0
 21 49  1  0
 21 50  1  0
 22 23  1  0
 22 51  1  0
 22 52  1  0
 23 53  1  0
 23 54  1  0
 24 29  1  0
 24 25  1  6
 25 26  1  0
 25 55  1  0
 25 56  1  0
 26 27  1  0
 26 57  1  0
 26 58  1  0
 27 28  1  0
 27 29  1  0
 27 65  1  1
 28 59  1  0
 28 60  1  0
 28 61  1  0
 29 30  1  0
 29 62  1  6
 30 63  1  0
 30 64  1  0
M  CHG  1  27   1
M  END
>  <i_m_ct_stereo_status>  (149) 
1

>  <s_m_source_file>  (149) 
/var/tmp/pbs.5076255.sched01/tmpn9kf4o8v/46f5dlbpu8.sdf

>  <i_m_source_file_index>  (149) 
13

>  <i_lp_mmshare_version>  (149) 
48012

>  <i_f3d_flags>  (149) 
0

>  <s_epik_input>  (149) 
W0NIMl0xW0NIMl1bQ0gyXVtDSDJdW0NIXTFbQ0BIXShOKFtDSDNdKVtDSDJdW0NIMl0yKVtDSF0oQzMoW0NAQF00NVtDQF0yMzYpT1tDSDNdKU9jN2M2YyhbY0hdW2NIXWM3W09IXSlbQ0gyXVtDQEBIXTVOKFtDSDNdKVtDSDJdW0NIMl00

>  <s_epik_cmdline>  (149) 
J2VwaWtfcHl0aG9uJywgJy1waHQnLCAnMi4wJywgJy1waCcsICc3LjAnLCAnLXRuJywgJzgnLCAnLW1hJywgJzIwMCcsICctaW1hZScsICc8aW5maWxlLm1hZT4nLCAnLW9tYWUnLCAnPG91dGZpbGUubWFlPic=

>  <r_lp_tautomer_probability>  (149) 
1

>  <r_epik_Ionization_Penalty>  (149) 
0.971691

>  <r_epik_Ionization_Penalty_Charging>  (149) 
0.0161418

>  <r_epik_Ionization_Penalty_Neutral>  (149) 
0.955549

>  <r_epik_State_Penalty>  (149) 
1.02665

>  <r_epik_Charging_Adjusted_Penalty>  (149) 
1.0428

>  <i_epik_Tot_Q>  (149) 
1

>  <i_epik_Tot_abs_Q>  (149) 
1

>  <s_lp_Force_Field>  (149) 
OPLS3e

>  <r_lp_Energy>  (149) 
123.826

>  <b_lp_Chiralities_Consistent>  (149) 
1

>  <s_lp_Variant>  (149) 
40:0-2

>  <s_i_glide_gridfile>  (149) 
pfpi4k_grid

>  <i_i_glide_lignum>  (149) 
13

>  <i_i_glide_rotatable_bonds>  (149) 
3

>  <r_i_docking_score>  (149) 
-2.52258

>  <r_i_glide_ligand_efficiency>  (149) 
-0.0840859

>  <r_i_glide_ligand_efficiency_sa>  (149) 
-0.261274

>  <r_i_glide_ligand_efficiency_ln>  (149) 
-0.573157

>  <r_i_glide_gscore>  (149) 
-2.52258

>  <r_i_glide_lipo>  (149) 
-0.445928

>  <r_i_glide_hbond>  (149) 
-0.0708502

>  <r_i_glide_metal>  (149) 
-0

>  <r_i_glide_rewards>  (149) 
-0.60302

>  <r_i_glide_evdw>  (149) 
-15.8396

>  <r_i_glide_ecoul>  (149) 
-4.61706

>  <r_i_glide_erotb>  (149) 
0.11637

>  <r_i_glide_esite>  (149) 
-0.0346084

>  <r_i_glide_emodel>  (149) 
-21.8629

>  <r_i_glide_energy>  (149) 
-20.4567

>  <r_i_glide_einternal>  (149) 
2.97552

>  <r_i_glide_intrahb_reward>  (149) 
-0

>  <i_i_glide_confnum>  (149) 
1

>  <i_i_glide_posenum>  (149) 
18

>  <r_i_glide_eff_state_penalty>  (149) 
0

>  <ligand_id>  (149) 
40

>  <original_smiles>  (149) 
COC12C3Oc4c(O)ccc5c4C1(CCN(C)C3C1CCCC1)C21CCN(C)C1C5

>  <smiles>  (149) 
[H]Oc1c([H])c([H])c2c3c1OC1([H])C([H])(C4([H])C([H])([H])C([H])([H])C([H])([H])C4([H])[H])N(C([H])([H])[H])C([H])([H])C([H])([H])C34C1(OC([H])([H])[H])C41C([H])([H])C([H])([H])[N+]([H])(C([H])([H])[H])C1([H])C2([H])[H]

$$$$
40:1:1
     RDKit          3D

 65 71  0  0  1  0  0  0  0  0999 V2000
    1.7416   -4.0276   -1.0912 C   0  0  0  0  0  0  0  0  0  0  0  0
    2.5278   -3.5288   -0.0087 O   0  0  0  0  0  0  0  0  0  0  0  0
    3.8102   -4.1361    0.1437 C   0  0  1  0  0  0  0  0  0  0  0  0
    3.8261   -4.8376    1.5384 C   0  0  2  0  0  0  0  0  0  0  0  0
    4.2314   -4.0311    2.6929 O   0  0  0  0  0  0  0  0  0  0  0  0
    4.1426   -2.6581    2.5177 C   0  0  0  0  0  0  0  0  0  0  0  0
    3.5516   -1.7582    3.4183 C   0  0  0  0  0  0  0  0  0  0  0  0
    3.2030   -2.1720    4.6705 O   0  0  0  0  0  0  0  0  0  0  0  0
    3.2298   -0.4247    3.0258 C   0  0  0  0  0  0  0  0  0  0  0  0
    3.4317   -0.0141    1.6955 C   0  0  0  0  0  0  0  0  0  0  0  0
    4.0574   -0.8942    0.7789 C   0  0  0  0  0  0  0  0  0  0  0  0
    4.4924   -2.1460    1.2633 C   0  0  0  0  0  0  0  0  0  0  0  0
    5.0036   -3.2539    0.4266 C   0  0  1  0  0  0  0  0  0  0  0  0
    6.4031   -3.7426    0.8150 C   0  0  0  0  0  0  0  0  0  0  0  0
    6.6634   -5.2725    0.6805 C   0  0  0  0  0  0  0  0  0  0  0  0
    6.0433   -6.0638    1.7519 N   0  0  0  0  0  0  0  0  0  0  0  0
    6.7759   -7.3419    1.8145 C   0  0  0  0  0  0  0  0  0  0  0  0
    4.5743   -6.2197    1.5764 C   0  0  1  0  0  0  0  0  0  0  0  0
    3.9785   -7.1384    2.7043 C   0  0  0  0  0  0  0  0  0  0  0  0
    2.5077   -7.5761    2.4964 C   0  0  0  0  0  0  0  0  0  0  0  0
    1.9800   -7.8005    3.9113 C   0  0  0  0  0  0  0  0  0  0  0  0
    2.7550   -6.8361    4.8132 C   0  0  0  0  0  0  0  0  0  0  0  0
    4.1310   -6.6370    4.1786 C   0  0  0  0  0  0  0  0  0  0  0  0
    4.6561   -3.3784   -0.9465 C   0  0  1  0  0  0  0  0  0  0  0  0
    5.1584   -4.2129   -2.0719 C   0  0  0  0  0  0  0  0  0  0  0  0
    4.4967   -3.6076   -3.3333 C   0  0  0  0  0  0  0  0  0  0  0  0
    3.9365   -2.2913   -2.9172 N   0  0  2  0  0  0  0  0  0  0  0  0
    4.0522   -1.2272   -3.9383 C   0  0  0  0  0  0  0  0  0  0  0  0
    4.5253   -2.0235   -1.5834 C   0  0  1  0  0  0  0  0  0  0  0  0
    3.8878   -0.8796   -0.7531 C   0  0  0  0  0  0  0  0  0  0  0  0
    0.7767   -3.5320   -1.1213 H   0  0  0  0  0  0  0  0  0  0  0  0
    1.5905   -5.1041   -1.0305 H   0  0  0  0  0  0  0  0  0  0  0  0
    2.1504   -3.7836   -2.0567 H   0  0  0  0  0  0  0  0  0  0  0  0
    2.7648   -5.0015    1.7307 H   0  0  0  0  0  0  0  0  0  0  0  0
    3.5079   -3.0441    4.8652 H   0  0  0  0  0  0  0  0  0  0  0  0
    2.7246    0.2214    3.7261 H   0  0  0  0  0  0  0  0  0  0  0  0
    2.9985    0.9307    1.3592 H   0  0  0  0  0  0  0  0  0  0  0  0
    7.1041   -3.2149    0.1652 H   0  0  0  0  0  0  0  0  0  0  0  0
    6.6292   -3.4226    1.8337 H   0  0  0  0  0  0  0  0  0  0  0  0
    6.4106   -5.6859   -0.2992 H   0  0  0  0  0  0  0  0  0  0  0  0
    7.7483   -5.3856    0.7681 H   0  0  0  0  0  0  0  0  0  0  0  0
    6.5685   -7.8811    2.7367 H   0  0  0  0  0  0  0  0  0  0  0  0
    7.8644   -7.2201    1.8131 H   0  0  0  0  0  0  0  0  0  0  0  0
    6.5247   -7.9961    0.9841 H   0  0  0  0  0  0  0  0  0  0  0  0
    4.4507   -6.7120    0.6160 H   0  0  0  0  0  0  0  0  0  0  0  0
    4.4681   -8.1137    2.6843 H   0  0  0  0  0  0  0  0  0  0  0  0
    1.8632   -6.8204    2.0402 H   0  0  0  0  0  0  0  0  0  0  0  0
    2.4375   -8.4650    1.8524 H   0  0  0  0  0  0  0  0  0  0  0  0
    0.9009   -7.6473    3.9620 H   0  0  0  0  0  0  0  0  0  0  0  0
    2.2018   -8.8216    4.2142 H   0  0  0  0  0  0  0  0  0  0  0  0
    2.2455   -5.8710    4.8462 H   0  0  0  0  0  0  0  0  0  0  0  0
    2.8406   -7.1960    5.8352 H   0  0  0  0  0  0  0  0  0  0  0  0
    4.9151   -7.2077    4.6889 H   0  0  0  0  0  0  0  0  0  0  0  0
    4.4328   -5.5989    4.3390 H   0  0  0  0  0  0  0  0  0  0  0  0
    6.2471   -4.1005   -2.1230 H   0  0  0  0  0  0  0  0  0  0  0  0
    4.8997   -5.2593   -1.9034 H   0  0  0  0  0  0  0  0  0  0  0  0
    5.2386   -3.5515   -4.1264 H   0  0  0  0  0  0  0  0  0  0  0  0
    3.6887   -4.2480   -3.7110 H   0  0  0  0  0  0  0  0  0  0  0  0
    5.0683   -1.0802   -4.1939 H   0  0  0  0  0  0  0  0  0  0  0  0
    3.6484   -0.2716   -3.5986 H   0  0  0  0  0  0  0  0  0  0  0  0
    3.5710   -1.5285   -4.8676 H   0  0  0  0  0  0  0  0  0  0  0  0
    5.5615   -1.7106   -1.7177 H   0  0  0  0  0  0  0  0  0  0  0  0
    2.8169   -0.8783   -0.9495 H   0  0  0  0  0  0  0  0  0  0  0  0
    4.2846    0.0634   -1.1067 H   0  0  0  0  0  0  0  0  0  0  0  0
    2.9504   -2.4225   -2.7555 H   0  0  0  0  0  0  0  0  0  0  0  0
  1  2  1  0
  1 31  1  0
  1 32  1  0
  1 33  1  0
  3  2  1  1
  3 13  1  0
  3 24  1  0
  3  4  1  0
  4 18  1  0
  4  5  1  0
  4 34  1  1
  5  6  1  0
  6 12  2  0
  6  7  1  0
  7  8  1  0
  7  9  2  0
  8 35  1  0
  9 10  1  0
  9 36  1  0
 10 11  2  0
 10 37  1  0
 11 30  1  0
 11 12  1  0
 12 13  1  0
 13 14  1  6
 13 24  1  0
 14 15  1  0
 14 38  1  0
 14 39  1  0
 15 16  1  0
 15 40  1  0
 15 41  1  0
 16 17  1  0
 16 18  1  0
 17 42  1  0
 17 43  1  0
 17 44  1  0
 18 19  1  0
 18 45  1  6
 19 23  1  0
 19 20  1  0
 19 46  1  0
 20 21  1  0
 20 47  1  0
 20 48  1  0
 21 22  1  0
 21 49  1  0
 21 50  1  0
 22 23  1  0
 22 51  1  0
 22 52  1  0
 23 53  1  0
 23 54  1  0
 24 29  1  0
 24 25  1  6
 25 26  1  0
 25 55  1  0
 25 56  1  0
 26 27  1  0
 26 57  1  0
 26 58  1  0
 27 28  1  0
 27 29  1  0
 27 65  1  1
 28 59  1  0
 28 60  1  0
 28 61  1  0
 29 30  1  0
 29 62  1  6
 30 63  1  0
 30 64  1  0
M  CHG  1  27   1
M  END
>  <i_m_ct_stereo_status>  (150) 
1

>  <s_m_source_file>  (150) 
/var/tmp/pbs.5076255.sched01/tmpn9kf4o8v/46f5dlbpu8.sdf

>  <i_m_source_file_index>  (150) 
13

>  <i_lp_mmshare_version>  (150) 
48012

>  <i_f3d_flags>  (150) 
0

>  <s_epik_input>  (150) 
W0NIMl0xW0NIMl1bQ0gyXVtDSDJdW0NIXTFbQ0BIXShOKFtDSDNdKVtDSDJdW0NIMl0yKVtDSF0oQzMoW0NAQF00NVtDQF0yMzYpT1tDSDNdKU9jN2M2YyhbY0hdW2NIXWM3W09IXSlbQ0gyXVtDQEBIXTVOKFtDSDNdKVtDSDJdW0NIMl00

>  <s_epik_cmdline>  (150) 
J2VwaWtfcHl0aG9uJywgJy1waHQnLCAnMi4wJywgJy1waCcsICc3LjAnLCAnLXRuJywgJzgnLCAnLW1hJywgJzIwMCcsICctaW1hZScsICc8aW5maWxlLm1hZT4nLCAnLW9tYWUnLCAnPG91dGZpbGUubWFlPic=

>  <r_lp_tautomer_probability>  (150) 
1

>  <r_epik_Ionization_Penalty>  (150) 
0.971691

>  <r_epik_Ionization_Penalty_Charging>  (150) 
0.0161418

>  <r_epik_Ionization_Penalty_Neutral>  (150) 
0.955549

>  <r_epik_State_Penalty>  (150) 
1.02665

>  <r_epik_Charging_Adjusted_Penalty>  (150) 
1.0428

>  <i_epik_Tot_Q>  (150) 
1

>  <i_epik_Tot_abs_Q>  (150) 
1

>  <s_lp_Force_Field>  (150) 
OPLS3e

>  <r_lp_Energy>  (150) 
123.826

>  <b_lp_Chiralities_Consistent>  (150) 
1

>  <s_lp_Variant>  (150) 
40:0-2

>  <s_i_glide_gridfile>  (150) 
pfpi4k_grid

>  <i_i_glide_lignum>  (150) 
13

>  <i_i_glide_rotatable_bonds>  (150) 
3

>  <r_i_docking_score>  (150) 
-2.29812

>  <r_i_glide_ligand_efficiency>  (150) 
-0.0766039

>  <r_i_glide_ligand_efficiency_sa>  (150) 
-0.238026

>  <r_i_glide_ligand_efficiency_ln>  (150) 
-0.522157

>  <r_i_glide_gscore>  (150) 
-2.29812

>  <r_i_glide_lipo>  (150) 
-0.626226

>  <r_i_glide_hbond>  (150) 
0

>  <r_i_glide_metal>  (150) 
-0

>  <r_i_glide_rewards>  (150) 
-0.60302

>  <r_i_glide_evdw>  (150) 
-19.3268

>  <r_i_glide_ecoul>  (150) 
-1.45934

>  <r_i_glide_erotb>  (150) 
0.11637

>  <r_i_glide_esite>  (150) 
0

>  <r_i_glide_emodel>  (150) 
-21.781

>  <r_i_glide_energy>  (150) 
-20.7861

>  <r_i_glide_einternal>  (150) 
2.86357

>  <r_i_glide_intrahb_reward>  (150) 
-0

>  <i_i_glide_confnum>  (150) 
4

>  <i_i_glide_posenum>  (150) 
40

>  <r_i_glide_eff_state_penalty>  (150) 
0

>  <ligand_id>  (150) 
40

>  <original_smiles>  (150) 
COC12C3Oc4c(O)ccc5c4C1(CCN(C)C3C1CCCC1)C21CCN(C)C1C5

>  <smiles>  (150) 
[H]Oc1c([H])c([H])c2c3c1OC1([H])C([H])(C4([H])C([H])([H])C([H])([H])C([H])([H])C4([H])[H])N(C([H])([H])[H])C([H])([H])C([H])([H])C34C1(OC([H])([H])[H])C41C([H])([H])C([H])([H])[N+]([H])(C([H])([H])[H])C1([H])C2([H])[H]

$$$$
40:1:2
     RDKit          3D

 65 71  0  0  1  0  0  0  0  0999 V2000
    1.3808   -6.0761    0.2045 C   0  0  0  0  0  0  0  0  0  0  0  0
    1.9110   -5.2258    1.2027 O   0  0  0  0  0  0  0  0  0  0  0  0
    3.2058   -5.5989    1.6354 C   0  0  1  0  0  0  0  0  0  0  0  0
    3.0916   -6.7455    2.6841 C   0  0  2  0  0  0  0  0  0  0  0  0
    2.9570   -6.3605    4.0810 O   0  0  0  0  0  0  0  0  0  0  0  0
    2.4954   -5.0504    4.2778 C   0  0  0  0  0  0  0  0  0  0  0  0
    1.4227   -4.7036    5.1269 C   0  0  0  0  0  0  0  0  0  0  0  0
    0.8743   -5.6247    5.9544 O   0  0  0  0  0  0  0  0  0  0  0  0
    0.8583   -3.4018    5.0694 C   0  0  0  0  0  0  0  0  0  0  0  0
    1.2704   -2.4768    4.0991 C   0  0  0  0  0  0  0  0  0  0  0  0
    2.3370   -2.8231    3.2271 C   0  0  0  0  0  0  0  0  0  0  0  0
    2.9716   -4.0685    3.4415 C   0  0  0  0  0  0  0  0  0  0  0  0
    3.9888   -4.6679    2.5425 C   0  0  1  0  0  0  0  0  0  0  0  0
    5.3130   -4.9961    3.2288 C   0  0  0  0  0  0  0  0  0  0  0  0
    6.0472   -6.2894    2.7534 C   0  0  0  0  0  0  0  0  0  0  0  0
    5.4320   -7.5276    3.2321 N   0  0  0  0  0  0  0  0  0  0  0  0
    6.4565   -8.5764    3.1679 C   0  0  0  0  0  0  0  0  0  0  0  0
    4.1664   -7.8717    2.5317 C   0  0  1  0  0  0  0  0  0  0  0  0
    3.5878   -9.2425    3.0319 C   0  0  0  0  0  0  0  0  0  0  0  0
    2.4076   -9.8108    2.1920 C   0  0  0  0  0  0  0  0  0  0  0  0
    1.6286  -10.6614    3.1962 C   0  0  0  0  0  0  0  0  0  0  0  0
    1.8246   -9.9892    4.5643 C   0  0  0  0  0  0  0  0  0  0  0  0
    3.2015   -9.3244    4.5508 C   0  0  0  0  0  0  0  0  0  0  0  0
    4.0616   -4.3400    1.1533 C   0  0  1  0  0  0  0  0  0  0  0  0
    5.0811   -4.5796    0.0822 C   0  0  0  0  0  0  0  0  0  0  0  0
    4.6331   -3.6570   -1.0784 C   0  0  0  0  0  0  0  0  0  0  0  0
    3.6282   -2.7119   -0.5099 N   0  0  2  0  0  0  0  0  0  0  0  0
    3.8191   -1.3091   -0.9882 C   0  0  0  0  0  0  0  0  0  0  0  0
    3.7190   -2.8823    0.9676 C   0  0  1  0  0  0  0  0  0  0  0  0
    2.5746   -2.2510    1.8060 C   0  0  0  0  0  0  0  0  0  0  0  0
    0.3533   -5.8386   -0.0358 H   0  0  0  0  0  0  0  0  0  0  0  0
    1.3766   -7.1245    0.4746 H   0  0  0  0  0  0  0  0  0  0  0  0
    1.9679   -5.9299   -0.6825 H   0  0  0  0  0  0  0  0  0  0  0  0
    2.1212   -7.1788    2.4956 H   0  0  0  0  0  0  0  0  0  0  0  0
    1.3022   -6.4698    5.9045 H   0  0  0  0  0  0  0  0  0  0  0  0
    0.0080   -3.1796    5.7154 H   0  0  0  0  0  0  0  0  0  0  0  0
    0.6801   -1.5696    3.9296 H   0  0  0  0  0  0  0  0  0  0  0  0
    5.9782   -4.1381    3.0737 H   0  0  0  0  0  0  0  0  0  0  0  0
    5.1559   -5.0650    4.3142 H   0  0  0  0  0  0  0  0  0  0  0  0
    6.2169   -6.3316    1.6731 H   0  0  0  0  0  0  0  0  0  0  0  0
    7.0570   -6.2193    3.1715 H   0  0  0  0  0  0  0  0  0  0  0  0
    6.1691   -9.4506    3.7473 H   0  0  0  0  0  0  0  0  0  0  0  0
    7.4225   -8.2660    3.5857 H   0  0  0  0  0  0  0  0  0  0  0  0
    6.6321   -8.8846    2.1378 H   0  0  0  0  0  0  0  0  0  0  0  0
    4.4699   -7.9613    1.4839 H   0  0  0  0  0  0  0  0  0  0  0  0
    4.3249  -10.0342    2.8745 H   0  0  0  0  0  0  0  0  0  0  0  0
    1.7027   -9.0791    1.7971 H   0  0  0  0  0  0  0  0  0  0  0  0
    2.7953  -10.3604    1.3197 H   0  0  0  0  0  0  0  0  0  0  0  0
    0.5761  -10.7315    2.9154 H   0  0  0  0  0  0  0  0  0  0  0  0
    2.0485  -11.6651    3.2367 H   0  0  0  0  0  0  0  0  0  0  0  0
    1.0702   -9.2159    4.7097 H   0  0  0  0  0  0  0  0  0  0  0  0
    1.7296  -10.6936    5.3902 H   0  0  0  0  0  0  0  0  0  0  0  0
    3.9523   -9.9257    5.0817 H   0  0  0  0  0  0  0  0  0  0  0  0
    3.1429   -8.3913    5.1228 H   0  0  0  0  0  0  0  0  0  0  0  0
    6.0780   -4.2938    0.4632 H   0  0  0  0  0  0  0  0  0  0  0  0
    5.0673   -5.6354   -0.2195 H   0  0  0  0  0  0  0  0  0  0  0  0
    5.5012   -3.1660   -1.5019 H   0  0  0  0  0  0  0  0  0  0  0  0
    4.1651   -4.2464   -1.8733 H   0  0  0  0  0  0  0  0  0  0  0  0
    4.7860   -0.8942   -0.7315 H   0  0  0  0  0  0  0  0  0  0  0  0
    3.0300   -0.6820   -0.5727 H   0  0  0  0  0  0  0  0  0  0  0  0
    3.7077   -1.3103   -2.0742 H   0  0  0  0  0  0  0  0  0  0  0  0
    4.6191   -2.3854    1.3131 H   0  0  0  0  0  0  0  0  0  0  0  0
    1.6263   -2.3522    1.2762 H   0  0  0  0  0  0  0  0  0  0  0  0
    2.7732   -1.1814    1.9035 H   0  0  0  0  0  0  0  0  0  0  0  0
    2.7319   -3.0051   -0.7868 H   0  0  0  0  0  0  0  0  0  0  0  0
  1  2  1  0
  1 31  1  0
  1 32  1  0
  1 33  1  0
  3  2  1  1
  3 13  1  0
  3 24  1  0
  3  4  1  0
  4 18  1  0
  4  5  1  0
  4 34  1  6
  5  6  1  0
  6 12  2  0
  6  7  1  0
  7  8  1  0
  7  9  2  0
  8 35  1  0
  9 10  1  0
  9 36  1  0
 10 11  2  0
 10 37  1  0
 11 30  1  0
 11 12  1  0
 12 13  1  0
 13 14  1  1
 13 24  1  0
 14 15  1  0
 14 38  1  0
 14 39  1  0
 15 16  1  0
 15 40  1  0
 15 41  1  0
 16 17  1  0
 16 18  1  0
 17 42  1  0
 17 43  1  0
 17 44  1  0
 18 19  1  0
 18 45  1  6
 19 23  1  0
 19 20  1  0
 19 46  1  0
 20 21  1  0
 20 47  1  0
 20 48  1  0
 21 22  1  0
 21 49  1  0
 21 50  1  0
 22 23  1  0
 22 51  1  0
 22 52  1  0
 23 53  1  0
 23 54  1  0
 24 29  1  0
 24 25  1  6
 25 26  1  0
 25 55  1  0
 25 56  1  0
 26 27  1  0
 26 57  1  0
 26 58  1  0
 27 28  1  0
 27 29  1  0
 27 65  1  6
 28 59  1  0
 28 60  1  0
 28 61  1  0
 29 30  1  0
 29 62  1  1
 30 63  1  0
 30 64  1  0
M  CHG  1  27   1
M  END
>  <i_m_ct_stereo_status>  (151) 
1

>  <s_m_source_file>  (151) 
/var/tmp/pbs.5076255.sched01/tmpn9kf4o8v/46f5dlbpu8.sdf

>  <i_m_source_file_index>  (151) 
13

>  <i_lp_mmshare_version>  (151) 
48012

>  <i_f3d_flags>  (151) 
0

>  <s_epik_input>  (151) 
W0NIMl0xW0NIMl1bQ0gyXVtDSDJdW0NIXTFbQ0BIXShOKFtDSDNdKVtDSDJdW0NIMl0yKVtDSF0oQzMoW0NAQF00NVtDQF0yMzYpT1tDSDNdKU9jN2M2YyhbY0hdW2NIXWM3W09IXSlbQ0gyXVtDQEBIXTVOKFtDSDNdKVtDSDJdW0NIMl00

>  <s_epik_cmdline>  (151) 
J2VwaWtfcHl0aG9uJywgJy1waHQnLCAnMi4wJywgJy1waCcsICc3LjAnLCAnLXRuJywgJzgnLCAnLW1hJywgJzIwMCcsICctaW1hZScsICc8aW5maWxlLm1hZT4nLCAnLW9tYWUnLCAnPG91dGZpbGUubWFlPic=

>  <r_lp_tautomer_probability>  (151) 
1

>  <r_epik_Ionization_Penalty>  (151) 
0.971691

>  <r_epik_Ionization_Penalty_Charging>  (151) 
0.0161418

>  <r_epik_Ionization_Penalty_Neutral>  (151) 
0.955549

>  <r_epik_State_Penalty>  (151) 
1.02665

>  <r_epik_Charging_Adjusted_Penalty>  (151) 
1.0428

>  <i_epik_Tot_Q>  (151) 
1

>  <i_epik_Tot_abs_Q>  (151) 
1

>  <s_lp_Force_Field>  (151) 
OPLS3e

>  <r_lp_Energy>  (151) 
123.826

>  <b_lp_Chiralities_Consistent>  (151) 
1

>  <s_lp_Variant>  (151) 
40:0-2

>  <s_i_glide_gridfile>  (151) 
pfpi4k_grid

>  <i_i_glide_lignum>  (151) 
13

>  <i_i_glide_rotatable_bonds>  (151) 
3

>  <r_i_docking_score>  (151) 
-2.29756

>  <r_i_glide_ligand_efficiency>  (151) 
-0.0765852

>  <r_i_glide_ligand_efficiency_sa>  (151) 
-0.237968

>  <r_i_glide_ligand_efficiency_ln>  (151) 
-0.52203

>  <r_i_glide_gscore>  (151) 
-2.29756

>  <r_i_glide_lipo>  (151) 
-0.262946

>  <r_i_glide_hbond>  (151) 
-0.065067

>  <r_i_glide_metal>  (151) 
-0

>  <r_i_glide_rewards>  (151) 
-0.60302

>  <r_i_glide_evdw>  (151) 
-18.6857

>  <r_i_glide_ecoul>  (151) 
-3.48912

>  <r_i_glide_erotb>  (151) 
0.11637

>  <r_i_glide_esite>  (151) 
-0.0252399

>  <r_i_glide_emodel>  (151) 
-23.6484

>  <r_i_glide_energy>  (151) 
-22.1748

>  <r_i_glide_einternal>  (151) 
2.29293

>  <r_i_glide_intrahb_reward>  (151) 
-0

>  <i_i_glide_confnum>  (151) 
1

>  <i_i_glide_posenum>  (151) 
35

>  <r_i_glide_eff_state_penalty>  (151) 
0

>  <ligand_id>  (151) 
40

>  <original_smiles>  (151) 
COC12C3Oc4c(O)ccc5c4C1(CCN(C)C3C1CCCC1)C21CCN(C)C1C5

>  <smiles>  (151) 
[H]Oc1c([H])c([H])c2c3c1OC1([H])C([H])(C4([H])C([H])([H])C([H])([H])C([H])([H])C4([H])[H])N(C([H])([H])[H])C([H])([H])C([H])([H])C34C1(OC([H])([H])[H])C41C([H])([H])C([H])([H])[N+]([H])(C([H])([H])[H])C1([H])C2([H])[H]

$$$$
40:2:0
     RDKit          3D

 65 71  0  0  1  0  0  0  0  0999 V2000
    1.8067   -6.0281    0.9297 C   0  0  0  0  0  0  0  0  0  0  0  0
    3.0429   -5.6881    1.5392 O   0  0  0  0  0  0  0  0  0  0  0  0
    3.1003   -4.3676    2.0623 C   0  0  1  0  0  0  0  0  0  0  0  0
    3.9111   -3.5313    1.0448 C   0  0  2  0  0  0  0  0  0  0  0  0
    5.3763   -3.5839    1.1218 O   0  0  0  0  0  0  0  0  0  0  0  0
    5.9263   -4.6032    1.9101 C   0  0  0  0  0  0  0  0  0  0  0  0
    7.0511   -5.3995    1.5719 C   0  0  0  0  0  0  0  0  0  0  0  0
    7.8431   -5.0780    0.5072 O   0  0  0  0  0  0  0  0  0  0  0  0
    7.3050   -6.6192    2.2804 C   0  0  0  0  0  0  0  0  0  0  0  0
    6.4003   -7.0757    3.2592 C   0  0  0  0  0  0  0  0  0  0  0  0
    5.3006   -6.2739    3.6275 C   0  0  0  0  0  0  0  0  0  0  0  0
    5.1895   -4.9971    3.0182 C   0  0  0  0  0  0  0  0  0  0  0  0
    4.0196   -4.0830    3.2272 C   0  0  1  0  0  0  0  0  0  0  0  0
    4.3930   -2.6687    3.6970 C   0  0  0  0  0  0  0  0  0  0  0  0
    3.5904   -1.4642    3.1352 C   0  0  0  0  0  0  0  0  0  0  0  0
    3.9519   -1.0945    1.7362 N   0  0  2  0  0  0  0  0  0  0  0  0
    3.5253    0.3102    1.4209 C   0  0  0  0  0  0  0  0  0  0  0  0
    3.4412   -2.0919    0.7347 C   0  0  1  0  0  0  0  0  0  0  0  0
    3.8032   -1.7017   -0.7384 C   0  0  0  0  0  0  0  0  0  0  0  0
    3.2488   -2.7104   -1.7696 C   0  0  0  0  0  0  0  0  0  0  0  0
    4.4009   -3.6706   -2.1573 C   0  0  0  0  0  0  0  0  0  0  0  0
    5.6470   -2.7901   -1.9994 C   0  0  0  0  0  0  0  0  0  0  0  0
    5.3156   -1.6133   -1.0370 C   0  0  0  0  0  0  0  0  0  0  0  0
    2.7236   -4.5670    3.5676 C   0  0  1  0  0  0  0  0  0  0  0  0
    1.4600   -3.8918    3.9878 C   0  0  0  0  0  0  0  0  0  0  0  0
    0.6974   -4.9545    4.7840 C   0  0  0  0  0  0  0  0  0  0  0  0
    1.4907   -6.1811    4.6805 N   0  0  0  0  0  0  0  0  0  0  0  0
    1.3107   -7.0182    5.8590 C   0  0  0  0  0  0  0  0  0  0  0  0
    2.8668   -5.7222    4.5236 C   0  0  1  0  0  0  0  0  0  0  0  0
    3.9789   -6.7714    4.2285 C   0  0  0  0  0  0  0  0  0  0  0  0
    1.8092   -7.0319    0.5145 H   0  0  0  0  0  0  0  0  0  0  0  0
    1.5395   -5.3707    0.1068 H   0  0  0  0  0  0  0  0  0  0  0  0
    1.0123   -6.0167    1.6663 H   0  0  0  0  0  0  0  0  0  0  0  0
    3.5831   -4.0830    0.1914 H   0  0  0  0  0  0  0  0  0  0  0  0
    8.5004   -5.7409    0.3362 H   0  0  0  0  0  0  0  0  0  0  0  0
    8.1449   -7.2438    1.9977 H   0  0  0  0  0  0  0  0  0  0  0  0
    6.5025   -8.0850    3.6713 H   0  0  0  0  0  0  0  0  0  0  0  0
    4.2242   -2.6684    4.7638 H   0  0  0  0  0  0  0  0  0  0  0  0
    5.4574   -2.4799    3.5549 H   0  0  0  0  0  0  0  0  0  0  0  0
    2.5040   -1.5377    3.1974 H   0  0  0  0  0  0  0  0  0  0  0  0
    3.8296   -0.6001    3.7469 H   0  0  0  0  0  0  0  0  0  0  0  0
    2.4479    0.3902    1.2703 H   0  0  0  0  0  0  0  0  0  0  0  0
    4.0151    0.7039    0.5280 H   0  0  0  0  0  0  0  0  0  0  0  0
    3.7965    1.0066    2.2092 H   0  0  0  0  0  0  0  0  0  0  0  0
    2.3413   -2.0905    0.8132 H   0  0  0  0  0  0  0  0  0  0  0  0
    3.3506   -0.7520   -1.0012 H   0  0  0  0  0  0  0  0  0  0  0  0
    2.3196   -3.1805   -1.4305 H   0  0  0  0  0  0  0  0  0  0  0  0
    2.9538   -2.1508   -2.6530 H   0  0  0  0  0  0  0  0  0  0  0  0
    4.5603   -4.5443   -1.5270 H   0  0  0  0  0  0  0  0  0  0  0  0
    4.2700   -4.1141   -3.1534 H   0  0  0  0  0  0  0  0  0  0  0  0
    6.4953   -3.3745   -1.6159 H   0  0  0  0  0  0  0  0  0  0  0  0
    5.9028   -2.3970   -2.9865 H   0  0  0  0  0  0  0  0  0  0  0  0
    5.5943   -0.6560   -1.4879 H   0  0  0  0  0  0  0  0  0  0  0  0
    5.9252   -1.6421   -0.1311 H   0  0  0  0  0  0  0  0  0  0  0  0
    1.7177   -3.0439    4.6056 H   0  0  0  0  0  0  0  0  0  0  0  0
    0.9092   -3.5419    3.1162 H   0  0  0  0  0  0  0  0  0  0  0  0
    0.6246   -4.6070    5.8181 H   0  0  0  0  0  0  0  0  0  0  0  0
   -0.3019   -5.1238    4.3785 H   0  0  0  0  0  0  0  0  0  0  0  0
    1.8787   -7.9431    5.7723 H   0  0  0  0  0  0  0  0  0  0  0  0
    0.2622   -7.2883    5.9610 H   0  0  0  0  0  0  0  0  0  0  0  0
    1.6218   -6.5151    6.7755 H   0  0  0  0  0  0  0  0  0  0  0  0
    3.1755   -5.2358    5.4472 H   0  0  0  0  0  0  0  0  0  0  0  0
    3.5747   -7.5463    3.5820 H   0  0  0  0  0  0  0  0  0  0  0  0
    4.2213   -7.2906    5.1448 H   0  0  0  0  0  0  0  0  0  0  0  0
    4.9598   -1.0776    1.6762 H   0  0  0  0  0  0  0  0  0  0  0  0
  1  2  1  0
  1 31  1  0
  1 32  1  0
  1 33  1  0
  3  2  1  6
  3 13  1  0
  3 24  1  0
  3  4  1  0
  4 18  1  0
  4  5  1  0
  4 34  1  6
  5  6  1  0
  6 12  2  0
  6  7  1  0
  7  8  1  0
  7  9  2  0
  8 35  1  0
  9 10  1  0
  9 36  1  0
 10 11  2  0
 10 37  1  0
 11 30  1  0
 11 12  1  0
 12 13  1  0
 13 14  1  1
 13 24  1  0
 14 15  1  0
 14 38  1  0
 14 39  1  0
 15 16  1  0
 15 40  1  0
 15 41  1  0
 16 17  1  0
 16 18  1  0
 16 65  1  1
 17 42  1  0
 17 43  1  0
 17 44  1  0
 18 19  1  0
 18 45  1  6
 19 23  1  0
 19 20  1  0
 19 46  1  0
 20 21  1  0
 20 47  1  0
 20 48  1  0
 21 22  1  0
 21 49  1  0
 21 50  1  0
 22 23  1  0
 22 51  1  0
 22 52  1  0
 23 53  1  0
 23 54  1  0
 24 29  1  0
 24 25  1  1
 25 26  1  0
 25 55  1  0
 25 56  1  0
 26 27  1  0
 26 57  1  0
 26 58  1  0
 27 28  1  0
 27 29  1  0
 28 59  1  0
 28 60  1  0
 28 61  1  0
 29 30  1  0
 29 62  1  1
 30 63  1  0
 30 64  1  0
M  CHG  1  16   1
M  END
>  <i_m_ct_stereo_status>  (152) 
1

>  <s_m_source_file>  (152) 
/var/tmp/pbs.5076255.sched01/tmpn9kf4o8v/46f5dlbpu8.sdf

>  <i_m_source_file_index>  (152) 
14

>  <i_lp_mmshare_version>  (152) 
48012

>  <i_f3d_flags>  (152) 
0

>  <s_epik_input>  (152) 
W0NIMl0xW0NIMl1bQ0gyXVtDSDJdW0NIXTFbQ0BIXShOKFtDSDNdKVtDSDJdW0NIMl0yKVtDSF0oQzMoW0NAQF00NVtDQF0yMzYpT1tDSDNdKU9jN2M2YyhbY0hdW2NIXWM3W09IXSlbQ0gyXVtDQEBIXTVOKFtDSDNdKVtDSDJdW0NIMl00

>  <s_epik_cmdline>  (152) 
J2VwaWtfcHl0aG9uJywgJy1waHQnLCAnMi4wJywgJy1waCcsICc3LjAnLCAnLXRuJywgJzgnLCAnLW1hJywgJzIwMCcsICctaW1hZScsICc8aW5maWxlLm1hZT4nLCAnLW9tYWUnLCAnPG91dGZpbGUubWFlPic=

>  <r_epik_Ionization_Penalty>  (152) 
1.64854

>  <r_epik_Ionization_Penalty_Charging>  (152) 
0.0519878

>  <r_epik_Ionization_Penalty_Neutral>  (152) 
1.59655

>  <r_epik_State_Penalty>  (152) 
1.80871

>  <r_epik_Charging_Adjusted_Penalty>  (152) 
1.8607

>  <i_epik_Tot_Q>  (152) 
1

>  <i_epik_Tot_abs_Q>  (152) 
1

>  <s_lp_Force_Field>  (152) 
OPLS3e

>  <r_lp_Energy>  (152) 
125.322

>  <b_lp_Chiralities_Consistent>  (152) 
1

>  <s_lp_Variant>  (152) 
40:0-3

>  <s_i_glide_gridfile>  (152) 
pfpi4k_grid

>  <i_i_glide_lignum>  (152) 
14

>  <i_i_glide_rotatable_bonds>  (152) 
3

>  <r_i_docking_score>  (152) 
-2.32244

>  <r_i_glide_ligand_efficiency>  (152) 
-0.0774147

>  <r_i_glide_ligand_efficiency_sa>  (152) 
-0.240546

>  <r_i_glide_ligand_efficiency_ln>  (152) 
-0.527684

>  <r_i_glide_gscore>  (152) 
-2.32244

>  <r_i_glide_lipo>  (152) 
-0.289161

>  <r_i_glide_hbond>  (152) 
0

>  <r_i_glide_metal>  (152) 
-0

>  <r_i_glide_rewards>  (152) 
-0.60302

>  <r_i_glide_evdw>  (152) 
-22.0651

>  <r_i_glide_ecoul>  (152) 
-2.95233

>  <r_i_glide_erotb>  (152) 
0.11637

>  <r_i_glide_esite>  (152) 
-0.000527238

>  <r_i_glide_emodel>  (152) 
-26.7569

>  <r_i_glide_energy>  (152) 
-25.0174

>  <r_i_glide_einternal>  (152) 
0.132756

>  <r_i_glide_intrahb_reward>  (152) 
-0

>  <i_i_glide_confnum>  (152) 
3

>  <i_i_glide_posenum>  (152) 
2

>  <r_i_glide_eff_state_penalty>  (152) 
0

>  <ligand_id>  (152) 
40

>  <original_smiles>  (152) 
COC12C3Oc4c(O)ccc5c4C1(CCN(C)C3C1CCCC1)C21CCN(C)C1C5

>  <smiles>  (152) 
[H]Oc1c([H])c([H])c2c3c1OC1([H])C4(OC([H])([H])[H])C3(C([H])([H])C([H])([H])[N+]([H])(C([H])([H])[H])C1([H])C1([H])C([H])([H])C([H])([H])C([H])([H])C1([H])[H])C41C([H])([H])C([H])([H])N(C([H])([H])[H])C1([H])C2([H])[H]

$$$$
40:2:1
     RDKit          3D

 65 71  0  0  1  0  0  0  0  0999 V2000
    1.8412   -4.2115   -1.0012 C   0  0  0  0  0  0  0  0  0  0  0  0
    2.3960   -3.8822    0.2640 O   0  0  0  0  0  0  0  0  0  0  0  0
    3.6441   -4.4915    0.5270 C   0  0  1  0  0  0  0  0  0  0  0  0
    3.4030   -5.4709    1.7292 C   0  0  2  0  0  0  0  0  0  0  0  0
    3.5658   -4.9300    3.0837 O   0  0  0  0  0  0  0  0  0  0  0  0
    3.4508   -3.5647    3.1854 C   0  0  0  0  0  0  0  0  0  0  0  0
    2.6590   -2.8512    4.1315 C   0  0  0  0  0  0  0  0  0  0  0  0
    2.0794   -3.5390    5.1613 O   0  0  0  0  0  0  0  0  0  0  0  0
    2.3924   -1.4794    3.9755 C   0  0  0  0  0  0  0  0  0  0  0  0
    2.8308   -0.7895    2.8180 C   0  0  0  0  0  0  0  0  0  0  0  0
    3.6287   -1.4552    1.8780 C   0  0  0  0  0  0  0  0  0  0  0  0
    3.9992   -2.7898    2.1598 C   0  0  0  0  0  0  0  0  0  0  0  0
    4.7194   -3.6924    1.2203 C   0  0  1  0  0  0  0  0  0  0  0  0
    6.0189   -4.2778    1.7957 C   0  0  0  0  0  0  0  0  0  0  0  0
    6.3787   -5.7445    1.4098 C   0  0  0  0  0  0  0  0  0  0  0  0
    5.5679   -6.7789    2.1139 N   0  0  2  0  0  0  0  0  0  0  0  0
    6.2882   -8.0895    2.0751 C   0  0  0  0  0  0  0  0  0  0  0  0
    4.1422   -6.8430    1.6161 C   0  0  1  0  0  0  0  0  0  0  0  0
    3.3258   -7.9805    2.3253 C   0  0  0  0  0  0  0  0  0  0  0  0
    1.9515   -8.3091    1.6885 C   0  0  0  0  0  0  0  0  0  0  0  0
    1.1183   -8.8528    2.8397 C   0  0  0  0  0  0  0  0  0  0  0  0
    1.6304   -8.1499    4.0972 C   0  0  0  0  0  0  0  0  0  0  0  0
    3.1061   -7.8314    3.8628 C   0  0  0  0  0  0  0  0  0  0  0  0
    4.6583   -3.5031   -0.1931 C   0  0  1  0  0  0  0  0  0  0  0  0
    5.4399   -4.0804   -1.3274 C   0  0  0  0  0  0  0  0  0  0  0  0
    5.3428   -3.0423   -2.4531 C   0  0  0  0  0  0  0  0  0  0  0  0
    4.4687   -1.9892   -1.9361 N   0  0  0  0  0  0  0  0  0  0  0  0
    4.7842   -0.6999   -2.5328 C   0  0  0  0  0  0  0  0  0  0  0  0
    4.6526   -2.0229   -0.4915 C   0  0  1  0  0  0  0  0  0  0  0  0
    3.7569   -1.1085    0.3843 C   0  0  0  0  0  0  0  0  0  0  0  0
    0.8812   -3.7174   -1.1252 H   0  0  0  0  0  0  0  0  0  0  0  0
    1.6549   -5.2809   -1.0734 H   0  0  0  0  0  0  0  0  0  0  0  0
    2.4612   -3.8683   -1.8274 H   0  0  0  0  0  0  0  0  0  0  0  0
    2.3278   -5.6462    1.6840 H   0  0  0  0  0  0  0  0  0  0  0  0
    2.3156   -4.4506    5.1899 H   0  0  0  0  0  0  0  0  0  0  0  0
    1.7500   -0.9765    4.6970 H   0  0  0  0  0  0  0  0  0  0  0  0
    2.4484    0.2173    2.6223 H   0  0  0  0  0  0  0  0  0  0  0  0
    6.8243   -3.6329    1.4320 H   0  0  0  0  0  0  0  0  0  0  0  0
    6.0297   -4.1795    2.8863 H   0  0  0  0  0  0  0  0  0  0  0  0
    6.3836   -5.9277    0.3397 H   0  0  0  0  0  0  0  0  0  0  0  0
    7.4185   -5.8728    1.7054 H   0  0  0  0  0  0  0  0  0  0  0  0
    6.2299   -8.5575    1.0941 H   0  0  0  0  0  0  0  0  0  0  0  0
    5.8937   -8.7921    2.8073 H   0  0  0  0  0  0  0  0  0  0  0  0
    7.3475   -7.9981    2.3283 H   0  0  0  0  0  0  0  0  0  0  0  0
    4.2090   -7.0988    0.5557 H   0  0  0  0  0  0  0  0  0  0  0  0
    3.8271   -8.9387    2.1913 H   0  0  0  0  0  0  0  0  0  0  0  0
    1.4163   -7.4583    1.2739 H   0  0  0  0  0  0  0  0  0  0  0  0
    2.0631   -9.0387    0.8782 H   0  0  0  0  0  0  0  0  0  0  0  0
    0.0520   -8.6953    2.6677 H   0  0  0  0  0  0  0  0  0  0  0  0
    1.3018   -9.9196    2.9287 H   0  0  0  0  0  0  0  0  0  0  0  0
    1.0858   -7.2167    4.2378 H   0  0  0  0  0  0  0  0  0  0  0  0
    1.4946   -8.7535    4.9921 H   0  0  0  0  0  0  0  0  0  0  0  0
    3.7754   -8.5054    4.4088 H   0  0  0  0  0  0  0  0  0  0  0  0
    3.2988   -6.8587    4.3107 H   0  0  0  0  0  0  0  0  0  0  0  0
    6.4705   -4.2084   -1.0101 H   0  0  0  0  0  0  0  0  0  0  0  0
    5.0039   -5.0372   -1.6188 H   0  0  0  0  0  0  0  0  0  0  0  0
    6.3466   -2.6647   -2.6618 H   0  0  0  0  0  0  0  0  0  0  0  0
    4.9309   -3.4743   -3.3681 H   0  0  0  0  0  0  0  0  0  0  0  0
    4.1178    0.0806   -2.1777 H   0  0  0  0  0  0  0  0  0  0  0  0
    4.6676   -0.7571   -3.6148 H   0  0  0  0  0  0  0  0  0  0  0  0
    5.8035   -0.4007   -2.2986 H   0  0  0  0  0  0  0  0  0  0  0  0
    5.6743   -1.7077   -0.2822 H   0  0  0  0  0  0  0  0  0  0  0  0
    2.7434   -1.1121   -0.0131 H   0  0  0  0  0  0  0  0  0  0  0  0
    4.1042   -0.0788    0.3081 H   0  0  0  0  0  0  0  0  0  0  0  0
    5.5481   -6.5059    3.0790 H   0  0  0  0  0  0  0  0  0  0  0  0
  1  2  1  0
  1 31  1  0
  1 32  1  0
  1 33  1  0
  3  2  1  1
  3 13  1  0
  3 24  1  0
  3  4  1  0
  4 18  1  0
  4  5  1  0
  4 34  1  1
  5  6  1  0
  6 12  2  0
  6  7  1  0
  7  8  1  0
  7  9  2  0
  8 35  1  0
  9 10  1  0
  9 36  1  0
 10 11  2  0
 10 37  1  0
 11 30  1  0
 11 12  1  0
 12 13  1  0
 13 14  1  1
 13 24  1  0
 14 15  1  0
 14 38  1  0
 14 39  1  0
 15 16  1  0
 15 40  1  0
 15 41  1  0
 16 17  1  0
 16 18  1  0
 16 65  1  1
 17 42  1  0
 17 43  1  0
 17 44  1  0
 18 19  1  0
 18 45  1  6
 19 23  1  0
 19 20  1  0
 19 46  1  0
 20 21  1  0
 20 47  1  0
 20 48  1  0
 21 22  1  0
 21 49  1  0
 21 50  1  0
 22 23  1  0
 22 51  1  0
 22 52  1  0
 23 53  1  0
 23 54  1  0
 24 29  1  0
 24 25  1  6
 25 26  1  0
 25 55  1  0
 25 56  1  0
 26 27  1  0
 26 57  1  0
 26 58  1  0
 27 28  1  0
 27 29  1  0
 28 59  1  0
 28 60  1  0
 28 61  1  0
 29 30  1  0
 29 62  1  6
 30 63  1  0
 30 64  1  0
M  CHG  1  16   1
M  END
>  <i_m_ct_stereo_status>  (153) 
1

>  <s_m_source_file>  (153) 
/var/tmp/pbs.5076255.sched01/tmpn9kf4o8v/46f5dlbpu8.sdf

>  <i_m_source_file_index>  (153) 
14

>  <i_lp_mmshare_version>  (153) 
48012

>  <i_f3d_flags>  (153) 
0

>  <s_epik_input>  (153) 
W0NIMl0xW0NIMl1bQ0gyXVtDSDJdW0NIXTFbQ0BIXShOKFtDSDNdKVtDSDJdW0NIMl0yKVtDSF0oQzMoW0NAQF00NVtDQF0yMzYpT1tDSDNdKU9jN2M2YyhbY0hdW2NIXWM3W09IXSlbQ0gyXVtDQEBIXTVOKFtDSDNdKVtDSDJdW0NIMl00

>  <s_epik_cmdline>  (153) 
J2VwaWtfcHl0aG9uJywgJy1waHQnLCAnMi4wJywgJy1waCcsICc3LjAnLCAnLXRuJywgJzgnLCAnLW1hJywgJzIwMCcsICctaW1hZScsICc8aW5maWxlLm1hZT4nLCAnLW9tYWUnLCAnPG91dGZpbGUubWFlPic=

>  <r_epik_Ionization_Penalty>  (153) 
1.64854

>  <r_epik_Ionization_Penalty_Charging>  (153) 
0.0519878

>  <r_epik_Ionization_Penalty_Neutral>  (153) 
1.59655

>  <r_epik_State_Penalty>  (153) 
1.80871

>  <r_epik_Charging_Adjusted_Penalty>  (153) 
1.8607

>  <i_epik_Tot_Q>  (153) 
1

>  <i_epik_Tot_abs_Q>  (153) 
1

>  <s_lp_Force_Field>  (153) 
OPLS3e

>  <r_lp_Energy>  (153) 
125.322

>  <b_lp_Chiralities_Consistent>  (153) 
1

>  <s_lp_Variant>  (153) 
40:0-3

>  <s_i_glide_gridfile>  (153) 
pfpi4k_grid

>  <i_i_glide_lignum>  (153) 
14

>  <i_i_glide_rotatable_bonds>  (153) 
3

>  <r_i_docking_score>  (153) 
-2.22192

>  <r_i_glide_ligand_efficiency>  (153) 
-0.074064

>  <r_i_glide_ligand_efficiency_sa>  (153) 
-0.230134

>  <r_i_glide_ligand_efficiency_ln>  (153) 
-0.504844

>  <r_i_glide_gscore>  (153) 
-2.22192

>  <r_i_glide_lipo>  (153) 
-0.519499

>  <r_i_glide_hbond>  (153) 
0

>  <r_i_glide_metal>  (153) 
-0

>  <r_i_glide_rewards>  (153) 
-0.60302

>  <r_i_glide_evdw>  (153) 
-21.5327

>  <r_i_glide_ecoul>  (153) 
-0.92756

>  <r_i_glide_erotb>  (153) 
0.11637

>  <r_i_glide_esite>  (153) 
0

>  <r_i_glide_emodel>  (153) 
-24.8617

>  <r_i_glide_energy>  (153) 
-22.4603

>  <r_i_glide_einternal>  (153) 
0.432463

>  <r_i_glide_intrahb_reward>  (153) 
-0

>  <i_i_glide_confnum>  (153) 
1

>  <i_i_glide_posenum>  (153) 
26

>  <r_i_glide_eff_state_penalty>  (153) 
0

>  <ligand_id>  (153) 
40

>  <original_smiles>  (153) 
COC12C3Oc4c(O)ccc5c4C1(CCN(C)C3C1CCCC1)C21CCN(C)C1C5

>  <smiles>  (153) 
[H]Oc1c([H])c([H])c2c3c1OC1([H])C4(OC([H])([H])[H])C3(C([H])([H])C([H])([H])[N+]([H])(C([H])([H])[H])C1([H])C1([H])C([H])([H])C([H])([H])C([H])([H])C1([H])[H])C41C([H])([H])C([H])([H])N(C([H])([H])[H])C1([H])C2([H])[H]

$$$$
40:2:2
     RDKit          3D

 65 71  0  0  1  0  0  0  0  0999 V2000
    1.8014   -5.0537   -0.5401 C   0  0  0  0  0  0  0  0  0  0  0  0
    2.2818   -4.7387    0.7521 O   0  0  0  0  0  0  0  0  0  0  0  0
    3.5827   -5.2597    0.9913 C   0  0  1  0  0  0  0  0  0  0  0  0
    3.3863   -6.3649    2.0857 C   0  0  2  0  0  0  0  0  0  0  0  0
    3.4544   -5.9309    3.4872 O   0  0  0  0  0  0  0  0  0  0  0  0
    3.2315   -4.5930    3.6967 C   0  0  0  0  0  0  0  0  0  0  0  0
    2.3480   -4.0239    4.6622 C   0  0  0  0  0  0  0  0  0  0  0  0
    1.7813   -4.8437    5.5981 O   0  0  0  0  0  0  0  0  0  0  0  0
    1.9838   -2.6693    4.6104 C   0  0  0  0  0  0  0  0  0  0  0  0
    2.4097   -1.8490    3.5346 C   0  0  0  0  0  0  0  0  0  0  0  0
    3.2864   -2.3712    2.5762 C   0  0  0  0  0  0  0  0  0  0  0  0
    3.7551   -3.6913    2.7663 C   0  0  0  0  0  0  0  0  0  0  0  0
    4.5758   -4.4501    1.7870 C   0  0  1  0  0  0  0  0  0  0  0  0
    5.8977   -4.9888    2.3674 C   0  0  0  0  0  0  0  0  0  0  0  0
    6.3870   -6.3855    1.8796 C   0  0  0  0  0  0  0  0  0  0  0  0
    5.6310   -7.5350    2.4554 N   0  0  2  0  0  0  0  0  0  0  0  0
    6.4525   -8.7805    2.3375 C   0  0  0  0  0  0  0  0  0  0  0  0
    4.2366   -7.6616    1.8875 C   0  0  1  0  0  0  0  0  0  0  0  0
    3.4844   -8.9154    2.4568 C   0  0  0  0  0  0  0  0  0  0  0  0
    2.1727   -9.2855    1.7201 C   0  0  0  0  0  0  0  0  0  0  0  0
    1.3348   -9.9926    2.7798 C   0  0  0  0  0  0  0  0  0  0  0  0
    1.7282   -9.3625    4.1181 C   0  0  0  0  0  0  0  0  0  0  0  0
    3.1823   -8.9140    3.9889 C   0  0  0  0  0  0  0  0  0  0  0  0
    4.5490   -4.1459    0.3944 C   0  0  1  0  0  0  0  0  0  0  0  0
    5.4314   -4.5601   -0.7384 C   0  0  0  0  0  0  0  0  0  0  0  0
    5.2978   -3.4420   -1.7820 C   0  0  0  0  0  0  0  0  0  0  0  0
    4.3271   -2.5031   -1.2231 N   0  0  0  0  0  0  0  0  0  0  0  0
    4.5743   -1.1461   -1.6907 C   0  0  0  0  0  0  0  0  0  0  0  0
    4.4491   -2.6487    0.2206 C   0  0  1  0  0  0  0  0  0  0  0  0
    3.4434   -1.8866    1.1213 C   0  0  0  0  0  0  0  0  0  0  0  0
    0.8019   -4.6834   -0.7137 H   0  0  0  0  0  0  0  0  0  0  0  0
    1.7517   -6.1344   -0.6908 H   0  0  0  0  0  0  0  0  0  0  0  0
    2.4087   -4.5616   -1.2904 H   0  0  0  0  0  0  0  0  0  0  0  0
    2.3326   -6.6203    1.9772 H   0  0  0  0  0  0  0  0  0  0  0  0
    2.0711   -5.7390    5.5489 H   0  0  0  0  0  0  0  0  0  0  0  0
    1.2787   -2.2803    5.3442 H   0  0  0  0  0  0  0  0  0  0  0  0
    1.9613   -0.8588    3.4111 H   0  0  0  0  0  0  0  0  0  0  0  0
    6.6628   -4.2609    2.0843 H   0  0  0  0  0  0  0  0  0  0  0  0
    5.8679   -4.9791    3.4628 H   0  0  0  0  0  0  0  0  0  0  0  0
    6.4508   -6.4757    0.7987 H   0  0  0  0  0  0  0  0  0  0  0  0
    7.4226   -6.4630    2.2104 H   0  0  0  0  0  0  0  0  0  0  0  0
    6.4692   -9.1623    1.3168 H   0  0  0  0  0  0  0  0  0  0  0  0
    6.0855   -9.5731    2.9888 H   0  0  0  0  0  0  0  0  0  0  0  0
    7.4916   -8.6332    2.6459 H   0  0  0  0  0  0  0  0  0  0  0  0
    4.3654   -7.8167    0.8122 H   0  0  0  0  0  0  0  0  0  0  0  0
    4.0650   -9.8193    2.2708 H   0  0  0  0  0  0  0  0  0  0  0  0
    1.5898   -8.4419    1.3638 H   0  0  0  0  0  0  0  0  0  0  0  0
    2.3774   -9.8951    0.8319 H   0  0  0  0  0  0  0  0  0  0  0  0
    0.2672   -9.9011    2.5704 H   0  0  0  0  0  0  0  0  0  0  0  0
    1.5979  -11.0456    2.8002 H   0  0  0  0  0  0  0  0  0  0  0  0
    1.1036   -8.4899    4.3070 H   0  0  0  0  0  0  0  0  0  0  0  0
    1.5997  -10.0470    4.9548 H   0  0  0  0  0  0  0  0  0  0  0  0
    3.8778   -9.5772    4.5147 H   0  0  0  0  0  0  0  0  0  0  0  0
    3.2728   -7.9711    4.5251 H   0  0  0  0  0  0  0  0  0  0  0  0
    6.4567   -4.6285   -0.3817 H   0  0  0  0  0  0  0  0  0  0  0  0
    5.0850   -5.5177   -1.1274 H   0  0  0  0  0  0  0  0  0  0  0  0
    6.2748   -2.9707   -1.9125 H   0  0  0  0  0  0  0  0  0  0  0  0
    4.9551   -3.8206   -2.7485 H   0  0  0  0  0  0  0  0  0  0  0  0
    3.8196   -0.4726   -1.2932 H   0  0  0  0  0  0  0  0  0  0  0  0
    4.5144   -1.1082   -2.7779 H   0  0  0  0  0  0  0  0  0  0  0  0
    5.5542   -0.7828   -1.3822 H   0  0  0  0  0  0  0  0  0  0  0  0
    5.4346   -2.2792    0.5046 H   0  0  0  0  0  0  0  0  0  0  0  0
    2.4543   -1.9226    0.6623 H   0  0  0  0  0  0  0  0  0  0  0  0
    3.7161   -0.8328    1.1513 H   0  0  0  0  0  0  0  0  0  0  0  0
    5.5530   -7.3513    3.4386 H   0  0  0  0  0  0  0  0  0  0  0  0
  1  2  1  0
  1 31  1  0
  1 32  1  0
  1 33  1  0
  3  2  1  1
  3 13  1  0
  3 24  1  0
  3  4  1  0
  4 18  1  0
  4  5  1  0
  4 34  1  6
  5  6  1  0
  6 12  2  0
  6  7  1  0
  7  8  1  0
  7  9  2  0
  8 35  1  0
  9 10  1  0
  9 36  1  0
 10 11  2  0
 10 37  1  0
 11 30  1  0
 11 12  1  0
 12 13  1  0
 13 14  1  1
 13 24  1  0
 14 15  1  0
 14 38  1  0
 14 39  1  0
 15 16  1  0
 15 40  1  0
 15 41  1  0
 16 17  1  0
 16 18  1  0
 16 65  1  1
 17 42  1  0
 17 43  1  0
 17 44  1  0
 18 19  1  0
 18 45  1  6
 19 23  1  0
 19 20  1  0
 19 46  1  0
 20 21  1  0
 20 47  1  0
 20 48  1  0
 21 22  1  0
 21 49  1  0
 21 50  1  0
 22 23  1  0
 22 51  1  0
 22 52  1  0
 23 53  1  0
 23 54  1  0
 24 29  1  0
 24 25  1  6
 25 26  1  0
 25 55  1  0
 25 56  1  0
 26 27  1  0
 26 57  1  0
 26 58  1  0
 27 28  1  0
 27 29  1  0
 28 59  1  0
 28 60  1  0
 28 61  1  0
 29 30  1  0
 29 62  1  1
 30 63  1  0
 30 64  1  0
M  CHG  1  16   1
M  END
>  <i_m_ct_stereo_status>  (154) 
1

>  <s_m_source_file>  (154) 
/var/tmp/pbs.5076255.sched01/tmpn9kf4o8v/46f5dlbpu8.sdf

>  <i_m_source_file_index>  (154) 
14

>  <i_lp_mmshare_version>  (154) 
48012

>  <i_f3d_flags>  (154) 
0

>  <s_epik_input>  (154) 
W0NIMl0xW0NIMl1bQ0gyXVtDSDJdW0NIXTFbQ0BIXShOKFtDSDNdKVtDSDJdW0NIMl0yKVtDSF0oQzMoW0NAQF00NVtDQF0yMzYpT1tDSDNdKU9jN2M2YyhbY0hdW2NIXWM3W09IXSlbQ0gyXVtDQEBIXTVOKFtDSDNdKVtDSDJdW0NIMl00

>  <s_epik_cmdline>  (154) 
J2VwaWtfcHl0aG9uJywgJy1waHQnLCAnMi4wJywgJy1waCcsICc3LjAnLCAnLXRuJywgJzgnLCAnLW1hJywgJzIwMCcsICctaW1hZScsICc8aW5maWxlLm1hZT4nLCAnLW9tYWUnLCAnPG91dGZpbGUubWFlPic=

>  <r_epik_Ionization_Penalty>  (154) 
1.64854

>  <r_epik_Ionization_Penalty_Charging>  (154) 
0.0519878

>  <r_epik_Ionization_Penalty_Neutral>  (154) 
1.59655

>  <r_epik_State_Penalty>  (154) 
1.80871

>  <r_epik_Charging_Adjusted_Penalty>  (154) 
1.8607

>  <i_epik_Tot_Q>  (154) 
1

>  <i_epik_Tot_abs_Q>  (154) 
1

>  <s_lp_Force_Field>  (154) 
OPLS3e

>  <r_lp_Energy>  (154) 
125.322

>  <b_lp_Chiralities_Consistent>  (154) 
1

>  <s_lp_Variant>  (154) 
40:0-3

>  <s_i_glide_gridfile>  (154) 
pfpi4k_grid

>  <i_i_glide_lignum>  (154) 
14

>  <i_i_glide_rotatable_bonds>  (154) 
3

>  <r_i_docking_score>  (154) 
-2.11068

>  <r_i_glide_ligand_efficiency>  (154) 
-0.0703558

>  <r_i_glide_ligand_efficiency_sa>  (154) 
-0.218612

>  <r_i_glide_ligand_efficiency_ln>  (154) 
-0.479568

>  <r_i_glide_gscore>  (154) 
-2.11068

>  <r_i_glide_lipo>  (154) 
-0.545986

>  <r_i_glide_hbond>  (154) 
-0.0102707

>  <r_i_glide_metal>  (154) 
-0

>  <r_i_glide_rewards>  (154) 
-0.60302

>  <r_i_glide_evdw>  (154) 
-18.7816

>  <r_i_glide_ecoul>  (154) 
-0.85791

>  <r_i_glide_erotb>  (154) 
0.11637

>  <r_i_glide_esite>  (154) 
0

>  <r_i_glide_emodel>  (154) 
-22.0028

>  <r_i_glide_energy>  (154) 
-19.6396

>  <r_i_glide_einternal>  (154) 
0.293766

>  <r_i_glide_intrahb_reward>  (154) 
-0

>  <i_i_glide_confnum>  (154) 
1

>  <i_i_glide_posenum>  (154) 
1

>  <r_i_glide_eff_state_penalty>  (154) 
0

>  <ligand_id>  (154) 
40

>  <original_smiles>  (154) 
COC12C3Oc4c(O)ccc5c4C1(CCN(C)C3C1CCCC1)C21CCN(C)C1C5

>  <smiles>  (154) 
[H]Oc1c([H])c([H])c2c3c1OC1([H])C4(OC([H])([H])[H])C3(C([H])([H])C([H])([H])[N+]([H])(C([H])([H])[H])C1([H])C1([H])C([H])([H])C([H])([H])C([H])([H])C1([H])[H])C41C([H])([H])C([H])([H])N(C([H])([H])[H])C1([H])C2([H])[H]

$$$$
41:0:0
     RDKit          3D

 43 45  0  0  1  0  0  0  0  0999 V2000
    3.3908   -2.4605    3.6744 C   0  0  0  0  0  0  0  0  0  0  0  0
    4.3657   -2.7728    2.5164 C   0  0  2  0  0  0  0  0  0  0  0  0
    5.3121   -1.6010    2.2565 C   0  0  0  0  0  0  0  0  0  0  0  0
    5.2629   -0.5398    2.8740 O   0  0  0  0  0  0  0  0  0  0  0  0
    6.3598   -1.8570    1.1924 C   0  0  0  0  0  0  0  0  0  0  0  0
    5.7144   -2.2676   -0.1387 C   0  0  2  0  0  0  0  0  0  0  0  0
    5.1568   -1.0549   -0.8925 C   0  0  0  0  0  0  0  0  0  0  0  0
    3.7947   -1.4573   -1.4287 C   0  0  0  0  0  0  0  0  0  0  0  0
    3.7808   -2.9874   -1.4266 C   0  0  0  0  0  0  0  0  0  0  0  0
    2.3089   -3.4563   -1.5193 C   0  0  0  0  0  0  0  0  0  0  0  0
    4.5081   -3.4395   -2.7269 C   0  0  0  0  0  0  0  0  0  0  0  0
    4.5660   -3.3338   -0.0891 C   0  0  1  0  0  0  0  0  0  0  0  0
    5.0540   -4.8191   -0.0457 C   0  0  1  0  0  0  0  0  0  0  0  0
    6.3646   -5.0995    0.7159 C   0  0  0  0  0  0  0  0  0  0  0  0
    3.9001   -5.6110    0.5784 C   0  0  0  0  0  0  0  0  0  0  0  0
    3.0490   -4.6211    1.3786 C   0  0  0  0  0  0  0  0  0  0  0  0
    3.6614   -3.2111    1.1991 C   0  0  1  0  0  0  0  0  0  0  0  0
    3.9419   -2.2315    4.5896 H   0  0  0  0  0  0  0  0  0  0  0  0
    2.7391   -3.3005    3.9113 H   0  0  0  0  0  0  0  0  0  0  0  0
    2.7560   -1.6006    3.4536 H   0  0  0  0  0  0  0  0  0  0  0  0
    4.9968   -3.5903    2.8546 H   0  0  0  0  0  0  0  0  0  0  0  0
    6.9765   -0.9664    1.0707 H   0  0  0  0  0  0  0  0  0  0  0  0
    7.0172   -2.6400    1.5588 H   0  0  0  0  0  0  0  0  0  0  0  0
    6.5131   -2.6646   -0.7636 H   0  0  0  0  0  0  0  0  0  0  0  0
    5.0492   -0.1773   -0.2535 H   0  0  0  0  0  0  0  0  0  0  0  0
    5.8153   -0.7854   -1.7196 H   0  0  0  0  0  0  0  0  0  0  0  0
    3.0256   -1.0663   -0.7588 H   0  0  0  0  0  0  0  0  0  0  0  0
    3.6035   -1.0193   -2.4099 H   0  0  0  0  0  0  0  0  0  0  0  0
    2.1919   -4.5345   -1.4685 H   0  0  0  0  0  0  0  0  0  0  0  0
    1.8634   -3.1258   -2.4563 H   0  0  0  0  0  0  0  0  0  0  0  0
    1.6914   -3.0591   -0.7254 H   0  0  0  0  0  0  0  0  0  0  0  0
    4.4172   -4.5045   -2.9048 H   0  0  0  0  0  0  0  0  0  0  0  0
    5.5737   -3.2111   -2.7280 H   0  0  0  0  0  0  0  0  0  0  0  0
    4.0721   -2.9550   -3.6003 H   0  0  0  0  0  0  0  0  0  0  0  0
    5.2295   -5.2125   -1.0439 H   0  0  0  0  0  0  0  0  0  0  0  0
    6.3100   -4.8198    1.7643 H   0  0  0  0  0  0  0  0  0  0  0  0
    7.2139   -4.5869    0.2660 H   0  0  0  0  0  0  0  0  0  0  0  0
    6.5975   -6.1644    0.6865 H   0  0  0  0  0  0  0  0  0  0  0  0
    3.2951   -6.0618   -0.2071 H   0  0  0  0  0  0  0  0  0  0  0  0
    4.2528   -6.4339    1.2006 H   0  0  0  0  0  0  0  0  0  0  0  0
    2.0252   -4.6441    1.0058 H   0  0  0  0  0  0  0  0  0  0  0  0
    2.9957   -4.9303    2.4233 H   0  0  0  0  0  0  0  0  0  0  0  0
    2.8635   -2.4856    1.0441 H   0  0  0  0  0  0  0  0  0  0  0  0
  1  2  1  0
  1 18  1  0
  1 19  1  0
  1 20  1  0
  2 17  1  0
  2  3  1  0
  2 21  1  1
  3  4  2  0
  3  5  1  0
  5  6  1  0
  5 22  1  0
  5 23  1  0
  6 12  1  0
  6  7  1  0
  6 24  1  6
  7  8  1  0
  7 25  1  0
  7 26  1  0
  8  9  1  0
  8 27  1  0
  8 28  1  0
  9 10  1  0
  9 11  1  0
 12  9  1  6
 10 29  1  0
 10 30  1  0
 10 31  1  0
 11 32  1  0
 11 33  1  0
 11 34  1  0
 12 17  1  0
 12 13  1  0
 13 14  1  0
 13 15  1  0
 13 35  1  6
 14 36  1  0
 14 37  1  0
 14 38  1  0
 15 16  1  0
 15 39  1  0
 15 40  1  0
 16 17  1  0
 16 41  1  0
 16 42  1  0
 17 43  1  6
M  END
>  <i_m_ct_stereo_status>  (155) 
1

>  <s_m_source_file>  (155) 
/var/tmp/pbs.5076255.sched01/tmpn9kf4o8v/46f5dlbpu8.sdf

>  <i_m_source_file_index>  (155) 
15

>  <i_lp_mmshare_version>  (155) 
48012

>  <i_f3d_flags>  (155) 
0

>  <s_epik_input>  (155) 
W0NIM11bQ0BIXTFbQ0gyXVtDSDJdW0NASF0yW0NASF0oW0NIM10pQyg9TylbQ0gyXVtDQEBIXShbQ0BAXTEyMylbQ0gyXVtDSDJdQzMoW0NIM10pW0NIM10=

>  <s_epik_cmdline>  (155) 
J2VwaWtfcHl0aG9uJywgJy1waHQnLCAnMi4wJywgJy1waCcsICc3LjAnLCAnLXRuJywgJzgnLCAnLW1hJywgJzIwMCcsICctaW1hZScsICc8aW5maWxlLm1hZT4nLCAnLW9tYWUnLCAnPG91dGZpbGUubWFlPic=

>  <r_lp_tautomer_probability>  (155) 
1

>  <r_epik_Ionization_Penalty>  (155) 
8.91965e-14

>  <r_epik_Ionization_Penalty_Charging>  (155) 
0

>  <r_epik_Ionization_Penalty_Neutral>  (155) 
8.91965e-14

>  <r_epik_State_Penalty>  (155) 
-0

>  <r_epik_Charging_Adjusted_Penalty>  (155) 
0

>  <i_epik_Tot_Q>  (155) 
0

>  <i_epik_Tot_abs_Q>  (155) 
0

>  <s_lp_Force_Field>  (155) 
OPLS3e

>  <r_lp_Energy>  (155) 
26.9725

>  <b_lp_Chiralities_Consistent>  (155) 
1

>  <s_lp_Variant>  (155) 
41:0-1

>  <s_i_glide_gridfile>  (155) 
pfpi4k_grid

>  <i_i_glide_lignum>  (155) 
15

>  <i_i_glide_rotatable_bonds>  (155) 
0

>  <r_i_docking_score>  (155) 
-3.49394

>  <r_i_glide_ligand_efficiency>  (155) 
-0.205526

>  <r_i_glide_ligand_efficiency_sa>  (155) 
-0.528465

>  <r_i_glide_ligand_efficiency_ln>  (155) 
-0.911492

>  <r_i_glide_gscore>  (155) 
-3.49394

>  <r_i_glide_lipo>  (155) 
-0.459988

>  <r_i_glide_hbond>  (155) 
0

>  <r_i_glide_metal>  (155) 
-0

>  <r_i_glide_rewards>  (155) 
-1.94448

>  <r_i_glide_evdw>  (155) 
-20.1095

>  <r_i_glide_ecoul>  (155) 
-0.560027

>  <r_i_glide_erotb>  (155) 
0

>  <r_i_glide_esite>  (155) 
0

>  <r_i_glide_emodel>  (155) 
-24.6918

>  <r_i_glide_energy>  (155) 
-20.6695

>  <r_i_glide_einternal>  (155) 
0

>  <r_i_glide_intrahb_reward>  (155) 
-0

>  <i_i_glide_confnum>  (155) 
1

>  <i_i_glide_posenum>  (155) 
2

>  <r_i_glide_eff_state_penalty>  (155) 
0

>  <ligand_id>  (155) 
41

>  <original_smiles>  (155) 
CC1C(=O)CC2CCC(C)(C)C23C(C)CCC13

>  <smiles>  (155) 
[H]C([H])([H])C1([H])C(=O)C([H])([H])C2([H])C([H])([H])C([H])([H])C(C([H])([H])[H])(C([H])([H])[H])C23C([H])(C([H])([H])[H])C([H])([H])C([H])([H])C13[H]

$$$$
41:0:1
     RDKit          3D

 43 45  0  0  1  0  0  0  0  0999 V2000
    5.9364   -5.5940    2.2528 C   0  0  0  0  0  0  0  0  0  0  0  0
    5.1908   -4.2968    1.8640 C   0  0  2  0  0  0  0  0  0  0  0  0
    3.6822   -4.5234    1.8168 C   0  0  0  0  0  0  0  0  0  0  0  0
    3.1481   -5.6167    2.0004 O   0  0  0  0  0  0  0  0  0  0  0  0
    2.8652   -3.2793    1.5327 C   0  0  0  0  0  0  0  0  0  0  0  0
    3.2928   -2.6291    0.2062 C   0  0  2  0  0  0  0  0  0  0  0  0
    2.7220   -3.3734   -1.0160 C   0  0  0  0  0  0  0  0  0  0  0  0
    3.8565   -3.4543   -2.0274 C   0  0  0  0  0  0  0  0  0  0  0  0
    4.8708   -2.3882   -1.6215 C   0  0  0  0  0  0  0  0  0  0  0  0
    6.2167   -2.7169   -2.3014 C   0  0  0  0  0  0  0  0  0  0  0  0
    4.3902   -1.0384   -2.2153 C   0  0  0  0  0  0  0  0  0  0  0  0
    4.8317   -2.4509   -0.0385 C   0  0  1  0  0  0  0  0  0  0  0  0
    5.4693   -1.1882    0.6364 C   0  0  1  0  0  0  0  0  0  0  0  0
    4.8820   -0.7487    1.9918 C   0  0  0  0  0  0  0  0  0  0  0  0
    6.9573   -1.5180    0.7833 C   0  0  0  0  0  0  0  0  0  0  0  0
    7.0941   -3.0472    0.7511 C   0  0  0  0  0  0  0  0  0  0  0  0
    5.6879   -3.6435    0.5419 C   0  0  1  0  0  0  0  0  0  0  0  0
    5.5892   -5.9625    3.2203 H   0  0  0  0  0  0  0  0  0  0  0  0
    7.0105   -5.4455    2.3468 H   0  0  0  0  0  0  0  0  0  0  0  0
    5.7752   -6.3887    1.5225 H   0  0  0  0  0  0  0  0  0  0  0  0
    5.3517   -3.5909    2.6762 H   0  0  0  0  0  0  0  0  0  0  0  0
    1.8145   -3.5483    1.5006 H   0  0  0  0  0  0  0  0  0  0  0  0
    2.9891   -2.5903    2.3681 H   0  0  0  0  0  0  0  0  0  0  0  0
    2.8407   -1.6373    0.1928 H   0  0  0  0  0  0  0  0  0  0  0  0
    2.3440   -4.3717   -0.7847 H   0  0  0  0  0  0  0  0  0  0  0  0
    1.8938   -2.8082   -1.4465 H   0  0  0  0  0  0  0  0  0  0  0  0
    4.3150   -4.4437   -1.9577 H   0  0  0  0  0  0  0  0  0  0  0  0
    3.4900   -3.3423   -3.0500 H   0  0  0  0  0  0  0  0  0  0  0  0
    6.9885   -2.0021   -2.0352 H   0  0  0  0  0  0  0  0  0  0  0  0
    6.1051   -2.6887   -3.3818 H   0  0  0  0  0  0  0  0  0  0  0  0
    6.5894   -3.7115   -2.0656 H   0  0  0  0  0  0  0  0  0  0  0  0
    5.1409   -0.2557   -2.1235 H   0  0  0  0  0  0  0  0  0  0  0  0
    3.4754   -0.6719   -1.7466 H   0  0  0  0  0  0  0  0  0  0  0  0
    4.1807   -1.1305   -3.2817 H   0  0  0  0  0  0  0  0  0  0  0  0
    5.3718   -0.3031    0.0128 H   0  0  0  0  0  0  0  0  0  0  0  0
    4.9701   -1.5199    2.7524 H   0  0  0  0  0  0  0  0  0  0  0  0
    3.8344   -0.4625    1.9095 H   0  0  0  0  0  0  0  0  0  0  0  0
    5.4120    0.1242    2.3714 H   0  0  0  0  0  0  0  0  0  0  0  0
    7.5263   -1.0895   -0.0350 H   0  0  0  0  0  0  0  0  0  0  0  0
    7.3801   -1.0703    1.6843 H   0  0  0  0  0  0  0  0  0  0  0  0
    7.7614   -3.3394   -0.0582 H   0  0  0  0  0  0  0  0  0  0  0  0
    7.5569   -3.4203    1.6646 H   0  0  0  0  0  0  0  0  0  0  0  0
    5.7432   -4.4625   -0.1748 H   0  0  0  0  0  0  0  0  0  0  0  0
  1  2  1  0
  1 18  1  0
  1 19  1  0
  1 20  1  0
  2 17  1  0
  2  3  1  0
  2 21  1  1
  3  4  2  0
  3  5  1  0
  5  6  1  0
  5 22  1  0
  5 23  1  0
  6 12  1  0
  6  7  1  0
  6 24  1  1
  7  8  1  0
  7 25  1  0
  7 26  1  0
  8  9  1  0
  8 27  1  0
  8 28  1  0
  9 10  1  0
  9 11  1  0
 12  9  1  6
 10 29  1  0
 10 30  1  0
 10 31  1  0
 11 32  1  0
 11 33  1  0
 11 34  1  0
 12 17  1  0
 12 13  1  0
 13 14  1  0
 13 15  1  0
 13 35  1  6
 14 36  1  0
 14 37  1  0
 14 38  1  0
 15 16  1  0
 15 39  1  0
 15 40  1  0
 16 17  1  0
 16 41  1  0
 16 42  1  0
 17 43  1  6
M  END
>  <i_m_ct_stereo_status>  (156) 
1

>  <s_m_source_file>  (156) 
/var/tmp/pbs.5076255.sched01/tmpn9kf4o8v/46f5dlbpu8.sdf

>  <i_m_source_file_index>  (156) 
15

>  <i_lp_mmshare_version>  (156) 
48012

>  <i_f3d_flags>  (156) 
0

>  <s_epik_input>  (156) 
W0NIM11bQ0BIXTFbQ0gyXVtDSDJdW0NASF0yW0NASF0oW0NIM10pQyg9TylbQ0gyXVtDQEBIXShbQ0BAXTEyMylbQ0gyXVtDSDJdQzMoW0NIM10pW0NIM10=

>  <s_epik_cmdline>  (156) 
J2VwaWtfcHl0aG9uJywgJy1waHQnLCAnMi4wJywgJy1waCcsICc3LjAnLCAnLXRuJywgJzgnLCAnLW1hJywgJzIwMCcsICctaW1hZScsICc8aW5maWxlLm1hZT4nLCAnLW9tYWUnLCAnPG91dGZpbGUubWFlPic=

>  <r_lp_tautomer_probability>  (156) 
1

>  <r_epik_Ionization_Penalty>  (156) 
8.91965e-14

>  <r_epik_Ionization_Penalty_Charging>  (156) 
0

>  <r_epik_Ionization_Penalty_Neutral>  (156) 
8.91965e-14

>  <r_epik_State_Penalty>  (156) 
-0

>  <r_epik_Charging_Adjusted_Penalty>  (156) 
0

>  <i_epik_Tot_Q>  (156) 
0

>  <i_epik_Tot_abs_Q>  (156) 
0

>  <s_lp_Force_Field>  (156) 
OPLS3e

>  <r_lp_Energy>  (156) 
26.9725

>  <b_lp_Chiralities_Consistent>  (156) 
1

>  <s_lp_Variant>  (156) 
41:0-1

>  <s_i_glide_gridfile>  (156) 
pfpi4k_grid

>  <i_i_glide_lignum>  (156) 
15

>  <i_i_glide_rotatable_bonds>  (156) 
0

>  <r_i_docking_score>  (156) 
-3.34694

>  <r_i_glide_ligand_efficiency>  (156) 
-0.196879

>  <r_i_glide_ligand_efficiency_sa>  (156) 
-0.506231

>  <r_i_glide_ligand_efficiency_ln>  (156) 
-0.873143

>  <r_i_glide_gscore>  (156) 
-3.34694

>  <r_i_glide_lipo>  (156) 
-0.478391

>  <r_i_glide_hbond>  (156) 
0

>  <r_i_glide_metal>  (156) 
-0

>  <r_i_glide_rewards>  (156) 
-1.81938

>  <r_i_glide_evdw>  (156) 
-19.9192

>  <r_i_glide_ecoul>  (156) 
-0.354746

>  <r_i_glide_erotb>  (156) 
0

>  <r_i_glide_esite>  (156) 
0

>  <r_i_glide_emodel>  (156) 
-24.128

>  <r_i_glide_energy>  (156) 
-20.2739

>  <r_i_glide_einternal>  (156) 
0

>  <r_i_glide_intrahb_reward>  (156) 
-0

>  <i_i_glide_confnum>  (156) 
1

>  <i_i_glide_posenum>  (156) 
6

>  <r_i_glide_eff_state_penalty>  (156) 
0

>  <ligand_id>  (156) 
41

>  <original_smiles>  (156) 
CC1C(=O)CC2CCC(C)(C)C23C(C)CCC13

>  <smiles>  (156) 
[H]C([H])([H])C1([H])C(=O)C([H])([H])C2([H])C([H])([H])C([H])([H])C(C([H])([H])[H])(C([H])([H])[H])C23C([H])(C([H])([H])[H])C([H])([H])C([H])([H])C13[H]

$$$$
42:0:0
     RDKit          3D

 39 43  0  0  1  0  0  0  0  0999 V2000
    4.2547   -1.9332   -3.1220 C   0  0  0  0  0  0  0  0  0  0  0  0
    3.7325   -2.7492   -1.9461 C   0  0  2  0  0  0  0  0  0  0  0  0
    2.2521   -3.1706   -2.0399 C   0  0  0  0  0  0  0  0  0  0  0  0
    1.8633   -3.8245   -0.8216 O   0  0  0  0  0  0  0  0  0  0  0  0
    2.9832   -4.4947   -0.3484 C   0  0  2  0  0  0  0  0  0  0  0  0
    3.3242   -4.4061    1.3808 O   0  0  0  0  0  0  0  0  0  0  0  0
    5.0757   -4.4113    2.1017 C   0  0  1  0  0  0  0  0  0  0  0  0
    5.3721   -3.1729    2.9317 C   0  0  0  0  0  0  0  0  0  0  0  0
    5.7061   -2.0645    2.2111 C   0  0  0  0  0  0  0  0  0  0  0  0
    5.9881   -2.1256    0.6357 C   0  0  2  0  0  0  0  0  0  0  0  0
    6.1990   -0.6854    0.0842 C   0  0  0  0  0  0  0  0  0  0  0  0
    4.9517   -3.1012    0.3420 C   0  0  0  0  0  0  0  0  0  0  0  0
    5.1470   -4.8936    0.4734 C   0  0  0  0  0  0  0  0  0  0  0  0
    5.6741   -5.5770    1.6348 C   0  0  0  0  0  0  0  0  0  0  0  0
    5.4107   -6.6721    2.1176 O   0  0  0  0  0  0  0  0  0  0  0  0
    3.9964   -2.1945   -0.5606 C   0  0  0  0  0  0  0  0  0  0  0  0
    3.4564   -1.1619   -0.1992 O   0  0  0  0  0  0  0  0  0  0  0  0
    6.3244   -3.2624   -0.4697 C   0  0  1  0  0  0  0  0  0  0  0  0
    7.5532   -2.9580   -1.3553 C   0  0  0  0  0  0  0  0  0  0  0  0
    6.9353   -3.9152    1.2036 C   0  0  0  0  0  0  0  0  0  0  0  0
    4.5227   -3.9259   -1.6085 C   0  0  2  0  0  0  0  0  0  0  0  0
    4.3516   -2.5538   -4.0140 H   0  0  0  0  0  0  0  0  0  0  0  0
    5.2288   -1.5058   -2.8949 H   0  0  0  0  0  0  0  0  0  0  0  0
    3.5646   -1.1191   -3.3402 H   0  0  0  0  0  0  0  0  0  0  0  0
    1.6468   -2.3043   -2.2429 H   0  0  0  0  0  0  0  0  0  0  0  0
    2.0694   -3.8130   -2.8992 H   0  0  0  0  0  0  0  0  0  0  0  0
    2.7288   -5.5503   -0.4856 H   0  0  0  0  0  0  0  0  0  0  0  0
    5.2458   -3.1620    3.9975 H   0  0  0  0  0  0  0  0  0  0  0  0
    5.8995   -1.1216    2.7070 H   0  0  0  0  0  0  0  0  0  0  0  0
    5.5306    0.0487    0.5297 H   0  0  0  0  0  0  0  0  0  0  0  0
    6.0996   -0.6134   -0.9952 H   0  0  0  0  0  0  0  0  0  0  0  0
    7.2003   -0.3613    0.3459 H   0  0  0  0  0  0  0  0  0  0  0  0
    4.7651   -5.7260   -0.1118 H   0  0  0  0  0  0  0  0  0  0  0  0
    7.9845   -3.8570   -1.7867 H   0  0  0  0  0  0  0  0  0  0  0  0
    8.3517   -2.4974   -0.7733 H   0  0  0  0  0  0  0  0  0  0  0  0
    7.3199   -2.2845   -2.1734 H   0  0  0  0  0  0  0  0  0  0  0  0
    7.6657   -3.2814    1.6802 H   0  0  0  0  0  0  0  0  0  0  0  0
    7.6441   -4.7336    0.9809 H   0  0  0  0  0  0  0  0  0  0  0  0
    4.6908   -4.6332   -2.4024 H   0  0  0  0  0  0  0  0  0  0  0  0
  2  1  1  6
  1 22  1  0
  1 23  1  0
  1 24  1  0
  2 16  1  0
  2 21  1  0
  2  3  1  0
  3  4  1  0
  3 25  1  0
  3 26  1  0
  4  5  1  0
  5 21  1  0
  5  6  1  0
  5 27  1  6
  7  6  1  6
  7 14  1  0
  7 20  1  0
  7  8  1  0
  8  9  2  0
  8 28  1  0
  9 10  1  0
  9 29  1  0
 10 11  1  6
 10 12  1  0
 10 18  1  0
 11 30  1  0
 11 31  1  0
 11 32  1  0
 12 13  2  0
 12 16  1  0
 13 14  1  0
 13 33  1  0
 14 15  2  0
 16 17  2  0
 18 19  1  6
 18 20  1  0
 18 21  1  0
 19 34  1  0
 19 35  1  0
 19 36  1  0
 20 37  1  0
 20 38  1  0
 21 39  1  6
M  END
>  <i_m_ct_stereo_status>  (157) 
1

>  <s_m_source_file>  (157) 
/var/tmp/pbs.5076255.sched01/tmpn9kf4o8v/46f5dlbpu8.sdf

>  <i_m_source_file_index>  (157) 
16

>  <i_lp_mmshare_version>  (157) 
48012

>  <i_f3d_flags>  (157) 
0

>  <s_epik_input>  (157) 
QzEyM09bQ0BASF00W0NASF01W0NAQF0oW0NIM10pKFtDSDJdTzQpQyg9TylDKD1bQ0hdQzI9TylbQ0BAXShbQ0gzXSkoW0NIXT1bQ0hdMSlbQ0BAXTUoW0NIM10pW0NIMl0z

>  <s_epik_cmdline>  (157) 
J2VwaWtfcHl0aG9uJywgJy1waHQnLCAnMi4wJywgJy1waCcsICc3LjAnLCAnLXRuJywgJzgnLCAnLW1hJywgJzIwMCcsICctaW1hZScsICc8aW5maWxlLm1hZT4nLCAnLW9tYWUnLCAnPG91dGZpbGUubWFlPic=

>  <r_lp_tautomer_probability>  (157) 
1

>  <r_epik_Ionization_Penalty>  (157) 
7.8935e-15

>  <r_epik_Ionization_Penalty_Charging>  (157) 
0

>  <r_epik_Ionization_Penalty_Neutral>  (157) 
7.8935e-15

>  <r_epik_State_Penalty>  (157) 
-0

>  <r_epik_Charging_Adjusted_Penalty>  (157) 
0

>  <i_epik_Tot_Q>  (157) 
0

>  <i_epik_Tot_abs_Q>  (157) 
0

>  <s_epik_Chemistry_Notes>  (157) 
This compound contains an acetal/aminal-like group ( X-CH(R)-Y where X, Y are N, S, or O) that may be acid/base labile, releasing an aldehyde.

>  <s_lp_Force_Field>  (157) 
OPLS3e

>  <r_lp_Energy>  (157) 
1437.25

>  <b_lp_Chiralities_Consistent>  (157) 
1

>  <s_lp_Variant>  (157) 
42:0-1

>  <s_i_glide_gridfile>  (157) 
pfpi4k_grid

>  <i_i_glide_lignum>  (157) 
16

>  <i_i_glide_rotatable_bonds>  (157) 
0

>  <r_i_docking_score>  (157) 
-3.32934

>  <r_i_glide_ligand_efficiency>  (157) 
-0.15854

>  <r_i_glide_ligand_efficiency_sa>  (157) 
-0.4374

>  <r_i_glide_ligand_efficiency_ln>  (157) 
-0.823173

>  <r_i_glide_gscore>  (157) 
-3.32934

>  <r_i_glide_lipo>  (157) 
-0.703551

>  <r_i_glide_hbond>  (157) 
-0.0144363

>  <r_i_glide_metal>  (157) 
-0

>  <r_i_glide_rewards>  (157) 
-1.5349

>  <r_i_glide_evdw>  (157) 
-18.0297

>  <r_i_glide_ecoul>  (157) 
-0.637234

>  <r_i_glide_erotb>  (157) 
0

>  <r_i_glide_esite>  (157) 
-0.0793814

>  <r_i_glide_emodel>  (157) 
-22.6338

>  <r_i_glide_energy>  (157) 
-18.6669

>  <r_i_glide_einternal>  (157) 
0

>  <r_i_glide_intrahb_reward>  (157) 
-0

>  <i_i_glide_confnum>  (157) 
1

>  <i_i_glide_posenum>  (157) 
9

>  <r_i_glide_eff_state_penalty>  (157) 
0

>  <ligand_id>  (157) 
42

>  <original_smiles>  (157) 
CC12COC3OC45C=CC(C)(C(=CC4=O)C1=O)C(C)(C5)C32

>  <smiles>  (157) 
[H]C1=C2C(=O)C3(C([H])([H])[H])C([H])([H])OC4([H])OC5(C1=O)C([H])=C([H])C2(C([H])([H])[H])C(C([H])([H])[H])(C5([H])[H])C43[H]

$$$$
42:0:1
     RDKit          3D

 39 43  0  0  1  0  0  0  0  0999 V2000
    3.5989   -5.9793    4.3736 C   0  0  0  0  0  0  0  0  0  0  0  0
    3.8941   -4.5385    3.9575 C   0  0  2  0  0  0  0  0  0  0  0  0
    3.7541   -3.4742    5.0708 C   0  0  0  0  0  0  0  0  0  0  0  0
    3.9809   -2.1796    4.5077 O   0  0  0  0  0  0  0  0  0  0  0  0
    4.9079   -2.3324    3.4809 C   0  0  2  0  0  0  0  0  0  0  0  0
    4.5615   -1.4453    1.9917 O   0  0  0  0  0  0  0  0  0  0  0  0
    4.9903   -2.0833    0.2580 C   0  0  1  0  0  0  0  0  0  0  0  0
    3.7835   -2.2240   -0.6489 C   0  0  0  0  0  0  0  0  0  0  0  0
    3.0439   -3.3563   -0.4602 C   0  0  0  0  0  0  0  0  0  0  0  0
    3.5501   -4.5481    0.4949 C   0  0  2  0  0  0  0  0  0  0  0  0
    2.4447   -5.6409    0.6331 C   0  0  0  0  0  0  0  0  0  0  0  0
    4.1441   -3.6899    1.4997 C   0  0  0  0  0  0  0  0  0  0  0  0
    5.8316   -3.0096    1.4218 C   0  0  0  0  0  0  0  0  0  0  0  0
    6.3538   -2.2972    0.2694 C   0  0  0  0  0  0  0  0  0  0  0  0
    7.1494   -1.3779    0.1357 O   0  0  0  0  0  0  0  0  0  0  0  0
    3.1848   -4.0236    2.7307 C   0  0  0  0  0  0  0  0  0  0  0  0
    1.9729   -3.8445    2.7671 O   0  0  0  0  0  0  0  0  0  0  0  0
    4.9415   -5.0160    1.1543 C   0  0  1  0  0  0  0  0  0  0  0  0
    5.2953   -6.4969    0.9422 C   0  0  0  0  0  0  0  0  0  0  0  0
    5.3688   -4.0444   -0.4330 C   0  0  0  0  0  0  0  0  0  0  0  0
    5.1869   -4.3495    3.2809 C   0  0  2  0  0  0  0  0  0  0  0  0
    4.3942   -6.3656    5.0095 H   0  0  0  0  0  0  0  0  0  0  0  0
    3.5051   -6.6310    3.5103 H   0  0  0  0  0  0  0  0  0  0  0  0
    2.6666   -6.0077    4.9326 H   0  0  0  0  0  0  0  0  0  0  0  0
    2.7686   -3.4943    5.5320 H   0  0  0  0  0  0  0  0  0  0  0  0
    4.4731   -3.6691    5.8626 H   0  0  0  0  0  0  0  0  0  0  0  0
    5.8128   -1.8470    3.8720 H   0  0  0  0  0  0  0  0  0  0  0  0
    3.5098   -1.4406   -1.3288 H   0  0  0  0  0  0  0  0  0  0  0  0
    2.1566   -3.5415   -1.0523 H   0  0  0  0  0  0  0  0  0  0  0  0
    1.4482   -5.2092    0.6951 H   0  0  0  0  0  0  0  0  0  0  0  0
    2.5787   -6.3396    1.4590 H   0  0  0  0  0  0  0  0  0  0  0  0
    2.4352   -6.2341   -0.2806 H   0  0  0  0  0  0  0  0  0  0  0  0
    6.5824   -2.7979    2.1672 H   0  0  0  0  0  0  0  0  0  0  0  0
    6.3671   -6.6881    1.0368 H   0  0  0  0  0  0  0  0  0  0  0  0
    4.9994   -6.8067   -0.0664 H   0  0  0  0  0  0  0  0  0  0  0  0
    4.7737   -7.1664    1.6332 H   0  0  0  0  0  0  0  0  0  0  0  0
    4.9339   -4.3822   -1.3817 H   0  0  0  0  0  0  0  0  0  0  0  0
    6.4130   -4.3268   -0.6695 H   0  0  0  0  0  0  0  0  0  0  0  0
    6.0638   -4.6778    3.8076 H   0  0  0  0  0  0  0  0  0  0  0  0
  2  1  1  1
  1 22  1  0
  1 23  1  0
  1 24  1  0
  2 16  1  0
  2 21  1  0
  2  3  1  0
  3  4  1  0
  3 25  1  0
  3 26  1  0
  4  5  1  0
  5 21  1  0
  5  6  1  0
  5 27  1  1
  7  6  1  1
  7 14  1  0
  7 20  1  0
  7  8  1  0
  8  9  2  0
  8 28  1  0
  9 10  1  0
  9 29  1  0
 10 11  1  1
 10 12  1  0
 10 18  1  0
 11 30  1  0
 11 31  1  0
 11 32  1  0
 12 13  2  0
 12 16  1  0
 13 14  1  0
 13 33  1  0
 14 15  2  0
 16 17  2  0
 18 19  1  1
 18 20  1  0
 18 21  1  0
 19 34  1  0
 19 35  1  0
 19 36  1  0
 20 37  1  0
 20 38  1  0
 21 39  1  1
M  END
>  <i_m_ct_stereo_status>  (158) 
1

>  <s_m_source_file>  (158) 
/var/tmp/pbs.5076255.sched01/tmpn9kf4o8v/46f5dlbpu8.sdf

>  <i_m_source_file_index>  (158) 
16

>  <i_lp_mmshare_version>  (158) 
48012

>  <i_f3d_flags>  (158) 
0

>  <s_epik_input>  (158) 
QzEyM09bQ0BASF00W0NASF01W0NAQF0oW0NIM10pKFtDSDJdTzQpQyg9TylDKD1bQ0hdQzI9TylbQ0BAXShbQ0gzXSkoW0NIXT1bQ0hdMSlbQ0BAXTUoW0NIM10pW0NIMl0z

>  <s_epik_cmdline>  (158) 
J2VwaWtfcHl0aG9uJywgJy1waHQnLCAnMi4wJywgJy1waCcsICc3LjAnLCAnLXRuJywgJzgnLCAnLW1hJywgJzIwMCcsICctaW1hZScsICc8aW5maWxlLm1hZT4nLCAnLW9tYWUnLCAnPG91dGZpbGUubWFlPic=

>  <r_lp_tautomer_probability>  (158) 
1

>  <r_epik_Ionization_Penalty>  (158) 
7.8935e-15

>  <r_epik_Ionization_Penalty_Charging>  (158) 
0

>  <r_epik_Ionization_Penalty_Neutral>  (158) 
7.8935e-15

>  <r_epik_State_Penalty>  (158) 
-0

>  <r_epik_Charging_Adjusted_Penalty>  (158) 
0

>  <i_epik_Tot_Q>  (158) 
0

>  <i_epik_Tot_abs_Q>  (158) 
0

>  <s_epik_Chemistry_Notes>  (158) 
This compound contains an acetal/aminal-like group ( X-CH(R)-Y where X, Y are N, S, or O) that may be acid/base labile, releasing an aldehyde.

>  <s_lp_Force_Field>  (158) 
OPLS3e

>  <r_lp_Energy>  (158) 
1437.25

>  <b_lp_Chiralities_Consistent>  (158) 
1

>  <s_lp_Variant>  (158) 
42:0-1

>  <s_i_glide_gridfile>  (158) 
pfpi4k_grid

>  <i_i_glide_lignum>  (158) 
16

>  <i_i_glide_rotatable_bonds>  (158) 
0

>  <r_i_docking_score>  (158) 
-2.81853

>  <r_i_glide_ligand_efficiency>  (158) 
-0.134215

>  <r_i_glide_ligand_efficiency_sa>  (158) 
-0.37029

>  <r_i_glide_ligand_efficiency_ln>  (158) 
-0.696875

>  <r_i_glide_gscore>  (158) 
-2.81853

>  <r_i_glide_lipo>  (158) 
-0.369606

>  <r_i_glide_hbond>  (158) 
-0.0884542

>  <r_i_glide_metal>  (158) 
-0

>  <r_i_glide_rewards>  (158) 
-1.59879

>  <r_i_glide_evdw>  (158) 
-17.9775

>  <r_i_glide_ecoul>  (158) 
0.914644

>  <r_i_glide_erotb>  (158) 
0

>  <r_i_glide_esite>  (158) 
0

>  <r_i_glide_emodel>  (158) 
-20.4511

>  <r_i_glide_energy>  (158) 
-17.0628

>  <r_i_glide_einternal>  (158) 
0

>  <r_i_glide_intrahb_reward>  (158) 
-0

>  <i_i_glide_confnum>  (158) 
2

>  <i_i_glide_posenum>  (158) 
21

>  <r_i_glide_eff_state_penalty>  (158) 
0

>  <ligand_id>  (158) 
42

>  <original_smiles>  (158) 
CC12COC3OC45C=CC(C)(C(=CC4=O)C1=O)C(C)(C5)C32

>  <smiles>  (158) 
[H]C1=C2C(=O)C3(C([H])([H])[H])C([H])([H])OC4([H])OC5(C1=O)C([H])=C([H])C2(C([H])([H])[H])C(C([H])([H])[H])(C5([H])[H])C43[H]

$$$$
42:0:2
     RDKit          3D

 39 43  0  0  1  0  0  0  0  0999 V2000
    2.4839   -4.2606    3.6726 C   0  0  0  0  0  0  0  0  0  0  0  0
    3.2936   -3.0219    3.2896 C   0  0  2  0  0  0  0  0  0  0  0  0
    3.2616   -1.8544    4.3029 C   0  0  0  0  0  0  0  0  0  0  0  0
    3.9872   -0.7478    3.7600 O   0  0  0  0  0  0  0  0  0  0  0  0
    5.0039   -1.2652    2.9724 C   0  0  2  0  0  0  0  0  0  0  0  0
    5.2497   -0.4677    1.4050 O   0  0  0  0  0  0  0  0  0  0  0  0
    5.8119   -1.3837   -0.1667 C   0  0  1  0  0  0  0  0  0  0  0  0
    4.8345   -1.2543   -1.3164 C   0  0  0  0  0  0  0  0  0  0  0  0
    3.7549   -2.0887   -1.2496 C   0  0  0  0  0  0  0  0  0  0  0  0
    3.6650   -3.2814   -0.1727 C   0  0  2  0  0  0  0  0  0  0  0  0
    2.2864   -3.9901   -0.2632 C   0  0  0  0  0  0  0  0  0  0  0  0
    4.2859   -2.5352    0.9226 C   0  0  0  0  0  0  0  0  0  0  0  0
    6.0572   -2.3929    1.1879 C   0  0  0  0  0  0  0  0  0  0  0  0
    7.0032   -1.9984    0.1668 C   0  0  0  0  0  0  0  0  0  0  0  0
    8.0737   -1.4069    0.2156 O   0  0  0  0  0  0  0  0  0  0  0  0
    3.0262   -2.4520    1.9162 C   0  0  0  0  0  0  0  0  0  0  0  0
    1.9611   -1.9065    1.6798 O   0  0  0  0  0  0  0  0  0  0  0  0
    4.6810   -4.0838    0.8003 C   0  0  1  0  0  0  0  0  0  0  0  0
    4.5988   -5.6143    0.7227 C   0  0  0  0  0  0  0  0  0  0  0  0
    5.7040   -3.4345   -0.6784 C   0  0  0  0  0  0  0  0  0  0  0  0
    4.6898   -3.2964    2.9124 C   0  0  2  0  0  0  0  0  0  0  0  0
    2.9738   -4.7999    4.4823 H   0  0  0  0  0  0  0  0  0  0  0  0
    2.3710   -4.9427    2.8304 H   0  0  0  0  0  0  0  0  0  0  0  0
    1.4951   -3.9577    4.0083 H   0  0  0  0  0  0  0  0  0  0  0  0
    2.2468   -1.5395    4.5252 H   0  0  0  0  0  0  0  0  0  0  0  0
    3.7109   -2.1712    5.2383 H   0  0  0  0  0  0  0  0  0  0  0  0
    5.9184   -1.0309    3.5382 H   0  0  0  0  0  0  0  0  0  0  0  0
    4.9512   -0.4934   -2.0600 H   0  0  0  0  0  0  0  0  0  0  0  0
    2.9805   -2.0642   -2.0046 H   0  0  0  0  0  0  0  0  0  0  0  0
    1.5092   -3.2516   -0.4569 H   0  0  0  0  0  0  0  0  0  0  0  0
    2.0254   -4.5840    0.6141 H   0  0  0  0  0  0  0  0  0  0  0  0
    2.2626   -4.6575   -1.1202 H   0  0  0  0  0  0  0  0  0  0  0  0
    6.6742   -2.3433    2.0957 H   0  0  0  0  0  0  0  0  0  0  0  0
    5.5172   -6.0876    1.0686 H   0  0  0  0  0  0  0  0  0  0  0  0
    4.4525   -5.9258   -0.3120 H   0  0  0  0  0  0  0  0  0  0  0  0
    3.7664   -6.0136    1.3008 H   0  0  0  0  0  0  0  0  0  0  0  0
    5.3807   -3.7226   -1.7020 H   0  0  0  0  0  0  0  0  0  0  0  0
    6.6342   -4.0476   -0.6750 H   0  0  0  0  0  0  0  0  0  0  0  0
    5.2996   -3.8071    3.6328 H   0  0  0  0  0  0  0  0  0  0  0  0
  2  1  1  1
  1 22  1  0
  1 23  1  0
  1 24  1  0
  2 16  1  0
  2 21  1  0
  2  3  1  0
  3  4  1  0
  3 25  1  0
  3 26  1  0
  4  5  1  0
  5 21  1  0
  5  6  1  0
  5 27  1  1
  7  6  1  1
  7 14  1  0
  7 20  1  0
  7  8  1  0
  8  9  2  0
  8 28  1  0
  9 10  1  0
  9 29  1  0
 10 11  1  1
 10 12  1  0
 10 18  1  0
 11 30  1  0
 11 31  1  0
 11 32  1  0
 12 13  2  0
 12 16  1  0
 13 14  1  0
 13 33  1  0
 14 15  2  0
 16 17  2  0
 18 19  1  1
 18 20  1  0
 18 21  1  0
 19 34  1  0
 19 35  1  0
 19 36  1  0
 20 37  1  0
 20 38  1  0
 21 39  1  1
M  END
>  <i_m_ct_stereo_status>  (159) 
1

>  <s_m_source_file>  (159) 
/var/tmp/pbs.5076255.sched01/tmpn9kf4o8v/46f5dlbpu8.sdf

>  <i_m_source_file_index>  (159) 
16

>  <i_lp_mmshare_version>  (159) 
48012

>  <i_f3d_flags>  (159) 
0

>  <s_epik_input>  (159) 
QzEyM09bQ0BASF00W0NASF01W0NAQF0oW0NIM10pKFtDSDJdTzQpQyg9TylDKD1bQ0hdQzI9TylbQ0BAXShbQ0gzXSkoW0NIXT1bQ0hdMSlbQ0BAXTUoW0NIM10pW0NIMl0z

>  <s_epik_cmdline>  (159) 
J2VwaWtfcHl0aG9uJywgJy1waHQnLCAnMi4wJywgJy1waCcsICc3LjAnLCAnLXRuJywgJzgnLCAnLW1hJywgJzIwMCcsICctaW1hZScsICc8aW5maWxlLm1hZT4nLCAnLW9tYWUnLCAnPG91dGZpbGUubWFlPic=

>  <r_lp_tautomer_probability>  (159) 
1

>  <r_epik_Ionization_Penalty>  (159) 
7.8935e-15

>  <r_epik_Ionization_Penalty_Charging>  (159) 
0

>  <r_epik_Ionization_Penalty_Neutral>  (159) 
7.8935e-15

>  <r_epik_State_Penalty>  (159) 
-0

>  <r_epik_Charging_Adjusted_Penalty>  (159) 
0

>  <i_epik_Tot_Q>  (159) 
0

>  <i_epik_Tot_abs_Q>  (159) 
0

>  <s_epik_Chemistry_Notes>  (159) 
This compound contains an acetal/aminal-like group ( X-CH(R)-Y where X, Y are N, S, or O) that may be acid/base labile, releasing an aldehyde.

>  <s_lp_Force_Field>  (159) 
OPLS3e

>  <r_lp_Energy>  (159) 
1437.25

>  <b_lp_Chiralities_Consistent>  (159) 
1

>  <s_lp_Variant>  (159) 
42:0-1

>  <s_i_glide_gridfile>  (159) 
pfpi4k_grid

>  <i_i_glide_lignum>  (159) 
16

>  <i_i_glide_rotatable_bonds>  (159) 
0

>  <r_i_docking_score>  (159) 
-2.7677

>  <r_i_glide_ligand_efficiency>  (159) 
-0.131795

>  <r_i_glide_ligand_efficiency_sa>  (159) 
-0.363613

>  <r_i_glide_ligand_efficiency_ln>  (159) 
-0.684309

>  <r_i_glide_gscore>  (159) 
-2.7677

>  <r_i_glide_lipo>  (159) 
-0.341453

>  <r_i_glide_hbond>  (159) 
-0.093325

>  <r_i_glide_metal>  (159) 
-0

>  <r_i_glide_rewards>  (159) 
-1.58058

>  <r_i_glide_evdw>  (159) 
-19.8418

>  <r_i_glide_ecoul>  (159) 
1.71689

>  <r_i_glide_erotb>  (159) 
0

>  <r_i_glide_esite>  (159) 
-0.0177826

>  <r_i_glide_emodel>  (159) 
-21.45

>  <r_i_glide_energy>  (159) 
-18.1249

>  <r_i_glide_einternal>  (159) 
0

>  <r_i_glide_intrahb_reward>  (159) 
-0

>  <i_i_glide_confnum>  (159) 
1

>  <i_i_glide_posenum>  (159) 
28

>  <r_i_glide_eff_state_penalty>  (159) 
0

>  <ligand_id>  (159) 
42

>  <original_smiles>  (159) 
CC12COC3OC45C=CC(C)(C(=CC4=O)C1=O)C(C)(C5)C32

>  <smiles>  (159) 
[H]C1=C2C(=O)C3(C([H])([H])[H])C([H])([H])OC4([H])OC5(C1=O)C([H])=C([H])C2(C([H])([H])[H])C(C([H])([H])[H])(C5([H])[H])C43[H]

$$$$
43:0:0
     RDKit          3D

 68 73  0  0  1  0  0  0  0  0999 V2000
    4.4099   -2.0800   -2.0053 C   0  0  0  0  0  0  0  0  0  0  0  0
    3.9427   -2.5704   -0.6473 C   0  0  0  0  0  0  0  0  0  0  0  0
    3.8380   -3.8690   -0.3492 C   0  0  0  0  0  0  0  0  0  0  0  0
    3.3886   -4.3928    0.9956 C   0  0  0  0  0  0  0  0  0  0  0  0
    3.4308   -3.3931    2.2208 C   0  0  2  0  0  0  0  0  0  0  0  0
    4.8837   -3.1635    2.6471 C   0  0  0  0  0  0  0  0  0  0  0  0
    5.8319   -3.5131    1.9469 O   0  0  0  0  0  0  0  0  0  0  0  0
    5.0406   -2.6919    3.8732 O   0  0  0  0  0  0  0  0  0  0  0  0
    4.3823   -1.5624    4.4208 C   0  0  2  0  0  0  0  0  0  0  0  0
    4.9836   -1.3943    5.8086 C   0  0  0  0  0  0  0  0  0  0  0  0
    4.8284   -2.5953    6.7434 C   0  0  0  0  0  0  0  0  0  0  0  0
    3.4167   -3.1213    7.0721 C   0  0  2  0  0  0  0  0  0  0  0  0
    2.7456   -4.2740    6.2334 C   0  0  1  0  0  0  0  0  0  0  0  0
    2.6357   -5.5450    7.1279 C   0  0  0  0  0  0  0  0  0  0  0  0
    1.4002   -3.8459    6.1528 O   0  0  0  0  0  0  0  0  0  0  0  0
    1.2857   -2.4271    6.2569 C   0  0  2  0  0  0  0  0  0  0  0  0
   -0.1823   -2.0907    6.6620 C   0  0  0  0  0  0  0  0  0  0  0  0
   -1.0073   -3.0294    6.7505 O   0  0  0  0  0  0  0  0  0  0  0  0
   -0.4795   -0.8929    6.8771 O   0  0  0  0  0  0  0  0  0  0  0  0
    1.5466   -1.8732    4.7848 C   0  0  2  0  0  0  0  0  0  0  0  0
    0.7141   -2.7122    3.7729 C   0  0  0  0  0  0  0  0  0  0  0  0
    1.2248   -3.9810    3.4102 O   0  0  0  0  0  0  0  0  0  0  0  0
    2.6298   -4.1569    3.3998 C   0  0  2  0  0  0  0  0  0  0  0  0
    3.1974   -4.7412    4.7854 C   0  0  1  0  0  0  0  0  0  0  0  0
    4.5127   -5.2689    4.7756 O   0  0  0  0  0  0  0  0  0  0  0  0
    2.8689   -1.1859    4.1925 C   0  0  2  0  0  0  0  0  0  0  0  0
    2.6840   -0.8125    2.6925 C   0  0  1  0  0  0  0  0  0  0  0  0
    3.3956    0.5229    2.3421 C   0  0  0  0  0  0  0  0  0  0  0  0
    2.8838   -2.0053    1.6715 C   0  0  1  0  0  0  0  0  0  0  0  0
    3.6276   -1.5069    0.3838 C   0  0  0  0  0  0  0  0  0  0  0  0
    2.2715   -2.1345    7.4331 C   0  0  0  0  0  0  0  0  0  0  0  0
    1.6913   -2.5796    8.8183 C   0  0  0  0  0  0  0  0  0  0  0  0
    2.6064   -0.6399    7.6668 C   0  0  0  0  0  0  0  0  0  0  0  0
    5.2847   -1.4426   -1.8944 H   0  0  0  0  0  0  0  0  0  0  0  0
    3.6259   -1.5087   -2.5002 H   0  0  0  0  0  0  0  0  0  0  0  0
    4.6802   -2.9143   -2.6531 H   0  0  0  0  0  0  0  0  0  0  0  0
    4.0587   -4.6188   -1.1008 H   0  0  0  0  0  0  0  0  0  0  0  0
    2.3720   -4.7577    0.8296 H   0  0  0  0  0  0  0  0  0  0  0  0
    4.0016   -5.2740    1.2056 H   0  0  0  0  0  0  0  0  0  0  0  0
    4.9026   -0.7661    3.8948 H   0  0  0  0  0  0  0  0  0  0  0  0
    6.0581   -1.2621    5.6793 H   0  0  0  0  0  0  0  0  0  0  0  0
    4.6923   -0.4535    6.2571 H   0  0  0  0  0  0  0  0  0  0  0  0
    5.4411   -3.4220    6.3839 H   0  0  0  0  0  0  0  0  0  0  0  0
    5.3040   -2.3059    7.6829 H   0  0  0  0  0  0  0  0  0  0  0  0
    3.6732   -3.6021    8.0173 H   0  0  0  0  0  0  0  0  0  0  0  0
    3.5981   -6.0467    7.2297 H   0  0  0  0  0  0  0  0  0  0  0  0
    1.9244   -6.2654    6.7230 H   0  0  0  0  0  0  0  0  0  0  0  0
    2.2849   -5.3311    8.1365 H   0  0  0  0  0  0  0  0  0  0  0  0
    0.9384   -0.9684    4.7967 H   0  0  0  0  0  0  0  0  0  0  0  0
   -0.2837   -2.9055    4.1640 H   0  0  0  0  0  0  0  0  0  0  0  0
    0.4728   -2.1615    2.8736 H   0  0  0  0  0  0  0  0  0  0  0  0
    2.5441   -5.1413    2.9413 H   0  0  0  0  0  0  0  0  0  0  0  0
    2.6769   -5.6999    4.7671 H   0  0  0  0  0  0  0  0  0  0  0  0
    4.6027   -5.8461    4.0338 H   0  0  0  0  0  0  0  0  0  0  0  0
    2.8316   -0.2154    4.6797 H   0  0  0  0  0  0  0  0  0  0  0  0
    1.6505   -0.4866    2.5734 H   0  0  0  0  0  0  0  0  0  0  0  0
    4.4791    0.4356    2.2782 H   0  0  0  0  0  0  0  0  0  0  0  0
    3.1817    1.2941    3.0841 H   0  0  0  0  0  0  0  0  0  0  0  0
    3.0459    0.9297    1.3918 H   0  0  0  0  0  0  0  0  0  0  0  0
    1.8891   -2.2441    1.2943 H   0  0  0  0  0  0  0  0  0  0  0  0
    4.5839   -1.0468    0.6245 H   0  0  0  0  0  0  0  0  0  0  0  0
    3.0163   -0.7556   -0.1162 H   0  0  0  0  0  0  0  0  0  0  0  0
    0.9054   -1.9125    9.1788 H   0  0  0  0  0  0  0  0  0  0  0  0
    2.4579   -2.5815    9.5943 H   0  0  0  0  0  0  0  0  0  0  0  0
    1.2459   -3.5727    8.7904 H   0  0  0  0  0  0  0  0  0  0  0  0
    1.8223   -0.1319    8.2299 H   0  0  0  0  0  0  0  0  0  0  0  0
    2.6849   -0.0626    6.7546 H   0  0  0  0  0  0  0  0  0  0  0  0
    3.5242   -0.5200    8.2446 H   0  0  0  0  0  0  0  0  0  0  0  0
  1  2  1  0
  1 34  1  0
  1 35  1  0
  1 36  1  0
  2 30  1  0
  2  3  2  0
  3  4  1  0
  3 37  1  0
  5  4  1  6
  4 38  1  0
  4 39  1  0
  5 23  1  0
  5 29  1  0
  5  6  1  0
  6  7  2  0
  6  8  1  0
  8  9  1  0
  9 26  1  0
  9 10  1  0
  9 40  1  6
 10 11  1  0
 10 41  1  0
 10 42  1  0
 11 12  1  0
 11 43  1  0
 11 44  1  0
 12 31  1  0
 12 13  1  0
 12 45  1  1
 13 24  1  0
 13 14  1  1
 13 15  1  0
 14 46  1  0
 14 47  1  0
 14 48  1  0
 15 16  1  0
 16 17  1  1
 16 20  1  0
 16 31  1  0
 17 18  2  0
 17 19  1  0
 20 21  1  0
 20 26  1  0
 20 49  1  1
 21 22  1  0
 21 50  1  0
 21 51  1  0
 22 23  1  0
 23 24  1  0
 23 52  1  6
 24 25  1  0
 24 53  1  1
 25 54  1  0
 26 27  1  0
 26 55  1  1
 27 28  1  0
 27 29  1  0
 27 56  1  1
 28 57  1  0
 28 58  1  0
 28 59  1  0
 29 30  1  0
 29 60  1  6
 30 61  1  0
 30 62  1  0
 31 32  1  0
 31 33  1  0
 32 63  1  0
 32 64  1  0
 32 65  1  0
 33 66  1  0
 33 67  1  0
 33 68  1  0
M  CHG  1  19  -1
M  END
>  <i_m_ct_stereo_status>  (160) 
1

>  <s_m_source_file>  (160) 
/var/tmp/pbs.5076255.sched01/tmpn9kf4o8v/46f5dlbpu8.sdf

>  <i_m_source_file_index>  (160) 
17

>  <i_lp_mmshare_version>  (160) 
48012

>  <i_f3d_flags>  (160) 
0

>  <s_epik_input>  (160) 
W0NIMl0xW0NIXT1DKFtDSDNdKVtDSDJdW0NAQEhdMltDQEhdKFtDSDNdKVtDQEBIXTNbQ0BIXShPQzQ9TylbQ0gyXVtDSDJdW0NAQEhdKEM1KFtDSDNdKVtDSDNdKVtDQF0oW0NIM10pKFtDQEBIXTZbT0hdKU9bQ0BdNShDKD1PKVtPSF0pW0NIXTNbQ0gyXU9bQ0BIXTZbQ0BAXTEyNA==

>  <s_epik_cmdline>  (160) 
J2VwaWtfcHl0aG9uJywgJy1waHQnLCAnMi4wJywgJy1waCcsICc3LjAnLCAnLXRuJywgJzgnLCAnLW1hJywgJzIwMCcsICctaW1hZScsICc8aW5maWxlLm1hZT4nLCAnLW9tYWUnLCAnPG91dGZpbGUubWFlPic=

>  <r_lp_tautomer_probability>  (160) 
1

>  <r_epik_Ionization_Penalty>  (160) 
0.000214537

>  <r_epik_Ionization_Penalty_Charging>  (160) 
0.000214473

>  <r_epik_Ionization_Penalty_Neutral>  (160) 
6.42128e-08

>  <r_epik_State_Penalty>  (160) 
-0

>  <r_epik_Charging_Adjusted_Penalty>  (160) 
0.000214473

>  <i_epik_Tot_Q>  (160) 
-1

>  <i_epik_Tot_abs_Q>  (160) 
1

>  <s_epik_Chemistry_Notes>  (160) 
This compound has an ester and may undergo hydrolysis at high or low pH.

>  <s_lp_Force_Field>  (160) 
OPLS3e

>  <r_lp_Energy>  (160) 
154.678

>  <b_lp_Chiralities_Consistent>  (160) 
1

>  <s_lp_Variant>  (160) 
43:0-1

>  <s_i_glide_gridfile>  (160) 
pfpi4k_grid

>  <i_i_glide_lignum>  (160) 
17

>  <i_i_glide_rotatable_bonds>  (160) 
2

>  <r_i_docking_score>  (160) 
-2.06949

>  <r_i_glide_ligand_efficiency>  (160) 
-0.0627119

>  <r_i_glide_ligand_efficiency_sa>  (160) 
-0.20115

>  <r_i_glide_ligand_efficiency_ln>  (160) 
-0.460244

>  <r_i_glide_gscore>  (160) 
-2.06949

>  <r_i_glide_lipo>  (160) 
-0.1216

>  <r_i_glide_hbond>  (160) 
-0.0167224

>  <r_i_glide_metal>  (160) 
-0

>  <r_i_glide_rewards>  (160) 
-0.330596

>  <r_i_glide_evdw>  (160) 
-21.3191

>  <r_i_glide_ecoul>  (160) 
-3.2887

>  <r_i_glide_erotb>  (160) 
0

>  <r_i_glide_esite>  (160) 
-0.0413129

>  <r_i_glide_emodel>  (160) 
-29.4761

>  <r_i_glide_energy>  (160) 
-24.6078

>  <r_i_glide_einternal>  (160) 
0.451904

>  <r_i_glide_intrahb_reward>  (160) 
-0

>  <i_i_glide_confnum>  (160) 
2

>  <i_i_glide_posenum>  (160) 
13

>  <r_i_glide_eff_state_penalty>  (160) 
0

>  <ligand_id>  (160) 
43

>  <original_smiles>  (160) 
CC1=CCC23C(=O)OC4CCC5C6(C)OC(C(=O)O)(C(COC2C6O)C4C(C)C3C1)C5(C)C

>  <smiles>  (160) 
[H]OC1([H])C2([H])OC([H])([H])C3([H])C4(C(=O)[O-])OC1(C([H])([H])[H])C([H])(C([H])([H])C([H])([H])C1([H])OC(=O)C25C([H])([H])C([H])=C(C([H])([H])[H])C([H])([H])C5([H])C([H])(C([H])([H])[H])C13[H])C4(C([H])([H])[H])C([H])([H])[H]

$$$$
43:0:1
     RDKit          3D

 68 73  0  0  1  0  0  0  0  0999 V2000
    4.2118   -0.3193   -2.9239 C   0  0  0  0  0  0  0  0  0  0  0  0
    4.3021   -1.5518   -2.0739 C   0  0  0  0  0  0  0  0  0  0  0  0
    4.9548   -2.6652   -2.4703 C   0  0  0  0  0  0  0  0  0  0  0  0
    5.0219   -3.9117   -1.6444 C   0  0  0  0  0  0  0  0  0  0  0  0
    4.6251   -3.8471   -0.1273 C   0  0  2  0  0  0  0  0  0  0  0  0
    5.7774   -3.1878    0.6518 C   0  0  0  0  0  0  0  0  0  0  0  0
    6.6891   -2.5765    0.0850 O   0  0  0  0  0  0  0  0  0  0  0  0
    5.7729   -3.4057    1.9616 O   0  0  0  0  0  0  0  0  0  0  0  0
    4.6456   -3.2592    2.8165 C   0  0  2  0  0  0  0  0  0  0  0  0
    5.1472   -3.5770    4.2095 C   0  0  0  0  0  0  0  0  0  0  0  0
    5.7450   -4.9722    4.3786 C   0  0  0  0  0  0  0  0  0  0  0  0
    4.8652   -6.2015    4.1058 C   0  0  2  0  0  0  0  0  0  0  0  0
    4.8444   -6.8894    2.6914 C   0  0  1  0  0  0  0  0  0  0  0  0
    5.5222   -8.2893    2.8110 C   0  0  0  0  0  0  0  0  0  0  0  0
    3.4669   -7.2183    2.5625 O   0  0  0  0  0  0  0  0  0  0  0  0
    2.6277   -6.3287    3.2986 C   0  0  2  0  0  0  0  0  0  0  0  0
    1.2443   -7.0201    3.4986 C   0  0  0  0  0  0  0  0  0  0  0  0
    0.2174   -6.3043    3.6529 O   0  0  0  0  0  0  0  0  0  0  0  0
    1.2028   -8.2712    3.4593 O   0  0  0  0  0  0  0  0  0  0  0  0
    2.4676   -5.0541    2.3490 C   0  0  2  0  0  0  0  0  0  0  0  0
    2.1340   -5.5506    0.9170 C   0  0  0  0  0  0  0  0  0  0  0  0
    3.2007   -5.9851    0.1089 O   0  0  0  0  0  0  0  0  0  0  0  0
    4.4634   -5.3878    0.3171 C   0  0  2  0  0  0  0  0  0  0  0  0
    5.3559   -6.2410    1.3348 C   0  0  1  0  0  0  0  0  0  0  0  0
    6.7446   -5.9648    1.3115 O   0  0  0  0  0  0  0  0  0  0  0  0
    3.1667   -3.6199    2.4734 C   0  0  2  0  0  0  0  0  0  0  0  0
    2.6904   -2.6594    1.3586 C   0  0  1  0  0  0  0  0  0  0  0  0
    2.5387   -1.1991    1.8586 C   0  0  0  0  0  0  0  0  0  0  0  0
    3.3819   -2.8751   -0.0412 C   0  0  1  0  0  0  0  0  0  0  0  0
    3.6419   -1.4975   -0.7365 C   0  0  0  0  0  0  0  0  0  0  0  0
    3.4177   -6.2625    4.6426 C   0  0  0  0  0  0  0  0  0  0  0  0
    3.3108   -7.5699    5.4942 C   0  0  0  0  0  0  0  0  0  0  0  0
    2.9230   -5.1835    5.6344 C   0  0  0  0  0  0  0  0  0  0  0  0
    4.6407    0.5119   -2.3656 H   0  0  0  0  0  0  0  0  0  0  0  0
    3.1931   -0.0576   -3.1988 H   0  0  0  0  0  0  0  0  0  0  0  0
    4.7833   -0.5014   -3.8284 H   0  0  0  0  0  0  0  0  0  0  0  0
    5.4539   -2.7125   -3.4245 H   0  0  0  0  0  0  0  0  0  0  0  0
    4.3581   -4.5949   -2.1743 H   0  0  0  0  0  0  0  0  0  0  0  0
    6.0630   -4.2296   -1.7484 H   0  0  0  0  0  0  0  0  0  0  0  0
    4.6123   -2.1725    2.8652 H   0  0  0  0  0  0  0  0  0  0  0  0
    5.9469   -2.8655    4.4030 H   0  0  0  0  0  0  0  0  0  0  0  0
    4.4321   -3.2974    4.9714 H   0  0  0  0  0  0  0  0  0  0  0  0
    6.6554   -5.0534    3.7920 H   0  0  0  0  0  0  0  0  0  0  0  0
    6.0833   -5.0302    5.4143 H   0  0  0  0  0  0  0  0  0  0  0  0
    5.4248   -6.9045    4.7207 H   0  0  0  0  0  0  0  0  0  0  0  0
    6.6074   -8.2104    2.8715 H   0  0  0  0  0  0  0  0  0  0  0  0
    5.2783   -8.9382    1.9654 H   0  0  0  0  0  0  0  0  0  0  0  0
    5.2046   -8.8419    3.6946 H   0  0  0  0  0  0  0  0  0  0  0  0
    1.4893   -4.6939    2.6389 H   0  0  0  0  0  0  0  0  0  0  0  0
    1.4357   -6.3911    0.9637 H   0  0  0  0  0  0  0  0  0  0  0  0
    1.5657   -4.8287    0.3441 H   0  0  0  0  0  0  0  0  0  0  0  0
    4.8871   -5.8603   -0.5672 H   0  0  0  0  0  0  0  0  0  0  0  0
    5.3897   -7.1566    0.7412 H   0  0  0  0  0  0  0  0  0  0  0  0
    7.2127   -6.7271    1.6272 H   0  0  0  0  0  0  0  0  0  0  0  0
    2.6599   -3.2217    3.3433 H   0  0  0  0  0  0  0  0  0  0  0  0
    1.6494   -2.8809    1.1957 H   0  0  0  0  0  0  0  0  0  0  0  0
    3.4806   -0.6707    1.9911 H   0  0  0  0  0  0  0  0  0  0  0  0
    2.0024   -1.1753    2.8042 H   0  0  0  0  0  0  0  0  0  0  0  0
    1.9280   -0.6114    1.1707 H   0  0  0  0  0  0  0  0  0  0  0  0
    2.6351   -3.3418   -0.6876 H   0  0  0  0  0  0  0  0  0  0  0  0
    4.2359   -0.8306   -0.1075 H   0  0  0  0  0  0  0  0  0  0  0  0
    2.6877   -1.0275   -0.9489 H   0  0  0  0  0  0  0  0  0  0  0  0
    2.3295   -7.6942    5.9540 H   0  0  0  0  0  0  0  0  0  0  0  0
    4.0346   -7.5792    6.3109 H   0  0  0  0  0  0  0  0  0  0  0  0
    3.4773   -8.4715    4.8984 H   0  0  0  0  0  0  0  0  0  0  0  0
    2.0463   -5.5147    6.1840 H   0  0  0  0  0  0  0  0  0  0  0  0
    2.6035   -4.2676    5.1543 H   0  0  0  0  0  0  0  0  0  0  0  0
    3.6893   -4.9562    6.3760 H   0  0  0  0  0  0  0  0  0  0  0  0
  1  2  1  0
  1 34  1  0
  1 35  1  0
  1 36  1  0
  2 30  1  0
  2  3  2  0
  3  4  1  0
  3 37  1  0
  5  4  1  6
  4 38  1  0
  4 39  1  0
  5 23  1  0
  5 29  1  0
  5  6  1  0
  6  7  2  0
  6  8  1  0
  8  9  1  0
  9 26  1  0
  9 10  1  0
  9 40  1  1
 10 11  1  0
 10 41  1  0
 10 42  1  0
 11 12  1  0
 11 43  1  0
 11 44  1  0
 12 31  1  0
 12 13  1  0
 12 45  1  1
 13 24  1  0
 13 14  1  1
 13 15  1  0
 14 46  1  0
 14 47  1  0
 14 48  1  0
 15 16  1  0
 16 17  1  1
 16 20  1  0
 16 31  1  0
 17 18  2  0
 17 19  1  0
 20 21  1  0
 20 26  1  0
 20 49  1  1
 21 22  1  0
 21 50  1  0
 21 51  1  0
 22 23  1  0
 23 24  1  0
 23 52  1  6
 24 25  1  0
 24 53  1  6
 25 54  1  0
 26 27  1  0
 26 55  1  1
 27 28  1  0
 27 29  1  0
 27 56  1  6
 28 57  1  0
 28 58  1  0
 28 59  1  0
 29 30  1  0
 29 60  1  6
 30 61  1  0
 30 62  1  0
 31 32  1  0
 31 33  1  0
 32 63  1  0
 32 64  1  0
 32 65  1  0
 33 66  1  0
 33 67  1  0
 33 68  1  0
M  CHG  1  19  -1
M  END
>  <i_m_ct_stereo_status>  (161) 
1

>  <s_m_source_file>  (161) 
/var/tmp/pbs.5076255.sched01/tmpn9kf4o8v/46f5dlbpu8.sdf

>  <i_m_source_file_index>  (161) 
17

>  <i_lp_mmshare_version>  (161) 
48012

>  <i_f3d_flags>  (161) 
0

>  <s_epik_input>  (161) 
W0NIMl0xW0NIXT1DKFtDSDNdKVtDSDJdW0NAQEhdMltDQEhdKFtDSDNdKVtDQEBIXTNbQ0BIXShPQzQ9TylbQ0gyXVtDSDJdW0NAQEhdKEM1KFtDSDNdKVtDSDNdKVtDQF0oW0NIM10pKFtDQEBIXTZbT0hdKU9bQ0BdNShDKD1PKVtPSF0pW0NIXTNbQ0gyXU9bQ0BIXTZbQ0BAXTEyNA==

>  <s_epik_cmdline>  (161) 
J2VwaWtfcHl0aG9uJywgJy1waHQnLCAnMi4wJywgJy1waCcsICc3LjAnLCAnLXRuJywgJzgnLCAnLW1hJywgJzIwMCcsICctaW1hZScsICc8aW5maWxlLm1hZT4nLCAnLW9tYWUnLCAnPG91dGZpbGUubWFlPic=

>  <r_lp_tautomer_probability>  (161) 
1

>  <r_epik_Ionization_Penalty>  (161) 
0.000214537

>  <r_epik_Ionization_Penalty_Charging>  (161) 
0.000214473

>  <r_epik_Ionization_Penalty_Neutral>  (161) 
6.42128e-08

>  <r_epik_State_Penalty>  (161) 
-0

>  <r_epik_Charging_Adjusted_Penalty>  (161) 
0.000214473

>  <i_epik_Tot_Q>  (161) 
-1

>  <i_epik_Tot_abs_Q>  (161) 
1

>  <s_epik_Chemistry_Notes>  (161) 
This compound has an ester and may undergo hydrolysis at high or low pH.

>  <s_lp_Force_Field>  (161) 
OPLS3e

>  <r_lp_Energy>  (161) 
154.678

>  <b_lp_Chiralities_Consistent>  (161) 
1

>  <s_lp_Variant>  (161) 
43:0-1

>  <s_i_glide_gridfile>  (161) 
pfpi4k_grid

>  <i_i_glide_lignum>  (161) 
17

>  <i_i_glide_rotatable_bonds>  (161) 
2

>  <r_i_docking_score>  (161) 
-2.03881

>  <r_i_glide_ligand_efficiency>  (161) 
-0.061782

>  <r_i_glide_ligand_efficiency_sa>  (161) 
-0.198168

>  <r_i_glide_ligand_efficiency_ln>  (161) 
-0.45342

>  <r_i_glide_gscore>  (161) 
-2.03881

>  <r_i_glide_lipo>  (161) 
-0.560152

>  <r_i_glide_hbond>  (161) 
-0.0214976

>  <r_i_glide_metal>  (161) 
-0

>  <r_i_glide_rewards>  (161) 
-0.361055

>  <r_i_glide_evdw>  (161) 
-21.991

>  <r_i_glide_ecoul>  (161) 
0.12914

>  <r_i_glide_erotb>  (161) 
0

>  <r_i_glide_esite>  (161) 
-0.015922

>  <r_i_glide_emodel>  (161) 
-25.4285

>  <r_i_glide_energy>  (161) 
-21.8619

>  <r_i_glide_einternal>  (161) 
1.61296

>  <r_i_glide_intrahb_reward>  (161) 
-0

>  <i_i_glide_confnum>  (161) 
1

>  <i_i_glide_posenum>  (161) 
23

>  <r_i_glide_eff_state_penalty>  (161) 
0

>  <ligand_id>  (161) 
43

>  <original_smiles>  (161) 
CC1=CCC23C(=O)OC4CCC5C6(C)OC(C(=O)O)(C(COC2C6O)C4C(C)C3C1)C5(C)C

>  <smiles>  (161) 
[H]OC1([H])C2([H])OC([H])([H])C3([H])C4(C(=O)[O-])OC1(C([H])([H])[H])C([H])(C([H])([H])C([H])([H])C1([H])OC(=O)C25C([H])([H])C([H])=C(C([H])([H])[H])C([H])([H])C5([H])C([H])(C([H])([H])[H])C13[H])C4(C([H])([H])[H])C([H])([H])[H]

$$$$
43:0:2
     RDKit          3D

 68 73  0  0  1  0  0  0  0  0999 V2000
    4.3932   -1.1663   -2.5460 C   0  0  0  0  0  0  0  0  0  0  0  0
    4.3808   -2.2461   -1.4823 C   0  0  0  0  0  0  0  0  0  0  0  0
    5.0018   -3.4223   -1.6333 C   0  0  0  0  0  0  0  0  0  0  0  0
    4.9814   -4.5145   -0.5872 C   0  0  0  0  0  0  0  0  0  0  0  0
    4.5496   -4.1269    0.8825 C   0  0  2  0  0  0  0  0  0  0  0  0
    5.6745   -3.3272    1.5457 C   0  0  0  0  0  0  0  0  0  0  0  0
    6.6141   -2.8605    0.9069 O   0  0  0  0  0  0  0  0  0  0  0  0
    5.6150   -3.2866    2.8675 O   0  0  0  0  0  0  0  0  0  0  0  0
    4.4918   -2.9347    3.6542 C   0  0  2  0  0  0  0  0  0  0  0  0
    4.9924   -2.9555    5.0900 C   0  0  0  0  0  0  0  0  0  0  0  0
    5.5662   -4.2909    5.5691 C   0  0  0  0  0  0  0  0  0  0  0  0
    4.6834   -5.5526    5.5251 C   0  0  2  0  0  0  0  0  0  0  0  0
    4.6839   -6.5233    4.2846 C   0  0  1  0  0  0  0  0  0  0  0  0
    5.3348   -7.8750    4.7067 C   0  0  0  0  0  0  0  0  0  0  0  0
    3.3153   -6.8638    4.1685 O   0  0  0  0  0  0  0  0  0  0  0  0
    2.4659   -5.8453    4.6963 C   0  0  2  0  0  0  0  0  0  0  0  0
    1.0643   -6.4656    4.9955 C   0  0  0  0  0  0  0  0  0  0  0  0
    0.1880   -5.7188    5.4857 O   0  0  0  0  0  0  0  0  0  0  0  0
    0.8806   -7.6640    4.6957 O   0  0  0  0  0  0  0  0  0  0  0  0
    2.3040   -4.7887    3.5147 C   0  0  2  0  0  0  0  0  0  0  0  0
    1.9894   -5.5534    2.1912 C   0  0  0  0  0  0  0  0  0  0  0  0
    3.0787   -6.1432    1.5103 O   0  0  0  0  0  0  0  0  0  0  0  0
    4.3547   -5.5410    1.6382 C   0  0  2  0  0  0  0  0  0  0  0  0
    5.2288   -6.1630    2.8362 C   0  0  1  0  0  0  0  0  0  0  0  0
    6.6197   -5.8874    2.8392 O   0  0  0  0  0  0  0  0  0  0  0  0
    3.0073   -3.3565    3.3560 C   0  0  2  0  0  0  0  0  0  0  0  0
    2.5714   -2.6527    2.0433 C   0  0  1  0  0  0  0  0  0  0  0  0
    2.4253   -1.1150    2.2267 C   0  0  0  0  0  0  0  0  0  0  0  0
    3.3163   -3.1383    0.7331 C   0  0  1  0  0  0  0  0  0  0  0  0
    3.6316   -1.9279   -0.2089 C   0  0  0  0  0  0  0  0  0  0  0  0
    3.2130   -5.5008    6.0237 C   0  0  0  0  0  0  0  0  0  0  0  0
    3.0522   -6.6210    7.1072 C   0  0  0  0  0  0  0  0  0  0  0  0
    2.7070   -4.2375    6.7595 C   0  0  0  0  0  0  0  0  0  0  0  0
    4.8029   -0.2497   -2.1283 H   0  0  0  0  0  0  0  0  0  0  0  0
    3.3859   -0.9561   -2.9059 H   0  0  0  0  0  0  0  0  0  0  0  0
    5.0034   -1.4622   -3.3969 H   0  0  0  0  0  0  0  0  0  0  0  0
    5.5236   -3.6543   -2.5544 H   0  0  0  0  0  0  0  0  0  0  0  0
    4.3078   -5.2766   -0.9877 H   0  0  0  0  0  0  0  0  0  0  0  0
    5.9819   -4.9587   -0.5756 H   0  0  0  0  0  0  0  0  0  0  0  0
    4.4669   -1.8620    3.4795 H   0  0  0  0  0  0  0  0  0  0  0  0
    5.8141   -2.2405    5.1471 H   0  0  0  0  0  0  0  0  0  0  0  0
    4.2678   -2.5260    5.7690 H   0  0  0  0  0  0  0  0  0  0  0  0
    6.5030   -4.4999    5.0546 H   0  0  0  0  0  0  0  0  0  0  0  0
    5.8693   -4.1314    6.6060 H   0  0  0  0  0  0  0  0  0  0  0  0
    5.2170   -6.1146    6.2931 H   0  0  0  0  0  0  0  0  0  0  0  0
    6.4208   -7.7963    4.7722 H   0  0  0  0  0  0  0  0  0  0  0  0
    5.0989   -8.6762    4.0053 H   0  0  0  0  0  0  0  0  0  0  0  0
    4.9874   -8.2321    5.6750 H   0  0  0  0  0  0  0  0  0  0  0  0
    1.3075   -4.4025    3.7273 H   0  0  0  0  0  0  0  0  0  0  0  0
    1.2791   -6.3617    2.3695 H   0  0  0  0  0  0  0  0  0  0  0  0
    1.4365   -4.9487    1.4846 H   0  0  0  0  0  0  0  0  0  0  0  0
    4.7874   -6.2035    0.8879 H   0  0  0  0  0  0  0  0  0  0  0  0
    5.3028   -7.1814    2.4492 H   0  0  0  0  0  0  0  0  0  0  0  0
    7.0148   -6.2918    2.0832 H   0  0  0  0  0  0  0  0  0  0  0  0
    2.4811   -2.7848    4.1151 H   0  0  0  0  0  0  0  0  0  0  0  0
    1.5201   -2.8994    1.9089 H   0  0  0  0  0  0  0  0  0  0  0  0
    3.3736   -0.5842    2.2840 H   0  0  0  0  0  0  0  0  0  0  0  0
    1.8723   -0.8798    3.1362 H   0  0  0  0  0  0  0  0  0  0  0  0
    1.8515   -0.6691    1.4127 H   0  0  0  0  0  0  0  0  0  0  0  0
    2.5859   -3.7149    0.1659 H   0  0  0  0  0  0  0  0  0  0  0  0
    4.2113   -1.1542    0.2979 H   0  0  0  0  0  0  0  0  0  0  0  0
    2.7012   -1.4844   -0.5336 H   0  0  0  0  0  0  0  0  0  0  0  0
    2.0545   -6.6351    7.5508 H   0  0  0  0  0  0  0  0  0  0  0  0
    3.7467   -6.4826    7.9375 H   0  0  0  0  0  0  0  0  0  0  0  0
    3.2090   -7.6223    6.7075 H   0  0  0  0  0  0  0  0  0  0  0  0
    1.8096   -4.4432    7.3432 H   0  0  0  0  0  0  0  0  0  0  0  0
    2.4060   -3.4389    6.0944 H   0  0  0  0  0  0  0  0  0  0  0  0
    3.4515   -3.8575    7.4616 H   0  0  0  0  0  0  0  0  0  0  0  0
  1  2  1  0
  1 34  1  0
  1 35  1  0
  1 36  1  0
  2 30  1  0
  2  3  2  0
  3  4  1  0
  3 37  1  0
  5  4  1  6
  4 38  1  0
  4 39  1  0
  5 23  1  0
  5 29  1  0
  5  6  1  0
  6  7  2  0
  6  8  1  0
  8  9  1  0
  9 26  1  0
  9 10  1  0
  9 40  1  6
 10 11  1  0
 10 41  1  0
 10 42  1  0
 11 12  1  0
 11 43  1  0
 11 44  1  0
 12 31  1  0
 12 13  1  0
 12 45  1  1
 13 24  1  0
 13 14  1  1
 13 15  1  0
 14 46  1  0
 14 47  1  0
 14 48  1  0
 15 16  1  0
 16 17  1  1
 16 20  1  0
 16 31  1  0
 17 18  2  0
 17 19  1  0
 20 21  1  0
 20 26  1  0
 20 49  1  1
 21 22  1  0
 21 50  1  0
 21 51  1  0
 22 23  1  0
 23 24  1  0
 23 52  1  6
 24 25  1  0
 24 53  1  6
 25 54  1  0
 26 27  1  0
 26 55  1  1
 27 28  1  0
 27 29  1  0
 27 56  1  6
 28 57  1  0
 28 58  1  0
 28 59  1  0
 29 30  1  0
 29 60  1  6
 30 61  1  0
 30 62  1  0
 31 32  1  0
 31 33  1  0
 32 63  1  0
 32 64  1  0
 32 65  1  0
 33 66  1  0
 33 67  1  0
 33 68  1  0
M  CHG  1  19  -1
M  END
>  <i_m_ct_stereo_status>  (162) 
1

>  <s_m_source_file>  (162) 
/var/tmp/pbs.5076255.sched01/tmpn9kf4o8v/46f5dlbpu8.sdf

>  <i_m_source_file_index>  (162) 
17

>  <i_lp_mmshare_version>  (162) 
48012

>  <i_f3d_flags>  (162) 
0

>  <s_epik_input>  (162) 
W0NIMl0xW0NIXT1DKFtDSDNdKVtDSDJdW0NAQEhdMltDQEhdKFtDSDNdKVtDQEBIXTNbQ0BIXShPQzQ9TylbQ0gyXVtDSDJdW0NAQEhdKEM1KFtDSDNdKVtDSDNdKVtDQF0oW0NIM10pKFtDQEBIXTZbT0hdKU9bQ0BdNShDKD1PKVtPSF0pW0NIXTNbQ0gyXU9bQ0BIXTZbQ0BAXTEyNA==

>  <s_epik_cmdline>  (162) 
J2VwaWtfcHl0aG9uJywgJy1waHQnLCAnMi4wJywgJy1waCcsICc3LjAnLCAnLXRuJywgJzgnLCAnLW1hJywgJzIwMCcsICctaW1hZScsICc8aW5maWxlLm1hZT4nLCAnLW9tYWUnLCAnPG91dGZpbGUubWFlPic=

>  <r_lp_tautomer_probability>  (162) 
1

>  <r_epik_Ionization_Penalty>  (162) 
0.000214537

>  <r_epik_Ionization_Penalty_Charging>  (162) 
0.000214473

>  <r_epik_Ionization_Penalty_Neutral>  (162) 
6.42128e-08

>  <r_epik_State_Penalty>  (162) 
-0

>  <r_epik_Charging_Adjusted_Penalty>  (162) 
0.000214473

>  <i_epik_Tot_Q>  (162) 
-1

>  <i_epik_Tot_abs_Q>  (162) 
1

>  <s_epik_Chemistry_Notes>  (162) 
This compound has an ester and may undergo hydrolysis at high or low pH.

>  <s_lp_Force_Field>  (162) 
OPLS3e

>  <r_lp_Energy>  (162) 
154.678

>  <b_lp_Chiralities_Consistent>  (162) 
1

>  <s_lp_Variant>  (162) 
43:0-1

>  <s_i_glide_gridfile>  (162) 
pfpi4k_grid

>  <i_i_glide_lignum>  (162) 
17

>  <i_i_glide_rotatable_bonds>  (162) 
2

>  <r_i_docking_score>  (162) 
-1.69421

>  <r_i_glide_ligand_efficiency>  (162) 
-0.0513397

>  <r_i_glide_ligand_efficiency_sa>  (162) 
-0.164674

>  <r_i_glide_ligand_efficiency_ln>  (162) 
-0.376783

>  <r_i_glide_gscore>  (162) 
-1.69421

>  <r_i_glide_lipo>  (162) 
-0.196405

>  <r_i_glide_hbond>  (162) 
0

>  <r_i_glide_metal>  (162) 
-0

>  <r_i_glide_rewards>  (162) 
-0.359618

>  <r_i_glide_evdw>  (162) 
-22.2618

>  <r_i_glide_ecoul>  (162) 
-0.137979

>  <r_i_glide_erotb>  (162) 
0

>  <r_i_glide_esite>  (162) 
-0.00440074

>  <r_i_glide_emodel>  (162) 
-26.2256

>  <r_i_glide_energy>  (162) 
-22.3997

>  <r_i_glide_einternal>  (162) 
0.594863

>  <r_i_glide_intrahb_reward>  (162) 
-0

>  <i_i_glide_confnum>  (162) 
2

>  <i_i_glide_posenum>  (162) 
1

>  <r_i_glide_eff_state_penalty>  (162) 
0

>  <ligand_id>  (162) 
43

>  <original_smiles>  (162) 
CC1=CCC23C(=O)OC4CCC5C6(C)OC(C(=O)O)(C(COC2C6O)C4C(C)C3C1)C5(C)C

>  <smiles>  (162) 
[H]OC1([H])C2([H])OC([H])([H])C3([H])C4(C(=O)[O-])OC1(C([H])([H])[H])C([H])(C([H])([H])C([H])([H])C1([H])OC(=O)C25C([H])([H])C([H])=C(C([H])([H])[H])C([H])([H])C5([H])C([H])(C([H])([H])[H])C13[H])C4(C([H])([H])[H])C([H])([H])[H]

$$$$
44:0:0
     RDKit          3D

 29 29  0  0  1  0  0  0  0  0999 V2000
    3.3121   -2.9506   -1.3753 C   0  0  0  0  0  0  0  0  0  0  0  0
    4.0759   -2.8514   -0.0324 C   0  0  0  0  0  0  0  0  0  0  0  0
    5.2340   -1.8483   -0.2782 C   0  0  0  0  0  0  0  0  0  0  0  0
    3.1723   -2.3941    1.1278 C   0  0  0  0  0  0  0  0  0  0  0  0
    2.9516   -3.6011    2.0648 C   0  0  0  0  0  0  0  0  0  0  0  0
    3.5199   -4.8546    1.3828 C   0  0  1  0  0  0  0  0  0  0  0  0
    4.2405   -5.7801    2.3791 C   0  0  0  0  0  0  0  0  0  0  0  0
    2.4293   -5.6247    0.5598 C   0  0  0  0  0  0  0  0  0  0  0  0
    1.2858   -6.3721    1.3042 C   0  0  0  0  0  0  0  0  0  0  0  0
    1.4814   -6.9769    2.3618 O   0  0  0  0  0  0  0  0  0  0  0  0
    0.1470   -6.2865    0.7632 O   0  0  0  0  0  0  0  0  0  0  0  0
    4.5930   -4.2209    0.4492 C   0  0  0  0  0  0  0  0  0  0  0  0
    2.9581   -1.9708   -1.6938 H   0  0  0  0  0  0  0  0  0  0  0  0
    2.4276   -3.5786   -1.3486 H   0  0  0  0  0  0  0  0  0  0  0  0
    3.9557   -3.3525   -2.1584 H   0  0  0  0  0  0  0  0  0  0  0  0
    5.8260   -1.6451    0.6167 H   0  0  0  0  0  0  0  0  0  0  0  0
    4.8456   -0.8919   -0.6325 H   0  0  0  0  0  0  0  0  0  0  0  0
    5.9128   -2.2204   -1.0443 H   0  0  0  0  0  0  0  0  0  0  0  0
    3.6146   -1.5716    1.6972 H   0  0  0  0  0  0  0  0  0  0  0  0
    2.2187   -2.0127    0.7581 H   0  0  0  0  0  0  0  0  0  0  0  0
    3.4866   -3.4115    2.9978 H   0  0  0  0  0  0  0  0  0  0  0  0
    1.8994   -3.7056    2.3340 H   0  0  0  0  0  0  0  0  0  0  0  0
    4.6121   -6.6651    1.8618 H   0  0  0  0  0  0  0  0  0  0  0  0
    3.5819   -6.1212    3.1798 H   0  0  0  0  0  0  0  0  0  0  0  0
    5.0934   -5.3068    2.8666 H   0  0  0  0  0  0  0  0  0  0  0  0
    1.8629   -4.9487   -0.0559 H   0  0  0  0  0  0  0  0  0  0  0  0
    2.9182   -6.2912   -0.1456 H   0  0  0  0  0  0  0  0  0  0  0  0
    4.8996   -4.8656   -0.3746 H   0  0  0  0  0  0  0  0  0  0  0  0
    5.5054   -4.0525    1.0231 H   0  0  0  0  0  0  0  0  0  0  0  0
  1  2  1  0
  1 13  1  0
  1 14  1  0
  1 15  1  0
  2 12  1  0
  2  3  1  0
  2  4  1  0
  3 16  1  0
  3 17  1  0
  3 18  1  0
  4  5  1  0
  4 19  1  0
  4 20  1  0
  5  6  1  0
  5 21  1  0
  5 22  1  0
  6  7  1  1
  6  8  1  0
  6 12  1  0
  7 23  1  0
  7 24  1  0
  7 25  1  0
  8  9  1  0
  8 26  1  0
  8 27  1  0
  9 10  2  0
  9 11  1  0
 12 28  1  0
 12 29  1  0
M  CHG  1  11  -1
M  END
>  <i_m_ct_stereo_status>  (163) 
1

>  <s_m_source_file>  (163) 
/var/tmp/pbs.5076255.sched01/tmpn9kf4o8v/46f5dlbpu8.sdf

>  <i_m_source_file_index>  (163) 
18

>  <i_lp_mmshare_version>  (163) 
48012

>  <i_f3d_flags>  (163) 
0

>  <s_epik_input>  (163) 
W0NIM11DMShbQ0gzXSlbQ0gyXVtDSDJdW0NAXShbQ0gzXSkoW0NIMl0xKVtDSDJdQyg9TylbT0hd

>  <s_epik_cmdline>  (163) 
J2VwaWtfcHl0aG9uJywgJy1waHQnLCAnMi4wJywgJy1waCcsICc3LjAnLCAnLXRuJywgJzgnLCAnLW1hJywgJzIwMCcsICctaW1hZScsICc8aW5maWxlLm1hZT4nLCAnLW9tYWUnLCAnPG91dGZpbGUubWFlPic=

>  <r_epik_Ionization_Penalty>  (163) 
0.00542859

>  <r_epik_Ionization_Penalty_Charging>  (163) 
0.00542859

>  <r_epik_Ionization_Penalty_Neutral>  (163) 
0

>  <r_epik_State_Penalty>  (163) 
0.00396869

>  <r_epik_Charging_Adjusted_Penalty>  (163) 
0.00939728

>  <i_epik_Tot_Q>  (163) 
-1

>  <i_epik_Tot_abs_Q>  (163) 
1

>  <s_lp_Force_Field>  (163) 
OPLS3e

>  <r_lp_Energy>  (163) 
3.46792

>  <b_lp_Chiralities_Consistent>  (163) 
1

>  <s_lp_Variant>  (163) 
44:0-1

>  <s_i_glide_gridfile>  (163) 
pfpi4k_grid

>  <i_i_glide_lignum>  (163) 
18

>  <i_i_glide_rotatable_bonds>  (163) 
2

>  <r_i_docking_score>  (163) 
-3.0858

>  <r_i_glide_ligand_efficiency>  (163) 
-0.25715

>  <r_i_glide_ligand_efficiency_sa>  (163) 
-0.588726

>  <r_i_glide_ligand_efficiency_ln>  (163) 
-0.885475

>  <r_i_glide_gscore>  (163) 
-3.0858

>  <r_i_glide_lipo>  (163) 
-0.0467483

>  <r_i_glide_hbond>  (163) 
-0.2

>  <r_i_glide_metal>  (163) 
-0

>  <r_i_glide_rewards>  (163) 
-2.25

>  <r_i_glide_evdw>  (163) 
-11.9551

>  <r_i_glide_ecoul>  (163) 
-3.04871

>  <r_i_glide_erotb>  (163) 
0.537675

>  <r_i_glide_esite>  (163) 
-0.071666

>  <r_i_glide_emodel>  (163) 
-18.7512

>  <r_i_glide_energy>  (163) 
-15.0038

>  <r_i_glide_einternal>  (163) 
0.416768

>  <r_i_glide_intrahb_reward>  (163) 
-0

>  <i_i_glide_confnum>  (163) 
4

>  <i_i_glide_posenum>  (163) 
4

>  <r_i_glide_eff_state_penalty>  (163) 
0

>  <ligand_id>  (163) 
44

>  <original_smiles>  (163) 
CC1(C)CCC(C)(CC(=O)O)C1

>  <smiles>  (163) 
[H]C([H])([H])C1(C([H])([H])[H])C([H])([H])C([H])([H])C(C([H])([H])[H])(C([H])([H])C(=O)[O-])C1([H])[H]

$$$$
44:0:1
     RDKit          3D

 29 29  0  0  1  0  0  0  0  0999 V2000
    2.6594   -3.1369   -2.1966 C   0  0  0  0  0  0  0  0  0  0  0  0
    3.9265   -2.8381   -1.3646 C   0  0  0  0  0  0  0  0  0  0  0  0
    4.8249   -1.9644   -2.2738 C   0  0  0  0  0  0  0  0  0  0  0  0
    3.6219   -2.1183   -0.0400 C   0  0  0  0  0  0  0  0  0  0  0  0
    3.8426   -3.1115    1.1204 C   0  0  0  0  0  0  0  0  0  0  0  0
    4.0888   -4.5059    0.5216 C   0  0  1  0  0  0  0  0  0  0  0  0
    5.1959   -5.2611    1.2784 C   0  0  0  0  0  0  0  0  0  0  0  0
    2.7904   -5.3659    0.4125 C   0  0  0  0  0  0  0  0  0  0  0  0
    2.0469   -5.8100    1.6925 C   0  0  0  0  0  0  0  0  0  0  0  0
    2.6403   -5.9411    2.7646 O   0  0  0  0  0  0  0  0  0  0  0  0
    0.8132   -5.9514    1.5867 O   0  0  0  0  0  0  0  0  0  0  0  0
    4.6474   -4.1163   -0.8810 C   0  0  0  0  0  0  0  0  0  0  0  0
    2.1780   -2.2249   -2.5395 H   0  0  0  0  0  0  0  0  0  0  0  0
    1.8999   -3.6986   -1.6773 H   0  0  0  0  0  0  0  0  0  0  0  0
    2.9119   -3.7132   -3.0831 H   0  0  0  0  0  0  0  0  0  0  0  0
    5.7327   -1.6171   -1.7774 H   0  0  0  0  0  0  0  0  0  0  0  0
    4.2864   -1.0763   -2.6110 H   0  0  0  0  0  0  0  0  0  0  0  0
    5.1281   -2.5091   -3.1688 H   0  0  0  0  0  0  0  0  0  0  0  0
    4.2247   -1.2173    0.1067 H   0  0  0  0  0  0  0  0  0  0  0  0
    2.6021   -1.7702   -0.0285 H   0  0  0  0  0  0  0  0  0  0  0  0
    4.7125   -2.7720    1.6861 H   0  0  0  0  0  0  0  0  0  0  0  0
    2.9986   -3.0945    1.8117 H   0  0  0  0  0  0  0  0  0  0  0  0
    5.3664   -6.2279    0.8184 H   0  0  0  0  0  0  0  0  0  0  0  0
    4.9478   -5.4353    2.3197 H   0  0  0  0  0  0  0  0  0  0  0  0
    6.1541   -4.7396    1.2640 H   0  0  0  0  0  0  0  0  0  0  0  0
    2.0164   -4.8252   -0.0906 H   0  0  0  0  0  0  0  0  0  0  0  0
    2.9728   -6.2431   -0.1906 H   0  0  0  0  0  0  0  0  0  0  0  0
    4.6212   -4.9204   -1.6137 H   0  0  0  0  0  0  0  0  0  0  0  0
    5.7102   -3.8770   -0.7949 H   0  0  0  0  0  0  0  0  0  0  0  0
  1  2  1  0
  1 13  1  0
  1 14  1  0
  1 15  1  0
  2 12  1  0
  2  3  1  0
  2  4  1  0
  3 16  1  0
  3 17  1  0
  3 18  1  0
  4  5  1  0
  4 19  1  0
  4 20  1  0
  5  6  1  0
  5 21  1  0
  5 22  1  0
  6  7  1  1
  6  8  1  0
  6 12  1  0
  7 23  1  0
  7 24  1  0
  7 25  1  0
  8  9  1  0
  8 26  1  0
  8 27  1  0
  9 10  2  0
  9 11  1  0
 12 28  1  0
 12 29  1  0
M  CHG  1  11  -1
M  END
>  <i_m_ct_stereo_status>  (164) 
1

>  <s_m_source_file>  (164) 
/var/tmp/pbs.5076255.sched01/tmpn9kf4o8v/46f5dlbpu8.sdf

>  <i_m_source_file_index>  (164) 
18

>  <i_lp_mmshare_version>  (164) 
48012

>  <i_f3d_flags>  (164) 
0

>  <s_epik_input>  (164) 
W0NIM11DMShbQ0gzXSlbQ0gyXVtDSDJdW0NAXShbQ0gzXSkoW0NIMl0xKVtDSDJdQyg9TylbT0hd

>  <s_epik_cmdline>  (164) 
J2VwaWtfcHl0aG9uJywgJy1waHQnLCAnMi4wJywgJy1waCcsICc3LjAnLCAnLXRuJywgJzgnLCAnLW1hJywgJzIwMCcsICctaW1hZScsICc8aW5maWxlLm1hZT4nLCAnLW9tYWUnLCAnPG91dGZpbGUubWFlPic=

>  <r_epik_Ionization_Penalty>  (164) 
0.00542859

>  <r_epik_Ionization_Penalty_Charging>  (164) 
0.00542859

>  <r_epik_Ionization_Penalty_Neutral>  (164) 
0

>  <r_epik_State_Penalty>  (164) 
0.00396869

>  <r_epik_Charging_Adjusted_Penalty>  (164) 
0.00939728

>  <i_epik_Tot_Q>  (164) 
-1

>  <i_epik_Tot_abs_Q>  (164) 
1

>  <s_lp_Force_Field>  (164) 
OPLS3e

>  <r_lp_Energy>  (164) 
3.46792

>  <b_lp_Chiralities_Consistent>  (164) 
1

>  <s_lp_Variant>  (164) 
44:0-1

>  <s_i_glide_gridfile>  (164) 
pfpi4k_grid

>  <i_i_glide_lignum>  (164) 
18

>  <i_i_glide_rotatable_bonds>  (164) 
2

>  <r_i_docking_score>  (164) 
-2.99622

>  <r_i_glide_ligand_efficiency>  (164) 
-0.249685

>  <r_i_glide_ligand_efficiency_sa>  (164) 
-0.571635

>  <r_i_glide_ligand_efficiency_ln>  (164) 
-0.859769

>  <r_i_glide_gscore>  (164) 
-2.99622

>  <r_i_glide_lipo>  (164) 
-0.110478

>  <r_i_glide_hbond>  (164) 
-0.187546

>  <r_i_glide_metal>  (164) 
-0

>  <r_i_glide_rewards>  (164) 
-2.25

>  <r_i_glide_evdw>  (164) 
-13.2367

>  <r_i_glide_ecoul>  (164) 
-1.94319

>  <r_i_glide_erotb>  (164) 
0.537675

>  <r_i_glide_esite>  (164) 
-0.0325565

>  <r_i_glide_emodel>  (164) 
-18.8742

>  <r_i_glide_energy>  (164) 
-15.1798

>  <r_i_glide_einternal>  (164) 
0.303536

>  <r_i_glide_intrahb_reward>  (164) 
-0

>  <i_i_glide_confnum>  (164) 
4

>  <i_i_glide_posenum>  (164) 
20

>  <r_i_glide_eff_state_penalty>  (164) 
0

>  <ligand_id>  (164) 
44

>  <original_smiles>  (164) 
CC1(C)CCC(C)(CC(=O)O)C1

>  <smiles>  (164) 
[H]C([H])([H])C1(C([H])([H])[H])C([H])([H])C([H])([H])C(C([H])([H])[H])(C([H])([H])C(=O)[O-])C1([H])[H]

$$$$
44:0:2
     RDKit          3D

 29 29  0  0  1  0  0  0  0  0999 V2000
    2.6714   -3.0339   -2.4424 C   0  0  0  0  0  0  0  0  0  0  0  0
    3.9586   -2.1929   -2.5282 C   0  0  0  0  0  0  0  0  0  0  0  0
    3.9562   -1.5929   -3.9575 C   0  0  0  0  0  0  0  0  0  0  0  0
    4.0159   -1.0864   -1.4656 C   0  0  0  0  0  0  0  0  0  0  0  0
    5.1030   -1.4605   -0.4401 C   0  0  0  0  0  0  0  0  0  0  0  0
    5.5588   -2.9075   -0.7219 C   0  0  1  0  0  0  0  0  0  0  0  0
    7.0891   -3.0939   -0.5222 C   0  0  0  0  0  0  0  0  0  0  0  0
    4.7841   -3.9695    0.1141 C   0  0  0  0  0  0  0  0  0  0  0  0
    4.9114   -3.9574    1.6507 C   0  0  0  0  0  0  0  0  0  0  0  0
    5.6474   -3.1240    2.2100 O   0  0  0  0  0  0  0  0  0  0  0  0
    4.2023   -4.7767    2.2660 O   0  0  0  0  0  0  0  0  0  0  0  0
    5.2384   -3.0157   -2.2453 C   0  0  0  0  0  0  0  0  0  0  0  0
    1.7920   -2.4282   -2.6457 H   0  0  0  0  0  0  0  0  0  0  0  0
    2.4860   -3.4913   -1.4647 H   0  0  0  0  0  0  0  0  0  0  0  0
    2.6963   -3.8332   -3.1750 H   0  0  0  0  0  0  0  0  0  0  0  0
    4.7894   -0.9159   -4.1433 H   0  0  0  0  0  0  0  0  0  0  0  0
    3.0390   -1.0337   -4.1397 H   0  0  0  0  0  0  0  0  0  0  0  0
    3.9999   -2.3868   -4.6997 H   0  0  0  0  0  0  0  0  0  0  0  0
    4.2448   -0.1103   -1.8966 H   0  0  0  0  0  0  0  0  0  0  0  0
    3.0471   -0.9829   -0.9737 H   0  0  0  0  0  0  0  0  0  0  0  0
    5.9331   -0.7657   -0.5470 H   0  0  0  0  0  0  0  0  0  0  0  0
    4.7235   -1.3169    0.5730 H   0  0  0  0  0  0  0  0  0  0  0  0
    7.3624   -4.1182   -0.7438 H   0  0  0  0  0  0  0  0  0  0  0  0
    7.4056   -2.9182    0.5018 H   0  0  0  0  0  0  0  0  0  0  0  0
    7.6831   -2.4336   -1.1513 H   0  0  0  0  0  0  0  0  0  0  0  0
    3.7066   -3.8282    0.0535 H   0  0  0  0  0  0  0  0  0  0  0  0
    4.9635   -4.9673   -0.2688 H   0  0  0  0  0  0  0  0  0  0  0  0
    5.1638   -4.0421   -2.6092 H   0  0  0  0  0  0  0  0  0  0  0  0
    6.0623   -2.5828   -2.8117 H   0  0  0  0  0  0  0  0  0  0  0  0
  1  2  1  0
  1 13  1  0
  1 14  1  0
  1 15  1  0
  2 12  1  0
  2  3  1  0
  2  4  1  0
  3 16  1  0
  3 17  1  0
  3 18  1  0
  4  5  1  0
  4 19  1  0
  4 20  1  0
  5  6  1  0
  5 21  1  0
  5 22  1  0
  6  7  1  6
  6  8  1  0
  6 12  1  0
  7 23  1  0
  7 24  1  0
  7 25  1  0
  8  9  1  0
  8 26  1  0
  8 27  1  0
  9 10  2  0
  9 11  1  0
 12 28  1  0
 12 29  1  0
M  CHG  1  11  -1
M  END
>  <i_m_ct_stereo_status>  (165) 
1

>  <s_m_source_file>  (165) 
/var/tmp/pbs.5076255.sched01/tmpn9kf4o8v/46f5dlbpu8.sdf

>  <i_m_source_file_index>  (165) 
18

>  <i_lp_mmshare_version>  (165) 
48012

>  <i_f3d_flags>  (165) 
0

>  <s_epik_input>  (165) 
W0NIM11DMShbQ0gzXSlbQ0gyXVtDSDJdW0NAXShbQ0gzXSkoW0NIMl0xKVtDSDJdQyg9TylbT0hd

>  <s_epik_cmdline>  (165) 
J2VwaWtfcHl0aG9uJywgJy1waHQnLCAnMi4wJywgJy1waCcsICc3LjAnLCAnLXRuJywgJzgnLCAnLW1hJywgJzIwMCcsICctaW1hZScsICc8aW5maWxlLm1hZT4nLCAnLW9tYWUnLCAnPG91dGZpbGUubWFlPic=

>  <r_epik_Ionization_Penalty>  (165) 
0.00542859

>  <r_epik_Ionization_Penalty_Charging>  (165) 
0.00542859

>  <r_epik_Ionization_Penalty_Neutral>  (165) 
0

>  <r_epik_State_Penalty>  (165) 
0.00396869

>  <r_epik_Charging_Adjusted_Penalty>  (165) 
0.00939728

>  <i_epik_Tot_Q>  (165) 
-1

>  <i_epik_Tot_abs_Q>  (165) 
1

>  <s_lp_Force_Field>  (165) 
OPLS3e

>  <r_lp_Energy>  (165) 
3.46792

>  <b_lp_Chiralities_Consistent>  (165) 
1

>  <s_lp_Variant>  (165) 
44:0-1

>  <s_i_glide_gridfile>  (165) 
pfpi4k_grid

>  <i_i_glide_lignum>  (165) 
18

>  <i_i_glide_rotatable_bonds>  (165) 
2

>  <r_i_docking_score>  (165) 
-2.8575

>  <r_i_glide_ligand_efficiency>  (165) 
-0.238125

>  <r_i_glide_ligand_efficiency_sa>  (165) 
-0.54517

>  <r_i_glide_ligand_efficiency_ln>  (165) 
-0.819964

>  <r_i_glide_gscore>  (165) 
-2.8575

>  <r_i_glide_lipo>  (165) 
-0.359333

>  <r_i_glide_hbond>  (165) 
0

>  <r_i_glide_metal>  (165) 
-0

>  <r_i_glide_rewards>  (165) 
-2.29074

>  <r_i_glide_evdw>  (165) 
-18.3726

>  <r_i_glide_ecoul>  (165) 
1.15685

>  <r_i_glide_erotb>  (165) 
0.537675

>  <r_i_glide_esite>  (165) 
0

>  <r_i_glide_emodel>  (165) 
-20.6237

>  <r_i_glide_energy>  (165) 
-17.2158

>  <r_i_glide_einternal>  (165) 
0.185931

>  <r_i_glide_intrahb_reward>  (165) 
-0

>  <i_i_glide_confnum>  (165) 
6

>  <i_i_glide_posenum>  (165) 
7

>  <r_i_glide_eff_state_penalty>  (165) 
0

>  <ligand_id>  (165) 
44

>  <original_smiles>  (165) 
CC1(C)CCC(C)(CC(=O)O)C1

>  <smiles>  (165) 
[H]C([H])([H])C1(C([H])([H])[H])C([H])([H])C([H])([H])C(C([H])([H])[H])(C([H])([H])C(=O)[O-])C1([H])[H]

$$$$
45:0:0
     RDKit          3D

 34 38  0  0  1  0  0  0  0  0999 V2000
    8.1767   -7.4356    2.6838 O   0  0  0  0  0  0  0  0  0  0  0  0
    7.0813   -6.6221    2.2893 C   0  0  2  0  0  0  0  0  0  0  0  0
    6.0480   -7.5192    1.5955 C   0  0  0  0  0  0  0  0  0  0  0  0
    4.9199   -6.7214    1.1030 N   0  0  0  0  0  0  0  0  0  0  0  0
    3.6022   -7.0745    1.4529 C   0  0  0  0  0  0  0  0  0  0  0  0
    2.5762   -6.2196    1.1962 N   0  0  0  0  0  0  0  0  0  0  0  0
    1.4681   -6.8236    1.6655 N   0  0  0  0  0  0  0  0  0  0  0  0
    0.1681   -6.3460    1.6439 N   0  0  0  0  0  0  0  0  0  0  0  0
   -0.4441   -7.3994    2.2553 C   0  0  0  0  0  0  0  0  0  0  0  0
   -1.7157   -7.6976    2.6194 O   0  0  0  0  0  0  0  0  0  0  0  0
   -1.6054   -8.9645    3.2166 C   0  0  0  0  0  0  0  0  0  0  0  0
   -0.3173   -9.4825    3.2686 C   0  0  0  0  0  0  0  0  0  0  0  0
    0.3208   -8.4191    2.6335 C   0  0  0  0  0  0  0  0  0  0  0  0
    1.5853   -8.0352    2.2380 C   0  0  0  0  0  0  0  0  0  0  0  0
    3.1915   -8.6539    2.2682 S   0  0  0  0  0  0  0  0  0  0  0  0
    5.2357   -5.5646    0.2563 C   0  0  0  0  0  0  0  0  0  0  0  0
    6.2952   -4.6760    0.9340 C   0  0  0  0  0  0  0  0  0  0  0  0
    7.5194   -5.4708    1.3877 C   0  0  0  0  0  0  0  0  0  0  0  0
    8.6796   -5.6419    0.4362 C   0  0  0  0  0  0  0  0  0  0  0  0
    8.8304   -4.7576    1.6502 C   0  0  0  0  0  0  0  0  0  0  0  0
    8.8104   -7.4923    1.9763 H   0  0  0  0  0  0  0  0  0  0  0  0
    6.6382   -6.2052    3.1922 H   0  0  0  0  0  0  0  0  0  0  0  0
    6.5205   -8.0346    0.7657 H   0  0  0  0  0  0  0  0  0  0  0  0
    5.7459   -8.3022    2.2822 H   0  0  0  0  0  0  0  0  0  0  0  0
   -2.5426   -9.3610    3.5714 H   0  0  0  0  0  0  0  0  0  0  0  0
    0.0315  -10.4205    3.6767 H   0  0  0  0  0  0  0  0  0  0  0  0
    5.6382   -5.9277   -0.6880 H   0  0  0  0  0  0  0  0  0  0  0  0
    4.3726   -4.9605   -0.0297 H   0  0  0  0  0  0  0  0  0  0  0  0
    6.6210   -3.9009    0.2373 H   0  0  0  0  0  0  0  0  0  0  0  0
    5.8659   -4.1630    1.7924 H   0  0  0  0  0  0  0  0  0  0  0  0
    9.1959   -6.5992    0.4293 H   0  0  0  0  0  0  0  0  0  0  0  0
    8.6461   -5.1340   -0.5228 H   0  0  0  0  0  0  0  0  0  0  0  0
    8.8797   -3.6851    1.4757 H   0  0  0  0  0  0  0  0  0  0  0  0
    9.4406   -5.1134    2.4804 H   0  0  0  0  0  0  0  0  0  0  0  0
  1  2  1  0
  1 21  1  0
  2 18  1  0
  2  3  1  0
  2 22  1  1
  3  4  1  0
  3 23  1  0
  3 24  1  0
  4  5  1  0
  4 16  1  0
  5 15  1  0
  5  6  2  0
  6  7  1  0
  7 14  1  0
  7  8  1  0
  8  9  2  0
  9 13  1  0
  9 10  1  0
 10 11  1  0
 11 12  2  0
 11 25  1  0
 12 13  1  0
 12 26  1  0
 13 14  2  0
 14 15  1  0
 16 17  1  0
 16 27  1  0
 16 28  1  0
 17 18  1  0
 17 29  1  0
 17 30  1  0
 18 20  1  0
 18 19  1  0
 19 20  1  0
 19 31  1  0
 19 32  1  0
 20 33  1  0
 20 34  1  0
M  END
>  <i_m_ct_stereo_status>  (166) 
1

>  <s_m_source_file>  (166) 
/var/tmp/pbs.5076255.sched01/tmpn9kf4o8v/46f5dlbpu8.sdf

>  <i_m_source_file_index>  (166) 
19

>  <i_lp_mmshare_version>  (166) 
48012

>  <i_f3d_flags>  (166) 
0

>  <s_epik_input>  (166) 
W0NIMl0xW0NIMl1DMTJbQ0BIXShbT0hdKVtDSDJdTihbQ0gyXVtDSDJdMiljKG4zKXNjKG4zNCljNWMobjQpb1tjSF1bY0hdNQ==

>  <s_epik_cmdline>  (166) 
J2VwaWtfcHl0aG9uJywgJy1waHQnLCAnMi4wJywgJy1waCcsICc3LjAnLCAnLXRuJywgJzgnLCAnLW1hJywgJzIwMCcsICctaW1hZScsICc8aW5maWxlLm1hZT4nLCAnLW9tYWUnLCAnPG91dGZpbGUubWFlPic=

>  <r_lp_tautomer_probability>  (166) 
1

>  <r_epik_Ionization_Penalty>  (166) 
1.04914e-05

>  <r_epik_Ionization_Penalty_Charging>  (166) 
0

>  <r_epik_Ionization_Penalty_Neutral>  (166) 
1.04914e-05

>  <r_epik_State_Penalty>  (166) 
-0

>  <r_epik_Charging_Adjusted_Penalty>  (166) 
0

>  <i_epik_Tot_Q>  (166) 
0

>  <i_epik_Tot_abs_Q>  (166) 
0

>  <s_lp_Force_Field>  (166) 
OPLS3e

>  <r_lp_Energy>  (166) 
11.5312

>  <b_lp_Chiralities_Consistent>  (166) 
1

>  <s_lp_Variant>  (166) 
45:0-1

>  <s_i_glide_gridfile>  (166) 
pfpi4k_grid

>  <i_i_glide_lignum>  (166) 
19

>  <i_i_glide_rotatable_bonds>  (166) 
2

>  <r_i_docking_score>  (166) 
-4.24195

>  <r_i_glide_ligand_efficiency>  (166) 
-0.212097

>  <r_i_glide_ligand_efficiency_sa>  (166) 
-0.575721

>  <r_i_glide_ligand_efficiency_ln>  (166) 
-1.06162

>  <r_i_glide_gscore>  (166) 
-4.24195

>  <r_i_glide_lipo>  (166) 
-0.47533

>  <r_i_glide_hbond>  (166) 
-0.364564

>  <r_i_glide_metal>  (166) 
-0

>  <r_i_glide_rewards>  (166) 
-1.55679

>  <r_i_glide_evdw>  (166) 
-22.7294

>  <r_i_glide_ecoul>  (166) 
-5.86465

>  <r_i_glide_erotb>  (166) 
0.216178

>  <r_i_glide_esite>  (166) 
-0.045276

>  <r_i_glide_emodel>  (166) 
-37.3588

>  <r_i_glide_energy>  (166) 
-28.594

>  <r_i_glide_einternal>  (166) 
0.646856

>  <r_i_glide_intrahb_reward>  (166) 
-0

>  <i_i_glide_confnum>  (166) 
4

>  <i_i_glide_posenum>  (166) 
17

>  <r_i_glide_eff_state_penalty>  (166) 
0

>  <ligand_id>  (166) 
45

>  <original_smiles>  (166) 
OC1CN(c2nn3nc4occc4c3s2)CCC12CC2

>  <smiles>  (166) 
[H]OC1([H])C([H])([H])N(c2nn3nc4oc([H])c([H])c4c3s2)C([H])([H])C([H])([H])C12C([H])([H])C2([H])[H]

$$$$
45:0:1
     RDKit          3D

 34 38  0  0  1  0  0  0  0  0999 V2000
    8.4251   -5.0354    1.3601 O   0  0  0  0  0  0  0  0  0  0  0  0
    7.1126   -4.5844    1.0601 C   0  0  2  0  0  0  0  0  0  0  0  0
    6.3059   -5.7847    0.5553 C   0  0  0  0  0  0  0  0  0  0  0  0
    4.9619   -5.3818    0.1500 N   0  0  0  0  0  0  0  0  0  0  0  0
    3.8261   -6.0475    0.6741 C   0  0  0  0  0  0  0  0  0  0  0  0
    2.5843   -5.5096    0.5353 N   0  0  0  0  0  0  0  0  0  0  0  0
    1.7460   -6.3635    1.1588 N   0  0  0  0  0  0  0  0  0  0  0  0
    0.3712   -6.2639    1.2798 N   0  0  0  0  0  0  0  0  0  0  0  0
    0.1409   -7.3941    2.0072 C   0  0  0  0  0  0  0  0  0  0  0  0
   -0.9548   -7.9814    2.5427 O   0  0  0  0  0  0  0  0  0  0  0  0
   -0.4509   -9.1469    3.1585 C   0  0  0  0  0  0  0  0  0  0  0  0
    0.9208   -9.3193    3.0399 C   0  0  0  0  0  0  0  0  0  0  0  0
    1.1841   -8.1520    2.3179 C   0  0  0  0  0  0  0  0  0  0  0  0
    2.2441   -7.4648    1.7471 C   0  0  0  0  0  0  0  0  0  0  0  0
    3.9505   -7.6383    1.5687 S   0  0  0  0  0  0  0  0  0  0  0  0
    4.8767   -4.2977   -0.8364 C   0  0  0  0  0  0  0  0  0  0  0  0
    5.6970   -3.0825   -0.3627 C   0  0  0  0  0  0  0  0  0  0  0  0
    7.1317   -3.4567    0.0232 C   0  0  0  0  0  0  0  0  0  0  0  0
    8.2140   -3.4061   -1.0337 C   0  0  0  0  0  0  0  0  0  0  0  0
    8.2027   -2.3843    0.0818 C   0  0  0  0  0  0  0  0  0  0  0  0
    8.3938   -5.6941    2.0358 H   0  0  0  0  0  0  0  0  0  0  0  0
    6.6547   -4.2022    1.9726 H   0  0  0  0  0  0  0  0  0  0  0  0
    6.8136   -6.2182   -0.3011 H   0  0  0  0  0  0  0  0  0  0  0  0
    6.3016   -6.5527    1.3212 H   0  0  0  0  0  0  0  0  0  0  0  0
   -1.2216   -9.7455    3.6312 H   0  0  0  0  0  0  0  0  0  0  0  0
    1.5584  -10.1232    3.3997 H   0  0  0  0  0  0  0  0  0  0  0  0
    5.2908   -4.6553   -1.7797 H   0  0  0  0  0  0  0  0  0  0  0  0
    3.8544   -3.9942   -1.0655 H   0  0  0  0  0  0  0  0  0  0  0  0
    5.7236   -2.3271   -1.1475 H   0  0  0  0  0  0  0  0  0  0  0  0
    5.2075   -2.6207    0.4946 H   0  0  0  0  0  0  0  0  0  0  0  0
    8.9891   -4.1707   -1.0091 H   0  0  0  0  0  0  0  0  0  0  0  0
    7.9411   -3.0715   -2.0314 H   0  0  0  0  0  0  0  0  0  0  0  0
    7.9125   -1.3659   -0.1568 H   0  0  0  0  0  0  0  0  0  0  0  0
    8.9638   -2.4667    0.8575 H   0  0  0  0  0  0  0  0  0  0  0  0
  1  2  1  0
  1 21  1  0
  2 18  1  0
  2  3  1  0
  2 22  1  1
  3  4  1  0
  3 23  1  0
  3 24  1  0
  4  5  1  0
  4 16  1  0
  5 15  1  0
  5  6  2  0
  6  7  1  0
  7 14  1  0
  7  8  1  0
  8  9  2  0
  9 13  1  0
  9 10  1  0
 10 11  1  0
 11 12  2  0
 11 25  1  0
 12 13  1  0
 12 26  1  0
 13 14  2  0
 14 15  1  0
 16 17  1  0
 16 27  1  0
 16 28  1  0
 17 18  1  0
 17 29  1  0
 17 30  1  0
 18 20  1  0
 18 19  1  0
 19 20  1  0
 19 31  1  0
 19 32  1  0
 20 33  1  0
 20 34  1  0
M  END
>  <i_m_ct_stereo_status>  (167) 
1

>  <s_m_source_file>  (167) 
/var/tmp/pbs.5076255.sched01/tmpn9kf4o8v/46f5dlbpu8.sdf

>  <i_m_source_file_index>  (167) 
19

>  <i_lp_mmshare_version>  (167) 
48012

>  <i_f3d_flags>  (167) 
0

>  <s_epik_input>  (167) 
W0NIMl0xW0NIMl1DMTJbQ0BIXShbT0hdKVtDSDJdTihbQ0gyXVtDSDJdMiljKG4zKXNjKG4zNCljNWMobjQpb1tjSF1bY0hdNQ==

>  <s_epik_cmdline>  (167) 
J2VwaWtfcHl0aG9uJywgJy1waHQnLCAnMi4wJywgJy1waCcsICc3LjAnLCAnLXRuJywgJzgnLCAnLW1hJywgJzIwMCcsICctaW1hZScsICc8aW5maWxlLm1hZT4nLCAnLW9tYWUnLCAnPG91dGZpbGUubWFlPic=

>  <r_lp_tautomer_probability>  (167) 
1

>  <r_epik_Ionization_Penalty>  (167) 
1.04914e-05

>  <r_epik_Ionization_Penalty_Charging>  (167) 
0

>  <r_epik_Ionization_Penalty_Neutral>  (167) 
1.04914e-05

>  <r_epik_State_Penalty>  (167) 
-0

>  <r_epik_Charging_Adjusted_Penalty>  (167) 
0

>  <i_epik_Tot_Q>  (167) 
0

>  <i_epik_Tot_abs_Q>  (167) 
0

>  <s_lp_Force_Field>  (167) 
OPLS3e

>  <r_lp_Energy>  (167) 
11.5312

>  <b_lp_Chiralities_Consistent>  (167) 
1

>  <s_lp_Variant>  (167) 
45:0-1

>  <s_i_glide_gridfile>  (167) 
pfpi4k_grid

>  <i_i_glide_lignum>  (167) 
19

>  <i_i_glide_rotatable_bonds>  (167) 
2

>  <r_i_docking_score>  (167) 
-4.10786

>  <r_i_glide_ligand_efficiency>  (167) 
-0.205393

>  <r_i_glide_ligand_efficiency_sa>  (167) 
-0.557523

>  <r_i_glide_ligand_efficiency_ln>  (167) 
-1.02806

>  <r_i_glide_gscore>  (167) 
-4.10786

>  <r_i_glide_lipo>  (167) 
-0.55741

>  <r_i_glide_hbond>  (167) 
-0.172655

>  <r_i_glide_metal>  (167) 
-0

>  <r_i_glide_rewards>  (167) 
-1.49098

>  <r_i_glide_evdw>  (167) 
-25.8539

>  <r_i_glide_ecoul>  (167) 
-5.08888

>  <r_i_glide_erotb>  (167) 
0.216178

>  <r_i_glide_esite>  (167) 
-0.0469641

>  <r_i_glide_emodel>  (167) 
-39.5798

>  <r_i_glide_energy>  (167) 
-30.9428

>  <r_i_glide_einternal>  (167) 
0.651019

>  <r_i_glide_intrahb_reward>  (167) 
-0

>  <i_i_glide_confnum>  (167) 
4

>  <i_i_glide_posenum>  (167) 
7

>  <r_i_glide_eff_state_penalty>  (167) 
0

>  <ligand_id>  (167) 
45

>  <original_smiles>  (167) 
OC1CN(c2nn3nc4occc4c3s2)CCC12CC2

>  <smiles>  (167) 
[H]OC1([H])C([H])([H])N(c2nn3nc4oc([H])c([H])c4c3s2)C([H])([H])C([H])([H])C12C([H])([H])C2([H])[H]

$$$$
45:0:2
     RDKit          3D

 34 38  0  0  1  0  0  0  0  0999 V2000
    8.4069   -4.8844    1.4147 O   0  0  0  0  0  0  0  0  0  0  0  0
    7.1029   -4.4623    1.0549 C   0  0  2  0  0  0  0  0  0  0  0  0
    6.3307   -5.6836    0.5442 C   0  0  0  0  0  0  0  0  0  0  0  0
    4.9843   -5.3082    0.1217 N   0  0  0  0  0  0  0  0  0  0  0  0
    3.8552   -5.9860    0.6429 C   0  0  0  0  0  0  0  0  0  0  0  0
    2.6066   -5.4746    0.4765 N   0  0  0  0  0  0  0  0  0  0  0  0
    1.7742   -6.3368    1.0983 N   0  0  0  0  0  0  0  0  0  0  0  0
    0.3946   -6.2650    1.1947 N   0  0  0  0  0  0  0  0  0  0  0  0
    0.1755   -7.3892    1.9354 C   0  0  0  0  0  0  0  0  0  0  0  0
   -0.9167   -7.9899    2.4654 O   0  0  0  0  0  0  0  0  0  0  0  0
   -0.3998   -9.1358    3.1064 C   0  0  0  0  0  0  0  0  0  0  0  0
    0.9778   -9.2813    3.0122 C   0  0  0  0  0  0  0  0  0  0  0  0
    1.2288   -8.1202    2.2758 C   0  0  0  0  0  0  0  0  0  0  0  0
    2.2848   -7.4197    1.7112 C   0  0  0  0  0  0  0  0  0  0  0  0
    3.9973   -7.5611    1.5611 S   0  0  0  0  0  0  0  0  0  0  0  0
    4.8938   -4.2327   -0.8723 C   0  0  0  0  0  0  0  0  0  0  0  0
    5.6870   -2.9975   -0.3962 C   0  0  0  0  0  0  0  0  0  0  0  0
    7.1236   -3.3434    0.0100 C   0  0  0  0  0  0  0  0  0  0  0  0
    8.2149   -3.2825   -1.0338 C   0  0  0  0  0  0  0  0  0  0  0  0
    8.1752   -2.2549    0.0781 C   0  0  0  0  0  0  0  0  0  0  0  0
    8.8000   -4.2303    1.9716 H   0  0  0  0  0  0  0  0  0  0  0  0
    6.6182   -4.0881    1.9563 H   0  0  0  0  0  0  0  0  0  0  0  0
    6.8571   -6.1161   -0.3019 H   0  0  0  0  0  0  0  0  0  0  0  0
    6.3365   -6.4429    1.3189 H   0  0  0  0  0  0  0  0  0  0  0  0
   -1.1652   -9.7439    3.5759 H   0  0  0  0  0  0  0  0  0  0  0  0
    1.6263  -10.0655    3.3942 H   0  0  0  0  0  0  0  0  0  0  0  0
    5.3252   -4.5872   -1.8093 H   0  0  0  0  0  0  0  0  0  0  0  0
    3.8693   -3.9470   -1.1138 H   0  0  0  0  0  0  0  0  0  0  0  0
    5.7097   -2.2464   -1.1854 H   0  0  0  0  0  0  0  0  0  0  0  0
    5.1778   -2.5384    0.4518 H   0  0  0  0  0  0  0  0  0  0  0  0
    9.0006   -4.0395   -0.9958 H   0  0  0  0  0  0  0  0  0  0  0  0
    7.9466   -2.9618   -2.0379 H   0  0  0  0  0  0  0  0  0  0  0  0
    7.8691   -1.2440   -0.1650 H   0  0  0  0  0  0  0  0  0  0  0  0
    8.9355   -2.3195    0.8553 H   0  0  0  0  0  0  0  0  0  0  0  0
  1  2  1  0
  1 21  1  0
  2 18  1  0
  2  3  1  0
  2 22  1  1
  3  4  1  0
  3 23  1  0
  3 24  1  0
  4  5  1  0
  4 16  1  0
  5 15  1  0
  5  6  2  0
  6  7  1  0
  7 14  1  0
  7  8  1  0
  8  9  2  0
  9 13  1  0
  9 10  1  0
 10 11  1  0
 11 12  2  0
 11 25  1  0
 12 13  1  0
 12 26  1  0
 13 14  2  0
 14 15  1  0
 16 17  1  0
 16 27  1  0
 16 28  1  0
 17 18  1  0
 17 29  1  0
 17 30  1  0
 18 20  1  0
 18 19  1  0
 19 20  1  0
 19 31  1  0
 19 32  1  0
 20 33  1  0
 20 34  1  0
M  END
>  <i_m_ct_stereo_status>  (168) 
1

>  <s_m_source_file>  (168) 
/var/tmp/pbs.5076255.sched01/tmpn9kf4o8v/46f5dlbpu8.sdf

>  <i_m_source_file_index>  (168) 
19

>  <i_lp_mmshare_version>  (168) 
48012

>  <i_f3d_flags>  (168) 
0

>  <s_epik_input>  (168) 
W0NIMl0xW0NIMl1DMTJbQ0BIXShbT0hdKVtDSDJdTihbQ0gyXVtDSDJdMiljKG4zKXNjKG4zNCljNWMobjQpb1tjSF1bY0hdNQ==

>  <s_epik_cmdline>  (168) 
J2VwaWtfcHl0aG9uJywgJy1waHQnLCAnMi4wJywgJy1waCcsICc3LjAnLCAnLXRuJywgJzgnLCAnLW1hJywgJzIwMCcsICctaW1hZScsICc8aW5maWxlLm1hZT4nLCAnLW9tYWUnLCAnPG91dGZpbGUubWFlPic=

>  <r_lp_tautomer_probability>  (168) 
1

>  <r_epik_Ionization_Penalty>  (168) 
1.04914e-05

>  <r_epik_Ionization_Penalty_Charging>  (168) 
0

>  <r_epik_Ionization_Penalty_Neutral>  (168) 
1.04914e-05

>  <r_epik_State_Penalty>  (168) 
-0

>  <r_epik_Charging_Adjusted_Penalty>  (168) 
0

>  <i_epik_Tot_Q>  (168) 
0

>  <i_epik_Tot_abs_Q>  (168) 
0

>  <s_lp_Force_Field>  (168) 
OPLS3e

>  <r_lp_Energy>  (168) 
11.5312

>  <b_lp_Chiralities_Consistent>  (168) 
1

>  <s_lp_Variant>  (168) 
45:0-1

>  <s_i_glide_gridfile>  (168) 
pfpi4k_grid

>  <i_i_glide_lignum>  (168) 
19

>  <i_i_glide_rotatable_bonds>  (168) 
2

>  <r_i_docking_score>  (168) 
-4.09421

>  <r_i_glide_ligand_efficiency>  (168) 
-0.204711

>  <r_i_glide_ligand_efficiency_sa>  (168) 
-0.55567

>  <r_i_glide_ligand_efficiency_ln>  (168) 
-1.02465

>  <r_i_glide_gscore>  (168) 
-4.09421

>  <r_i_glide_lipo>  (168) 
-0.545692

>  <r_i_glide_hbond>  (168) 
-0.16

>  <r_i_glide_metal>  (168) 
-0

>  <r_i_glide_rewards>  (168) 
-1.48311

>  <r_i_glide_evdw>  (168) 
-25.9404

>  <r_i_glide_ecoul>  (168) 
-5.18548

>  <r_i_glide_erotb>  (168) 
0.216178

>  <r_i_glide_esite>  (168) 
-0.046747

>  <r_i_glide_emodel>  (168) 
-39.5554

>  <r_i_glide_energy>  (168) 
-31.1259

>  <r_i_glide_einternal>  (168) 
0.914887

>  <r_i_glide_intrahb_reward>  (168) 
-0

>  <i_i_glide_confnum>  (168) 
4

>  <i_i_glide_posenum>  (168) 
1

>  <r_i_glide_eff_state_penalty>  (168) 
0

>  <ligand_id>  (168) 
45

>  <original_smiles>  (168) 
OC1CN(c2nn3nc4occc4c3s2)CCC12CC2

>  <smiles>  (168) 
[H]OC1([H])C([H])([H])N(c2nn3nc4oc([H])c([H])c4c3s2)C([H])([H])C([H])([H])C12C([H])([H])C2([H])[H]

$$$$
46:0:0
     RDKit          3D

 73 79  0  0  1  0  0  0  0  0999 V2000
    3.0926  -10.5013    2.8004 C   0  0  0  0  0  0  0  0  0  0  0  0
    3.3158   -9.2035    3.1000 C   0  0  0  0  0  0  0  0  0  0  0  0
    2.0933   -8.1454    2.9994 C   0  0  0  0  0  0  0  0  0  0  0  0
    0.8718   -8.6581    3.2878 C   0  0  0  0  0  0  0  0  0  0  0  0
   -0.4711   -7.9407    3.2133 C   0  0  0  0  0  0  0  0  0  0  0  0
   -1.4122   -8.7413    2.2965 C   0  0  0  0  0  0  0  0  0  0  0  0
   -1.0711   -7.8041    4.6246 C   0  0  0  0  0  0  0  0  0  0  0  0
   -0.3687   -6.6554    2.6069 O   0  0  0  0  0  0  0  0  0  0  0  0
    0.7459   -5.8721    3.0224 C   0  0  0  0  0  0  0  0  0  0  0  0
    2.0613   -6.4969    2.5296 C   0  0  1  0  0  0  0  0  0  0  0  0
    3.3079   -5.2315    2.4723 C   0  0  1  0  0  0  0  0  0  0  0  0
    3.1124   -3.8823    3.1466 C   0  0  0  0  0  0  0  0  0  0  0  0
    4.5667   -3.8835    3.6822 C   0  0  1  0  0  0  0  0  0  0  0  0
    5.2973   -2.5442    3.4989 C   0  0  0  0  0  0  0  0  0  0  0  0
    5.0440   -1.3379    4.0678 C   0  0  0  0  0  0  0  0  0  0  0  0
    6.0817   -0.0019    3.6780 Cl  0  0  0  0  0  0  0  0  0  0  0  0
    3.9007   -0.9725    5.0744 C   0  0  0  0  0  0  0  0  0  0  0  0
    3.9287    0.2078    5.5289 O   0  0  0  0  0  0  0  0  0  0  0  0
    3.0614   -1.8351    5.3393 O   0  0  0  0  0  0  0  0  0  0  0  0
    4.5363   -4.3757    5.2347 C   0  0  0  0  0  0  0  0  0  0  0  0
    4.5902   -5.9444    5.6525 C   0  0  2  0  0  0  0  0  0  0  0  0
    4.3343   -5.9089    6.9657 F   0  0  0  0  0  0  0  0  0  0  0  0
    5.8660   -6.7879    5.5298 C   0  0  1  0  0  0  0  0  0  0  0  0
    5.8249   -8.3019    5.9448 C   0  0  0  0  0  0  0  0  0  0  0  0
    5.3900   -9.3578    4.8346 C   0  0  0  0  0  0  0  0  0  0  0  0
    4.8903   -8.8305    3.4173 C   0  0  1  0  0  0  0  0  0  0  0  0
    6.1956   -8.9377    2.3646 C   0  0  0  0  0  0  0  0  0  0  0  0
    6.8948   -7.9484    1.5497 C   0  0  0  0  0  0  0  0  0  0  0  0
    6.7755   -6.4435    1.0184 C   0  0  0  0  0  0  0  0  0  0  0  0
    6.0341   -5.2352    1.3509 C   0  0  0  0  0  0  0  0  0  0  0  0
    5.0708   -5.0004    2.6688 C   0  0  2  0  0  0  0  0  0  0  0  0
    6.2775   -5.4757    3.6150 C   0  0  0  0  0  0  0  0  0  0  0  0
    5.9867   -6.8242    4.0720 C   0  0  2  0  0  0  0  0  0  0  0  0
    4.6160   -7.4214    3.4154 C   0  0  1  0  0  0  0  0  0  0  0  0
    4.2188   -7.5254    1.5596 C   0  0  0  0  0  0  0  0  0  0  0  0
    3.6936   -6.8472    4.7947 C   0  0  1  0  0  0  0  0  0  0  0  0
    2.7315   -7.6532    5.7807 C   0  0  0  0  0  0  0  0  0  0  0  0
    2.7828   -8.8915    5.9085 O   0  0  0  0  0  0  0  0  0  0  0  0
    1.8867   -6.9663    6.4052 O   0  0  0  0  0  0  0  0  0  0  0  0
    2.1272  -10.8899    2.5089 H   0  0  0  0  0  0  0  0  0  0  0  0
    3.8988  -11.2182    2.8336 H   0  0  0  0  0  0  0  0  0  0  0  0
    0.7873   -9.6813    3.6229 H   0  0  0  0  0  0  0  0  0  0  0  0
   -1.5730   -9.7572    2.6621 H   0  0  0  0  0  0  0  0  0  0  0  0
   -0.9943   -8.8155    1.2932 H   0  0  0  0  0  0  0  0  0  0  0  0
   -2.3875   -8.2677    2.1956 H   0  0  0  0  0  0  0  0  0  0  0  0
   -1.2173   -8.7789    5.0936 H   0  0  0  0  0  0  0  0  0  0  0  0
   -2.0382   -7.3033    4.6062 H   0  0  0  0  0  0  0  0  0  0  0  0
   -0.4275   -7.2335    5.2924 H   0  0  0  0  0  0  0  0  0  0  0  0
    0.6186   -4.8892    2.5725 H   0  0  0  0  0  0  0  0  0  0  0  0
    0.7406   -5.7159    4.0997 H   0  0  0  0  0  0  0  0  0  0  0  0
    1.8026   -6.6094    1.4761 H   0  0  0  0  0  0  0  0  0  0  0  0
    3.1657   -4.9082    1.4420 H   0  0  0  0  0  0  0  0  0  0  0  0
    2.8461   -3.0750    2.4602 H   0  0  0  0  0  0  0  0  0  0  0  0
    2.3679   -3.9197    3.9444 H   0  0  0  0  0  0  0  0  0  0  0  0
    6.1435   -2.5866    2.8269 H   0  0  0  0  0  0  0  0  0  0  0  0
    5.3208   -3.8550    5.7847 H   0  0  0  0  0  0  0  0  0  0  0  0
    3.6281   -4.0169    5.7101 H   0  0  0  0  0  0  0  0  0  0  0  0
    6.7034   -6.2920    6.0211 H   0  0  0  0  0  0  0  0  0  0  0  0
    6.8286   -8.5795    6.2700 H   0  0  0  0  0  0  0  0  0  0  0  0
    5.2248   -8.4233    6.8507 H   0  0  0  0  0  0  0  0  0  0  0  0
    6.2515  -10.0036    4.6768 H   0  0  0  0  0  0  0  0  0  0  0  0
    4.6915  -10.0794    5.2592 H   0  0  0  0  0  0  0  0  0  0  0  0
    6.6338   -9.9233    2.3916 H   0  0  0  0  0  0  0  0  0  0  0  0
    6.3687   -7.2717    1.9783 H   0  0  0  0  0  0  0  0  0  0  0  0
    7.3907   -6.3295    0.1388 H   0  0  0  0  0  0  0  0  0  0  0  0
    5.2455   -5.5817    1.7706 H   0  0  0  0  0  0  0  0  0  0  0  0
    7.2786   -5.4550    3.1793 H   0  0  0  0  0  0  0  0  0  0  0  0
    6.6138   -4.7769    4.3558 H   0  0  0  0  0  0  0  0  0  0  0  0
    6.9341   -7.3474    3.9481 H   0  0  0  0  0  0  0  0  0  0  0  0
    4.7022   -8.1981    0.8684 H   0  0  0  0  0  0  0  0  0  0  0  0
    3.3300   -7.9763    1.1298 H   0  0  0  0  0  0  0  0  0  0  0  0
    4.1038   -6.7338    0.8391 H   0  0  0  0  0  0  0  0  0  0  0  0
    2.9602   -6.1049    4.5855 H   0  0  0  0  0  0  0  0  0  0  0  0
  1  2  2  0
  1 40  1  0
  1 41  1  0
  2 26  1  0
  2  3  1  0
  3 10  1  0
  3  4  2  0
  4  5  1  0
  4 42  1  0
  5  6  1  0
  5  7  1  0
  5  8  1  0
  6 43  1  0
  6 44  1  0
  6 45  1  0
  7 46  1  0
  7 47  1  0
  7 48  1  0
  8  9  1  0
  9 10  1  0
  9 49  1  0
  9 50  1  0
 10 11  1  0
 10 51  1  6
 11 31  1  0
 11 12  1  0
 11 52  1  6
 13 12  1  6
 12 53  1  0
 12 54  1  0
 13 31  1  0
 13 14  1  0
 13 20  1  0
 14 15  2  3
 14 55  1  0
 15 16  1  0
 15 17  1  0
 17 18  2  0
 17 19  1  0
 20 21  1  0
 20 56  1  0
 20 57  1  0
 21 36  1  0
 21 22  1  1
 21 23  1  0
 23 33  1  0
 23 24  1  0
 23 58  1  1
 24 25  1  0
 24 59  1  0
 24 60  1  0
 26 25  1  1
 25 61  1  0
 25 62  1  0
 26 34  1  0
 26 27  1  0
 27 28  2  3
 27 63  1  0
 28 29  1  0
 28 64  1  0
 29 30  2  3
 29 65  1  0
 31 30  1  6
 30 66  1  0
 31 32  1  0
 32 33  1  0
 32 67  1  0
 32 68  1  0
 33 34  1  0
 33 69  1  1
 34 35  1  6
 34 36  1  0
 35 70  1  0
 35 71  1  0
 35 72  1  0
 36 37  1  0
 36 73  1  6
 37 38  2  0
 37 39  1  0
M  CHG  2  19  -1  39  -1
M  END
>  <i_m_ct_stereo_status>  (169) 
1

>  <s_m_source_file>  (169) 
/var/tmp/pbs.5076255.sched01/tmpn9kf4o8v/46f5dlbpu8.sdf

>  <i_m_source_file_index>  (169) 
20

>  <i_lp_mmshare_version>  (169) 
48012

>  <i_f3d_flags>  (169) 
3

>  <s_epik_input>  (169) 
W0NIMl0xT0MoW0NIM10pKFtDSDNdKVtDSF09QyhDMj1bQ0gyXSlbQ0BASF0xW0NAQEhdKFtDSDJdMylbQ0BAXShbQ0gyXTQpKFxbQ0hdPVtDSF0vW0NIXT1bQ0hdXDUpW0NAXTMoL1tDSF09QyhcQ2wpQyg9TylbT0hdKVtDSDJdW0NAXShGKShbQ0BASF02Qyg9TylbT0hdKVtDQEhdKFtDSDJdW0NIMl03KVtDQEhdNFtDQEBdNihbQ0BAXTI1NylbQ0gzXQ==

>  <s_epik_cmdline>  (169) 
J2VwaWtfcHl0aG9uJywgJy1waHQnLCAnMi4wJywgJy1waCcsICc3LjAnLCAnLXRuJywgJzgnLCAnLW1hJywgJzIwMCcsICctaW1hZScsICc8aW5maWxlLm1hZT4nLCAnLW9tYWUnLCAnPG91dGZpbGUubWFlPic=

>  <r_lp_tautomer_probability>  (169) 
1

>  <r_epik_Ionization_Penalty>  (169) 
0.0003382

>  <r_epik_Ionization_Penalty_Charging>  (169) 
0.0003382

>  <r_epik_Ionization_Penalty_Neutral>  (169) 
4.09804e-12

>  <r_epik_State_Penalty>  (169) 
-0

>  <r_epik_Charging_Adjusted_Penalty>  (169) 
0.0003382

>  <i_epik_Tot_Q>  (169) 
-2

>  <i_epik_Tot_abs_Q>  (169) 
2

>  <s_lp_Force_Field>  (169) 
OPLS3e

>  <r_lp_Energy>  (169) 
602.216

>  <b_lp_Chiralities_Consistent>  (169) 
0

>  <s_lp_Variant>  (169) 
46:0-1

>  <s_i_glide_gridfile>  (169) 
pfpi4k_grid

>  <i_i_glide_lignum>  (169) 
20

>  <i_i_glide_rotatable_bonds>  (169) 
3

>  <r_i_docking_score>  (169) 
1.13874

>  <r_i_glide_ligand_efficiency>  (169) 
0.0291984

>  <r_i_glide_ligand_efficiency_sa>  (169) 
0.0990179

>  <r_i_glide_ligand_efficiency_ln>  (169) 
0.244177

>  <r_i_glide_gscore>  (169) 
1.13874

>  <r_i_glide_lipo>  (169) 
-0.691619

>  <r_i_glide_hbond>  (169) 
-0.16

>  <r_i_glide_metal>  (169) 
-0

>  <r_i_glide_rewards>  (169) 
0

>  <r_i_glide_evdw>  (169) 
-23.4598

>  <r_i_glide_ecoul>  (169) 
-0.576859

>  <r_i_glide_erotb>  (169) 
0.0636809

>  <r_i_glide_esite>  (169) 
-0.00161092

>  <r_i_glide_emodel>  (169) 
-11.2181

>  <r_i_glide_energy>  (169) 
-24.0367

>  <r_i_glide_einternal>  (169) 
1.10674

>  <r_i_glide_intrahb_reward>  (169) 
-0

>  <i_i_glide_confnum>  (169) 
1

>  <i_i_glide_posenum>  (169) 
35

>  <r_i_glide_eff_state_penalty>  (169) 
0

>  <ligand_id>  (169) 
46

>  <original_smiles>  (169) 
C=C1C2=CC(C)(C)OCC2C2CC3(C=C(Cl)C(=O)O)CC4(F)C5CCC16C=CC=CC23CC5C6(C)C4C(=O)O

>  <smiles>  (169) 
[H]C([H])=C1C2=C([H])C(C([H])([H])[H])(C([H])([H])[H])OC([H])([H])C2([H])C2([H])C([H])([H])C3(C([H])=C(Cl)C(=O)[O-])C([H])([H])C4(F)C([H])(C(=O)[O-])C5(C([H])([H])[H])C16C([H])=C([H])C([H])=C([H])C23C([H])([H])C5([H])C4([H])C([H])([H])C6([H])[H]

$$$$
46:0:1
     RDKit          3D

 73 79  0  0  1  0  0  0  0  0999 V2000
    2.2285  -11.1079    5.1194 C   0  0  0  0  0  0  0  0  0  0  0  0
    2.9600  -10.1066    4.5918 C   0  0  0  0  0  0  0  0  0  0  0  0
    2.2334   -8.9962    3.6605 C   0  0  0  0  0  0  0  0  0  0  0  0
    0.9492   -8.7286    3.9980 C   0  0  0  0  0  0  0  0  0  0  0  0
   -0.0181   -7.7941    3.2829 C   0  0  0  0  0  0  0  0  0  0  0  0
   -1.2870   -8.5840    2.9065 C   0  0  0  0  0  0  0  0  0  0  0  0
   -0.3567   -6.6002    4.1970 C   0  0  0  0  0  0  0  0  0  0  0  0
    0.5004   -7.3137    2.0434 O   0  0  0  0  0  0  0  0  0  0  0  0
    1.8660   -6.9262    2.0493 C   0  0  0  0  0  0  0  0  0  0  0  0
    2.7826   -8.1483    2.2775 C   0  0  1  0  0  0  0  0  0  0  0  0
    4.4019   -7.7743    1.6572 C   0  0  1  0  0  0  0  0  0  0  0  0
    4.8100   -6.3631    1.3149 C   0  0  0  0  0  0  0  0  0  0  0  0
    6.2085   -6.5438    1.9594 C   0  0  1  0  0  0  0  0  0  0  0  0
    7.3795   -5.9901    1.1309 C   0  0  0  0  0  0  0  0  0  0  0  0
    7.5209   -4.7939    0.5003 C   0  0  0  0  0  0  0  0  0  0  0  0
    8.9987   -4.5012   -0.3617 Cl  0  0  0  0  0  0  0  0  0  0  0  0
    6.5089   -3.5936    0.4537 C   0  0  0  0  0  0  0  0  0  0  0  0
    5.4545   -3.7004    1.0936 O   0  0  0  0  0  0  0  0  0  0  0  0
    6.8859   -2.5893   -0.2160 O   0  0  0  0  0  0  0  0  0  0  0  0
    6.1654   -5.8784    3.4451 C   0  0  0  0  0  0  0  0  0  0  0  0
    5.6594   -6.7168    4.7527 C   0  0  2  0  0  0  0  0  0  0  0  0
    5.5824   -5.7788    5.7037 F   0  0  0  0  0  0  0  0  0  0  0  0
    6.4936   -7.8399    5.3908 C   0  0  1  0  0  0  0  0  0  0  0  0
    5.9251   -8.6132    6.6354 C   0  0  0  0  0  0  0  0  0  0  0  0
    4.9997   -9.8814    6.3605 C   0  0  0  0  0  0  0  0  0  0  0  0
    4.5814  -10.2216    4.8646 C   0  0  1  0  0  0  0  0  0  0  0  0
    5.6210  -11.4296    4.3305 C   0  0  0  0  0  0  0  0  0  0  0  0
    6.5486  -11.5263    3.2264 C   0  0  0  0  0  0  0  0  0  0  0  0
    6.9486  -10.7743    1.8462 C   0  0  0  0  0  0  0  0  0  0  0  0
    6.7770   -9.4892    1.2308 C   0  0  0  0  0  0  0  0  0  0  0  0
    6.1401   -8.1297    1.9460 C   0  0  2  0  0  0  0  0  0  0  0  0
    7.1576   -8.3003    3.1656 C   0  0  0  0  0  0  0  0  0  0  0  0
    6.4268   -8.8296    4.3098 C   0  0  2  0  0  0  0  0  0  0  0  0
    4.8718   -9.1568    3.9474 C   0  0  1  0  0  0  0  0  0  0  0  0
    4.2611  -10.2505    2.5174 C   0  0  0  0  0  0  0  0  0  0  0  0
    4.3985   -7.5603    4.5062 C   0  0  1  0  0  0  0  0  0  0  0  0
    3.3148   -7.1473    5.6056 C   0  0  0  0  0  0  0  0  0  0  0  0
    2.9307   -7.9229    6.5044 O   0  0  0  0  0  0  0  0  0  0  0  0
    2.8421   -5.9883    5.5010 O   0  0  0  0  0  0  0  0  0  0  0  0
    1.1603  -11.2098    4.9779 H   0  0  0  0  0  0  0  0  0  0  0  0
    2.6966  -11.8751    5.7201 H   0  0  0  0  0  0  0  0  0  0  0  0
    0.5189   -9.1943    4.8704 H   0  0  0  0  0  0  0  0  0  0  0  0
   -1.7828   -8.9918    3.7885 H   0  0  0  0  0  0  0  0  0  0  0  0
   -1.0423   -9.4254    2.2546 H   0  0  0  0  0  0  0  0  0  0  0  0
   -2.0096   -7.9641    2.3783 H   0  0  0  0  0  0  0  0  0  0  0  0
   -0.8138   -6.9249    5.1316 H   0  0  0  0  0  0  0  0  0  0  0  0
   -1.0458   -5.9176    3.7148 H   0  0  0  0  0  0  0  0  0  0  0  0
    0.5272   -6.0189    4.4570 H   0  0  0  0  0  0  0  0  0  0  0  0
    2.0637   -6.4829    1.0723 H   0  0  0  0  0  0  0  0  0  0  0  0
    2.0467   -6.1442    2.7851 H   0  0  0  0  0  0  0  0  0  0  0  0
    2.3849   -8.7916    1.4919 H   0  0  0  0  0  0  0  0  0  0  0  0
    4.2843   -8.1461    0.6392 H   0  0  0  0  0  0  0  0  0  0  0  0
    4.7990   -6.1379    0.2457 H   0  0  0  0  0  0  0  0  0  0  0  0
    4.1951   -5.6223    1.8361 H   0  0  0  0  0  0  0  0  0  0  0  0
    8.2145   -6.6700    1.0528 H   0  0  0  0  0  0  0  0  0  0  0  0
    7.1474   -5.4712    3.6858 H   0  0  0  0  0  0  0  0  0  0  0  0
    5.5503   -4.9761    3.4044 H   0  0  0  0  0  0  0  0  0  0  0  0
    7.5087   -7.4997    5.6024 H   0  0  0  0  0  0  0  0  0  0  0  0
    6.7741   -8.9674    7.2218 H   0  0  0  0  0  0  0  0  0  0  0  0
    5.4288   -7.9141    7.3122 H   0  0  0  0  0  0  0  0  0  0  0  0
    5.5252  -10.7410    6.7768 H   0  0  0  0  0  0  0  0  0  0  0  0
    4.1294   -9.8618    7.0150 H   0  0  0  0  0  0  0  0  0  0  0  0
    5.6501  -12.2619    5.0213 H   0  0  0  0  0  0  0  0  0  0  0  0
    6.3970  -10.5795    3.0313 H   0  0  0  0  0  0  0  0  0  0  0  0
    7.4647  -11.4689    1.2170 H   0  0  0  0  0  0  0  0  0  0  0  0
    5.9732   -9.1306    1.6960 H   0  0  0  0  0  0  0  0  0  0  0  0
    8.0397   -8.9122    2.9808 H   0  0  0  0  0  0  0  0  0  0  0  0
    7.8308   -7.4796    3.3599 H   0  0  0  0  0  0  0  0  0  0  0  0
    7.0842   -9.6068    4.6936 H   0  0  0  0  0  0  0  0  0  0  0  0
    4.3674  -11.3260    2.4822 H   0  0  0  0  0  0  0  0  0  0  0  0
    3.2202  -10.5072    2.3209 H   0  0  0  0  0  0  0  0  0  0  0  0
    4.3807  -10.1107    1.4520 H   0  0  0  0  0  0  0  0  0  0  0  0
    3.9878   -6.9150    3.7669 H   0  0  0  0  0  0  0  0  0  0  0  0
  1  2  2  0
  1 40  1  0
  1 41  1  0
  2 26  1  0
  2  3  1  0
  3 10  1  0
  3  4  2  0
  4  5  1  0
  4 42  1  0
  5  6  1  0
  5  7  1  0
  5  8  1  0
  6 43  1  0
  6 44  1  0
  6 45  1  0
  7 46  1  0
  7 47  1  0
  7 48  1  0
  8  9  1  0
  9 10  1  0
  9 49  1  0
  9 50  1  0
 10 11  1  0
 10 51  1  6
 11 31  1  0
 11 12  1  0
 11 52  1  6
 13 12  1  6
 12 53  1  0
 12 54  1  0
 13 31  1  0
 13 14  1  0
 13 20  1  0
 14 15  2  3
 14 55  1  0
 15 16  1  0
 15 17  1  0
 17 18  2  0
 17 19  1  0
 20 21  1  0
 20 56  1  0
 20 57  1  0
 21 36  1  0
 21 22  1  1
 21 23  1  0
 23 33  1  0
 23 24  1  0
 23 58  1  1
 24 25  1  0
 24 59  1  0
 24 60  1  0
 26 25  1  1
 25 61  1  0
 25 62  1  0
 26 34  1  0
 26 27  1  0
 27 28  2  3
 27 63  1  0
 28 29  1  0
 28 64  1  0
 29 30  2  3
 29 65  1  0
 31 30  1  6
 30 66  1  0
 31 32  1  0
 32 33  1  0
 32 67  1  0
 32 68  1  0
 33 34  1  0
 33 69  1  1
 34 35  1  6
 34 36  1  0
 35 70  1  0
 35 71  1  0
 35 72  1  0
 36 37  1  0
 36 73  1  6
 37 38  2  0
 37 39  1  0
M  CHG  2  19  -1  39  -1
M  END
>  <i_m_ct_stereo_status>  (170) 
1

>  <s_m_source_file>  (170) 
/var/tmp/pbs.5076255.sched01/tmpn9kf4o8v/46f5dlbpu8.sdf

>  <i_m_source_file_index>  (170) 
20

>  <i_lp_mmshare_version>  (170) 
48012

>  <i_f3d_flags>  (170) 
3

>  <s_epik_input>  (170) 
W0NIMl0xT0MoW0NIM10pKFtDSDNdKVtDSF09QyhDMj1bQ0gyXSlbQ0BASF0xW0NAQEhdKFtDSDJdMylbQ0BAXShbQ0gyXTQpKFxbQ0hdPVtDSF0vW0NIXT1bQ0hdXDUpW0NAXTMoL1tDSF09QyhcQ2wpQyg9TylbT0hdKVtDSDJdW0NAXShGKShbQ0BASF02Qyg9TylbT0hdKVtDQEhdKFtDSDJdW0NIMl03KVtDQEhdNFtDQEBdNihbQ0BAXTI1NylbQ0gzXQ==

>  <s_epik_cmdline>  (170) 
J2VwaWtfcHl0aG9uJywgJy1waHQnLCAnMi4wJywgJy1waCcsICc3LjAnLCAnLXRuJywgJzgnLCAnLW1hJywgJzIwMCcsICctaW1hZScsICc8aW5maWxlLm1hZT4nLCAnLW9tYWUnLCAnPG91dGZpbGUubWFlPic=

>  <r_lp_tautomer_probability>  (170) 
1

>  <r_epik_Ionization_Penalty>  (170) 
0.0003382

>  <r_epik_Ionization_Penalty_Charging>  (170) 
0.0003382

>  <r_epik_Ionization_Penalty_Neutral>  (170) 
4.09804e-12

>  <r_epik_State_Penalty>  (170) 
-0

>  <r_epik_Charging_Adjusted_Penalty>  (170) 
0.0003382

>  <i_epik_Tot_Q>  (170) 
-2

>  <i_epik_Tot_abs_Q>  (170) 
2

>  <s_lp_Force_Field>  (170) 
OPLS3e

>  <r_lp_Energy>  (170) 
602.216

>  <b_lp_Chiralities_Consistent>  (170) 
0

>  <s_lp_Variant>  (170) 
46:0-1

>  <s_i_glide_gridfile>  (170) 
pfpi4k_grid

>  <i_i_glide_lignum>  (170) 
20

>  <i_i_glide_rotatable_bonds>  (170) 
3

>  <r_i_docking_score>  (170) 
1.73514

>  <r_i_glide_ligand_efficiency>  (170) 
0.0444908

>  <r_i_glide_ligand_efficiency_sa>  (170) 
0.150878

>  <r_i_glide_ligand_efficiency_ln>  (170) 
0.372064

>  <r_i_glide_gscore>  (170) 
1.73514

>  <r_i_glide_lipo>  (170) 
-0.473087

>  <r_i_glide_hbond>  (170) 
0

>  <r_i_glide_metal>  (170) 
-0

>  <r_i_glide_rewards>  (170) 
-0.13617

>  <r_i_glide_evdw>  (170) 
-29.3587

>  <r_i_glide_ecoul>  (170) 
0.557235

>  <r_i_glide_erotb>  (170) 
0.0636809

>  <r_i_glide_esite>  (170) 
0

>  <r_i_glide_emodel>  (170) 
-14.1222

>  <r_i_glide_energy>  (170) 
-28.8015

>  <r_i_glide_einternal>  (170) 
0.488368

>  <r_i_glide_intrahb_reward>  (170) 
-0

>  <i_i_glide_confnum>  (170) 
2

>  <i_i_glide_posenum>  (170) 
4

>  <r_i_glide_eff_state_penalty>  (170) 
0

>  <ligand_id>  (170) 
46

>  <original_smiles>  (170) 
C=C1C2=CC(C)(C)OCC2C2CC3(C=C(Cl)C(=O)O)CC4(F)C5CCC16C=CC=CC23CC5C6(C)C4C(=O)O

>  <smiles>  (170) 
[H]C([H])=C1C2=C([H])C(C([H])([H])[H])(C([H])([H])[H])OC([H])([H])C2([H])C2([H])C([H])([H])C3(C([H])=C(Cl)C(=O)[O-])C([H])([H])C4(F)C([H])(C(=O)[O-])C5(C([H])([H])[H])C16C([H])=C([H])C([H])=C([H])C23C([H])([H])C5([H])C4([H])C([H])([H])C6([H])[H]

$$$$
46:0:2
     RDKit          3D

 73 79  0  0  1  0  0  0  0  0999 V2000
    2.7624  -10.6725    4.2919 C   0  0  0  0  0  0  0  0  0  0  0  0
    3.1017   -9.3808    4.0882 C   0  0  0  0  0  0  0  0  0  0  0  0
    2.0260   -8.3760    3.4090 C   0  0  0  0  0  0  0  0  0  0  0  0
    0.7299   -8.6470    3.7005 C   0  0  0  0  0  0  0  0  0  0  0  0
   -0.5081   -7.9355    3.1636 C   0  0  0  0  0  0  0  0  0  0  0  0
   -1.4298   -8.9781    2.5030 C   0  0  0  0  0  0  0  0  0  0  0  0
   -1.2343   -7.2034    4.3100 C   0  0  0  0  0  0  0  0  0  0  0  0
   -0.1994   -7.0011    2.1296 O   0  0  0  0  0  0  0  0  0  0  0  0
    0.9552   -6.2042    2.3483 C   0  0  0  0  0  0  0  0  0  0  0  0
    2.2333   -7.0595    2.3340 C   0  0  1  0  0  0  0  0  0  0  0  0
    3.6139   -6.0044    1.9750 C   0  0  1  0  0  0  0  0  0  0  0  0
    3.4978   -4.4842    2.0372 C   0  0  0  0  0  0  0  0  0  0  0  0
    4.8936   -4.3720    2.7031 C   0  0  1  0  0  0  0  0  0  0  0  0
    5.7889   -3.2507    2.1428 C   0  0  0  0  0  0  0  0  0  0  0  0
    6.1816   -2.9717    0.8754 C   0  0  0  0  0  0  0  0  0  0  0  0
    7.2601   -1.6311    0.6325 Cl  0  0  0  0  0  0  0  0  0  0  0  0
    5.7966   -3.6993   -0.4576 C   0  0  0  0  0  0  0  0  0  0  0  0
    5.1212   -4.7351   -0.3810 O   0  0  0  0  0  0  0  0  0  0  0  0
    6.2033   -3.1540   -1.5143 O   0  0  0  0  0  0  0  0  0  0  0  0
    4.6372   -4.1794    4.2987 C   0  0  0  0  0  0  0  0  0  0  0  0
    4.4640   -5.4520    5.3093 C   0  0  2  0  0  0  0  0  0  0  0  0
    4.0754   -4.8753    6.4522 F   0  0  0  0  0  0  0  0  0  0  0  0
    5.6443   -6.3555    5.7127 C   0  0  1  0  0  0  0  0  0  0  0  0
    5.3922   -7.5711    6.6777 C   0  0  0  0  0  0  0  0  0  0  0  0
    4.9610   -8.9581    6.0204 C   0  0  0  0  0  0  0  0  0  0  0  0
    4.6677   -9.0144    4.4551 C   0  0  1  0  0  0  0  0  0  0  0  0
    6.0548   -9.6213    3.7244 C   0  0  0  0  0  0  0  0  0  0  0  0
    6.9429   -9.0988    2.7023 C   0  0  0  0  0  0  0  0  0  0  0  0
    7.0593   -7.9302    1.6125 C   0  0  0  0  0  0  0  0  0  0  0  0
    6.4343   -6.6501    1.3438 C   0  0  0  0  0  0  0  0  0  0  0  0
    5.3684   -5.8321    2.3092 C   0  0  2  0  0  0  0  0  0  0  0  0
    6.4131   -5.9609    3.5217 C   0  0  0  0  0  0  0  0  0  0  0  0
    5.9176   -6.9884    4.4179 C   0  0  2  0  0  0  0  0  0  0  0  0
    4.5614   -7.7090    3.8641 C   0  0  1  0  0  0  0  0  0  0  0  0
    4.3509   -8.5227    2.1614 C   0  0  0  0  0  0  0  0  0  0  0  0
    3.5664   -6.5699    4.7630 C   0  0  1  0  0  0  0  0  0  0  0  0
    2.4331   -6.8760    5.8459 C   0  0  0  0  0  0  0  0  0  0  0  0
    1.5498   -5.9860    6.0100 O   0  0  0  0  0  0  0  0  0  0  0  0
    2.3908   -7.9360    6.4776 O   0  0  0  0  0  0  0  0  0  0  0  0
    1.7939  -11.0824    4.0436 H   0  0  0  0  0  0  0  0  0  0  0  0
    3.4718  -11.3627    4.7224 H   0  0  0  0  0  0  0  0  0  0  0  0
    0.4935   -9.4412    4.3919 H   0  0  0  0  0  0  0  0  0  0  0  0
   -1.7448   -9.7435    3.2128 H   0  0  0  0  0  0  0  0  0  0  0  0
   -0.9214   -9.4900    1.6853 H   0  0  0  0  0  0  0  0  0  0  0  0
   -2.3285   -8.5243    2.0882 H   0  0  0  0  0  0  0  0  0  0  0  0
   -1.5299   -7.9032    5.0905 H   0  0  0  0  0  0  0  0  0  0  0  0
   -2.1313   -6.6924    3.9653 H   0  0  0  0  0  0  0  0  0  0  0  0
   -0.6014   -6.4546    4.7834 H   0  0  0  0  0  0  0  0  0  0  0  0
    0.9871   -5.4805    1.5336 H   0  0  0  0  0  0  0  0  0  0  0  0
    0.8610   -5.6254    3.2667 H   0  0  0  0  0  0  0  0  0  0  0  0
    2.0765   -7.5685    1.3817 H   0  0  0  0  0  0  0  0  0  0  0  0
    3.6084   -6.1264    0.8915 H   0  0  0  0  0  0  0  0  0  0  0  0
    3.3735   -4.0043    1.0669 H   0  0  0  0  0  0  0  0  0  0  0  0
    2.6819   -4.1492    2.6756 H   0  0  0  0  0  0  0  0  0  0  0  0
    6.1687   -2.5831    2.9016 H   0  0  0  0  0  0  0  0  0  0  0  0
    5.4225   -3.5514    4.7192 H   0  0  0  0  0  0  0  0  0  0  0  0
    3.7528   -3.5536    4.4328 H   0  0  0  0  0  0  0  0  0  0  0  0
    6.4806   -5.7621    6.0839 H   0  0  0  0  0  0  0  0  0  0  0  0
    6.3176   -7.7579    7.2243 H   0  0  0  0  0  0  0  0  0  0  0  0
    4.6932   -7.2799    7.4658 H   0  0  0  0  0  0  0  0  0  0  0  0
    5.7544   -9.6660    6.2500 H   0  0  0  0  0  0  0  0  0  0  0  0
    4.1517   -9.4135    6.5924 H   0  0  0  0  0  0  0  0  0  0  0  0
    6.3694  -10.5389    4.2044 H   0  0  0  0  0  0  0  0  0  0  0  0
    6.4568   -8.2705    2.7320 H   0  0  0  0  0  0  0  0  0  0  0  0
    7.7626   -8.2273    0.8505 H   0  0  0  0  0  0  0  0  0  0  0  0
    5.5592   -6.7153    1.7321 H   0  0  0  0  0  0  0  0  0  0  0  0
    7.4488   -6.1760    3.2526 H   0  0  0  0  0  0  0  0  0  0  0  0
    6.7549   -5.0594    3.9705 H   0  0  0  0  0  0  0  0  0  0  0  0
    6.8058   -7.5793    4.6452 H   0  0  0  0  0  0  0  0  0  0  0  0
    4.8220   -9.4459    1.8633 H   0  0  0  0  0  0  0  0  0  0  0  0
    3.4685   -9.0489    1.8187 H   0  0  0  0  0  0  0  0  0  0  0  0
    4.4097   -8.0777    1.1819 H   0  0  0  0  0  0  0  0  0  0  0  0
    2.9456   -5.9295    4.1840 H   0  0  0  0  0  0  0  0  0  0  0  0
  1  2  2  0
  1 40  1  0
  1 41  1  0
  2 26  1  0
  2  3  1  0
  3 10  1  0
  3  4  2  0
  4  5  1  0
  4 42  1  0
  5  6  1  0
  5  7  1  0
  5  8  1  0
  6 43  1  0
  6 44  1  0
  6 45  1  0
  7 46  1  0
  7 47  1  0
  7 48  1  0
  8  9  1  0
  9 10  1  0
  9 49  1  0
  9 50  1  0
 10 11  1  0
 10 51  1  6
 11 31  1  0
 11 12  1  0
 11 52  1  6
 13 12  1  6
 12 53  1  0
 12 54  1  0
 13 31  1  0
 13 14  1  0
 13 20  1  0
 14 15  2  3
 14 55  1  0
 15 16  1  0
 15 17  1  0
 17 18  2  0
 17 19  1  0
 20 21  1  0
 20 56  1  0
 20 57  1  0
 21 36  1  0
 21 22  1  1
 21 23  1  0
 23 33  1  0
 23 24  1  0
 23 58  1  1
 24 25  1  0
 24 59  1  0
 24 60  1  0
 26 25  1  1
 25 61  1  0
 25 62  1  0
 26 34  1  0
 26 27  1  0
 27 28  2  3
 27 63  1  0
 28 29  1  0
 28 64  1  0
 29 30  2  3
 29 65  1  0
 31 30  1  6
 30 66  1  0
 31 32  1  0
 32 33  1  0
 32 67  1  0
 32 68  1  0
 33 34  1  0
 33 69  1  1
 34 35  1  6
 34 36  1  0
 35 70  1  0
 35 71  1  0
 35 72  1  0
 36 37  1  0
 36 73  1  6
 37 38  2  0
 37 39  1  0
M  CHG  2  19  -1  39  -1
M  END
>  <i_m_ct_stereo_status>  (171) 
1

>  <s_m_source_file>  (171) 
/var/tmp/pbs.5076255.sched01/tmpn9kf4o8v/46f5dlbpu8.sdf

>  <i_m_source_file_index>  (171) 
20

>  <i_lp_mmshare_version>  (171) 
48012

>  <i_f3d_flags>  (171) 
3

>  <s_epik_input>  (171) 
W0NIMl0xT0MoW0NIM10pKFtDSDNdKVtDSF09QyhDMj1bQ0gyXSlbQ0BASF0xW0NAQEhdKFtDSDJdMylbQ0BAXShbQ0gyXTQpKFxbQ0hdPVtDSF0vW0NIXT1bQ0hdXDUpW0NAXTMoL1tDSF09QyhcQ2wpQyg9TylbT0hdKVtDSDJdW0NAXShGKShbQ0BASF02Qyg9TylbT0hdKVtDQEhdKFtDSDJdW0NIMl03KVtDQEhdNFtDQEBdNihbQ0BAXTI1NylbQ0gzXQ==

>  <s_epik_cmdline>  (171) 
J2VwaWtfcHl0aG9uJywgJy1waHQnLCAnMi4wJywgJy1waCcsICc3LjAnLCAnLXRuJywgJzgnLCAnLW1hJywgJzIwMCcsICctaW1hZScsICc8aW5maWxlLm1hZT4nLCAnLW9tYWUnLCAnPG91dGZpbGUubWFlPic=

>  <r_lp_tautomer_probability>  (171) 
1

>  <r_epik_Ionization_Penalty>  (171) 
0.0003382

>  <r_epik_Ionization_Penalty_Charging>  (171) 
0.0003382

>  <r_epik_Ionization_Penalty_Neutral>  (171) 
4.09804e-12

>  <r_epik_State_Penalty>  (171) 
-0

>  <r_epik_Charging_Adjusted_Penalty>  (171) 
0.0003382

>  <i_epik_Tot_Q>  (171) 
-2

>  <i_epik_Tot_abs_Q>  (171) 
2

>  <s_lp_Force_Field>  (171) 
OPLS3e

>  <r_lp_Energy>  (171) 
602.216

>  <b_lp_Chiralities_Consistent>  (171) 
0

>  <s_lp_Variant>  (171) 
46:0-1

>  <s_i_glide_gridfile>  (171) 
pfpi4k_grid

>  <i_i_glide_lignum>  (171) 
20

>  <i_i_glide_rotatable_bonds>  (171) 
3

>  <r_i_docking_score>  (171) 
2.21139

>  <r_i_glide_ligand_efficiency>  (171) 
0.0567022

>  <r_i_glide_ligand_efficiency_sa>  (171) 
0.192289

>  <r_i_glide_ligand_efficiency_ln>  (171) 
0.474184

>  <r_i_glide_gscore>  (171) 
2.21139

>  <r_i_glide_lipo>  (171) 
-0.610808

>  <r_i_glide_hbond>  (171) 
-0.081425

>  <r_i_glide_metal>  (171) 
-0

>  <r_i_glide_rewards>  (171) 
-0.083316

>  <r_i_glide_evdw>  (171) 
-27.5976

>  <r_i_glide_ecoul>  (171) 
0.846788

>  <r_i_glide_erotb>  (171) 
0.0636809

>  <r_i_glide_esite>  (171) 
0

>  <r_i_glide_emodel>  (171) 
-9.27418

>  <r_i_glide_energy>  (171) 
-26.7509

>  <r_i_glide_einternal>  (171) 
2.1471

>  <r_i_glide_intrahb_reward>  (171) 
-0

>  <i_i_glide_confnum>  (171) 
4

>  <i_i_glide_posenum>  (171) 
38

>  <r_i_glide_eff_state_penalty>  (171) 
0

>  <ligand_id>  (171) 
46

>  <original_smiles>  (171) 
C=C1C2=CC(C)(C)OCC2C2CC3(C=C(Cl)C(=O)O)CC4(F)C5CCC16C=CC=CC23CC5C6(C)C4C(=O)O

>  <smiles>  (171) 
[H]C([H])=C1C2=C([H])C(C([H])([H])[H])(C([H])([H])[H])OC([H])([H])C2([H])C2([H])C([H])([H])C3(C([H])=C(Cl)C(=O)[O-])C([H])([H])C4(F)C([H])(C(=O)[O-])C5(C([H])([H])[H])C16C([H])=C([H])C([H])=C([H])C23C([H])([H])C5([H])C4([H])C([H])([H])C6([H])[H]

$$$$
47:0:0
     RDKit          3D

 37 39  0  0  1  0  0  0  0  0999 V2000
    2.9196   -2.9810   -2.7197 C   0  0  0  0  0  0  0  0  0  0  0  0
    4.1024   -2.2879   -2.0205 C   0  0  0  0  0  0  0  0  0  0  0  0
    4.5638   -1.0704   -2.8420 C   0  0  0  0  0  0  0  0  0  0  0  0
    3.6378   -1.7594   -0.6775 C   0  0  0  0  0  0  0  0  0  0  0  0
    4.3563   -1.8111    0.4534 C   0  0  0  0  0  0  0  0  0  0  0  0
    3.7760   -1.3756    1.6159 O   0  0  0  0  0  0  0  0  0  0  0  0
    4.0597   -1.9746    2.8197 C   0  0  0  0  0  0  0  0  0  0  0  0
    3.6214   -1.2286    3.8404 N   0  0  0  0  0  0  0  0  0  0  0  0
    5.3414   -2.7899    2.9852 C   0  0  1  0  0  0  0  0  0  0  0  0
    5.2590   -3.7442    4.1019 C   0  0  0  0  0  0  0  0  0  0  0  0
    5.2035   -4.4987    4.9825 N   0  0  0  0  0  0  0  0  0  0  0  0
    5.8256   -3.4357    1.6723 C   0  0  1  0  0  0  0  0  0  0  0  0
    5.1361   -4.7329    1.3610 C   0  0  0  0  0  0  0  0  0  0  0  0
    3.7998   -4.9451    1.1300 C   0  0  0  0  0  0  0  0  0  0  0  0
    3.4909   -6.3055    0.8747 C   0  0  0  0  0  0  0  0  0  0  0  0
    4.5904   -7.1198    0.9176 C   0  0  0  0  0  0  0  0  0  0  0  0
    6.0361   -6.2247    1.2787 S   0  0  0  0  0  0  0  0  0  0  0  0
    5.7611   -2.3862    0.5585 C   0  0  1  0  0  0  0  0  0  0  0  0
    6.2825   -2.8709   -0.8072 C   0  0  0  0  0  0  0  0  0  0  0  0
    7.4829   -2.8716   -1.0554 O   0  0  0  0  0  0  0  0  0  0  0  0
    5.2411   -3.3232   -1.8387 C   0  0  0  0  0  0  0  0  0  0  0  0
    3.2088   -3.3724   -3.6926 H   0  0  0  0  0  0  0  0  0  0  0  0
    2.0820   -2.2971   -2.8574 H   0  0  0  0  0  0  0  0  0  0  0  0
    2.5633   -3.8179   -2.1184 H   0  0  0  0  0  0  0  0  0  0  0  0
    4.9211   -1.3756   -3.8259 H   0  0  0  0  0  0  0  0  0  0  0  0
    5.3731   -0.5399   -2.3277 H   0  0  0  0  0  0  0  0  0  0  0  0
    3.7460   -0.3557   -2.9744 H   0  0  0  0  0  0  0  0  0  0  0  0
    2.6342   -1.3692   -0.6325 H   0  0  0  0  0  0  0  0  0  0  0  0
    3.9968   -1.6391    4.7045 H   0  0  0  0  0  0  0  0  0  0  0  0
    6.8795   -3.6740    1.8032 H   0  0  0  0  0  0  0  0  0  0  0  0
    3.0303   -4.1851    1.1231 H   0  0  0  0  0  0  0  0  0  0  0  0
    2.4846   -6.6329    0.6613 H   0  0  0  0  0  0  0  0  0  0  0  0
    4.6325   -8.1869    0.7593 H   0  0  0  0  0  0  0  0  0  0  0  0
    6.4056   -1.5550    0.8492 H   0  0  0  0  0  0  0  0  0  0  0  0
    4.8290   -4.2763   -1.5050 H   0  0  0  0  0  0  0  0  0  0  0  0
    5.7275   -3.5180   -2.7906 H   0  0  0  0  0  0  0  0  0  0  0  0
    6.0975   -2.0564    3.2689 H   0  0  0  0  0  0  0  0  0  0  0  0
  1  2  1  0
  1 22  1  0
  1 23  1  0
  1 24  1  0
  2 21  1  0
  2  3  1  0
  2  4  1  0
  3 25  1  0
  3 26  1  0
  3 27  1  0
  4  5  2  0
  4 28  1  0
  5 18  1  0
  5  6  1  0
  6  7  1  0
  7  8  1  0
  7  9  1  0
  8 29  1  0
  9 10  1  0
  9 12  1  0
  9 37  1  1
 10 11  3  0
 12 13  1  0
 12 18  1  0
 12 30  1  1
 13 17  1  0
 13 14  2  0
 14 15  1  0
 14 31  1  0
 15 16  2  0
 15 32  1  0
 16 17  1  0
 16 33  1  0
 18 19  1  0
 18 34  1  1
 19 20  2  0
 19 21  1  0
 21 35  1  0
 21 36  1  0
M  CHG  2   7   1   8  -1
M  END
>  <i_m_ct_stereo_status>  (172) 
1

>  <s_m_source_file>  (172) 
/var/tmp/pbs.5076255.sched01/tmpn9kf4o8v/46f5dlbpu8.sdf

>  <i_m_source_file_index>  (172) 
21

>  <i_lp_mmshare_version>  (172) 
48012

>  <i_f3d_flags>  (172) 
0

>  <s_epik_input>  (172) 
W0NIM11DKFtDSDNdKShbQ0hdPTEpW0NIMl1DKD1PKVtDQEBIXShDMTIpW0NAQEhdKFtDQEhdKEMjTilDKFxPMik9TlxbSF0pYzNbY0hdW2NIXVtjSF1zMw==

>  <s_epik_cmdline>  (172) 
J2VwaWtfcHl0aG9uJywgJy1waHQnLCAnMi4wJywgJy1waCcsICc3LjAnLCAnLXRuJywgJzgnLCAnLW1hJywgJzIwMCcsICctaW1hZScsICc8aW5maWxlLm1hZT4nLCAnLW9tYWUnLCAnPG91dGZpbGUubWFlPic=

>  <r_lp_tautomer_probability>  (172) 
0.99995

>  <r_epik_Ionization_Penalty>  (172) 
3.84647e-10

>  <r_epik_Ionization_Penalty_Charging>  (172) 
0

>  <r_epik_Ionization_Penalty_Neutral>  (172) 
3.84647e-10

>  <r_epik_State_Penalty>  (172) 
0.827436

>  <r_epik_Charging_Adjusted_Penalty>  (172) 
0.827436

>  <i_epik_Tot_Q>  (172) 
0

>  <i_epik_Tot_abs_Q>  (172) 
2

>  <s_lp_Force_Field>  (172) 
OPLS3e

>  <r_lp_Energy>  (172) 
10.2851

>  <b_lp_Chiralities_Consistent>  (172) 
1

>  <s_lp_Variant>  (172) 
47:0-1

>  <s_i_glide_gridfile>  (172) 
pfpi4k_grid

>  <i_i_glide_lignum>  (172) 
21

>  <i_i_glide_rotatable_bonds>  (172) 
2

>  <r_i_docking_score>  (172) 
-3.28733

>  <r_i_glide_ligand_efficiency>  (172) 
-0.156539

>  <r_i_glide_ligand_efficiency_sa>  (172) 
-0.43188

>  <r_i_glide_ligand_efficiency_ln>  (172) 
-0.812785

>  <r_i_glide_gscore>  (172) 
-3.28733

>  <r_i_glide_lipo>  (172) 
-0.566958

>  <r_i_glide_hbond>  (172) 
-0.0307907

>  <r_i_glide_metal>  (172) 
-0

>  <r_i_glide_rewards>  (172) 
-1.40131

>  <r_i_glide_evdw>  (172) 
-24.0182

>  <r_i_glide_ecoul>  (172) 
-1.94053

>  <r_i_glide_erotb>  (172) 
0.203719

>  <r_i_glide_esite>  (172) 
0

>  <r_i_glide_emodel>  (172) 
-30.0587

>  <r_i_glide_energy>  (172) 
-25.9587

>  <r_i_glide_einternal>  (172) 
2.17553

>  <r_i_glide_intrahb_reward>  (172) 
-0

>  <i_i_glide_confnum>  (172) 
4

>  <i_i_glide_posenum>  (172) 
19

>  <r_i_glide_eff_state_penalty>  (172) 
0

>  <ligand_id>  (172) 
47

>  <original_smiles>  (172) 
CC1(C)C=C2OC(=N)C(C#N)C(c3cccs3)C2C(=O)C1

>  <smiles>  (172) 
[H][N-][C+]1OC2=C([H])C(C([H])([H])[H])(C([H])([H])[H])C([H])([H])C(=O)C2([H])C([H])(c2sc([H])c([H])c2[H])C1([H])C#N

$$$$
47:0:1
     RDKit          3D

 37 39  0  0  1  0  0  0  0  0999 V2000
    4.1162   -0.9517   -3.2044 C   0  0  0  0  0  0  0  0  0  0  0  0
    3.9005   -2.4158   -2.8349 C   0  0  0  0  0  0  0  0  0  0  0  0
    3.7280   -3.2568   -4.0910 C   0  0  0  0  0  0  0  0  0  0  0  0
    5.1056   -2.9322   -2.0937 C   0  0  0  0  0  0  0  0  0  0  0  0
    5.0460   -3.7184   -1.0001 C   0  0  0  0  0  0  0  0  0  0  0  0
    6.2197   -4.0141   -0.3616 O   0  0  0  0  0  0  0  0  0  0  0  0
    6.2854   -4.1931    0.9972 C   0  0  0  0  0  0  0  0  0  0  0  0
    7.4321   -4.8163    1.3036 N   0  0  0  0  0  0  0  0  0  0  0  0
    5.0149   -4.5062    1.7951 C   0  0  1  0  0  0  0  0  0  0  0  0
    5.1313   -4.1567    3.2270 C   0  0  0  0  0  0  0  0  0  0  0  0
    5.2055   -3.8871    4.3525 N   0  0  0  0  0  0  0  0  0  0  0  0
    3.7428   -3.9235    1.1480 C   0  0  1  0  0  0  0  0  0  0  0  0
    3.5184   -2.4769    1.4842 C   0  0  0  0  0  0  0  0  0  0  0  0
    4.2617   -1.3887    1.0969 C   0  0  0  0  0  0  0  0  0  0  0  0
    3.7378   -0.1620    1.5778 C   0  0  0  0  0  0  0  0  0  0  0  0
    2.6298   -0.3270    2.3626 C   0  0  0  0  0  0  0  0  0  0  0  0
    2.1875   -1.9984    2.4951 S   0  0  0  0  0  0  0  0  0  0  0  0
    3.7627   -4.2445   -0.3510 C   0  0  1  0  0  0  0  0  0  0  0  0
    2.5123   -3.7623   -1.1191 C   0  0  0  0  0  0  0  0  0  0  0  0
    1.4427   -4.3765   -1.1193 O   0  0  0  0  0  0  0  0  0  0  0  0
    2.6500   -2.4961   -1.9477 C   0  0  0  0  0  0  0  0  0  0  0  0
    3.2507   -0.5488   -3.7379 H   0  0  0  0  0  0  0  0  0  0  0  0
    4.9873   -0.8500   -3.8392 H   0  0  0  0  0  0  0  0  0  0  0  0
    4.2663   -0.3313   -2.3157 H   0  0  0  0  0  0  0  0  0  0  0  0
    2.8473   -2.9491   -4.6646 H   0  0  0  0  0  0  0  0  0  0  0  0
    3.6090   -4.3054   -3.8279 H   0  0  0  0  0  0  0  0  0  0  0  0
    4.6152   -3.1955   -4.7191 H   0  0  0  0  0  0  0  0  0  0  0  0
    6.0638   -2.5960   -2.4501 H   0  0  0  0  0  0  0  0  0  0  0  0
    7.3931   -5.0028    2.3136 H   0  0  0  0  0  0  0  0  0  0  0  0
    2.9046   -4.4723    1.5707 H   0  0  0  0  0  0  0  0  0  0  0  0
    5.1389   -1.4003    0.4616 H   0  0  0  0  0  0  0  0  0  0  0  0
    4.1935    0.7882    1.3303 H   0  0  0  0  0  0  0  0  0  0  0  0
    2.0487    0.4397    2.8524 H   0  0  0  0  0  0  0  0  0  0  0  0
    3.8061   -5.3286   -0.4458 H   0  0  0  0  0  0  0  0  0  0  0  0
    2.6677   -1.6766   -1.2231 H   0  0  0  0  0  0  0  0  0  0  0  0
    1.7522   -2.3682   -2.5528 H   0  0  0  0  0  0  0  0  0  0  0  0
    4.9130   -5.5923    1.7693 H   0  0  0  0  0  0  0  0  0  0  0  0
  1  2  1  0
  1 22  1  0
  1 23  1  0
  1 24  1  0
  2 21  1  0
  2  3  1  0
  2  4  1  0
  3 25  1  0
  3 26  1  0
  3 27  1  0
  4  5  2  0
  4 28  1  0
  5 18  1  0
  5  6  1  0
  6  7  1  0
  7  8  1  0
  7  9  1  0
  8 29  1  0
  9 10  1  0
  9 12  1  0
  9 37  1  1
 10 11  3  0
 12 13  1  0
 12 18  1  0
 12 30  1  1
 13 17  1  0
 13 14  2  0
 14 15  1  0
 14 31  1  0
 15 16  2  0
 15 32  1  0
 16 17  1  0
 16 33  1  0
 18 19  1  0
 18 34  1  1
 19 20  2  0
 19 21  1  0
 21 35  1  0
 21 36  1  0
M  CHG  2   7   1   8  -1
M  END
>  <i_m_ct_stereo_status>  (173) 
1

>  <s_m_source_file>  (173) 
/var/tmp/pbs.5076255.sched01/tmpn9kf4o8v/46f5dlbpu8.sdf

>  <i_m_source_file_index>  (173) 
21

>  <i_lp_mmshare_version>  (173) 
48012

>  <i_f3d_flags>  (173) 
0

>  <s_epik_input>  (173) 
W0NIM11DKFtDSDNdKShbQ0hdPTEpW0NIMl1DKD1PKVtDQEBIXShDMTIpW0NAQEhdKFtDQEhdKEMjTilDKFxPMik9TlxbSF0pYzNbY0hdW2NIXVtjSF1zMw==

>  <s_epik_cmdline>  (173) 
J2VwaWtfcHl0aG9uJywgJy1waHQnLCAnMi4wJywgJy1waCcsICc3LjAnLCAnLXRuJywgJzgnLCAnLW1hJywgJzIwMCcsICctaW1hZScsICc8aW5maWxlLm1hZT4nLCAnLW9tYWUnLCAnPG91dGZpbGUubWFlPic=

>  <r_lp_tautomer_probability>  (173) 
0.99995

>  <r_epik_Ionization_Penalty>  (173) 
3.84647e-10

>  <r_epik_Ionization_Penalty_Charging>  (173) 
0

>  <r_epik_Ionization_Penalty_Neutral>  (173) 
3.84647e-10

>  <r_epik_State_Penalty>  (173) 
0.827436

>  <r_epik_Charging_Adjusted_Penalty>  (173) 
0.827436

>  <i_epik_Tot_Q>  (173) 
0

>  <i_epik_Tot_abs_Q>  (173) 
2

>  <s_lp_Force_Field>  (173) 
OPLS3e

>  <r_lp_Energy>  (173) 
10.2851

>  <b_lp_Chiralities_Consistent>  (173) 
1

>  <s_lp_Variant>  (173) 
47:0-1

>  <s_i_glide_gridfile>  (173) 
pfpi4k_grid

>  <i_i_glide_lignum>  (173) 
21

>  <i_i_glide_rotatable_bonds>  (173) 
2

>  <r_i_docking_score>  (173) 
-3.25709

>  <r_i_glide_ligand_efficiency>  (173) 
-0.1551

>  <r_i_glide_ligand_efficiency_sa>  (173) 
-0.427908

>  <r_i_glide_ligand_efficiency_ln>  (173) 
-0.80531

>  <r_i_glide_gscore>  (173) 
-3.25709

>  <r_i_glide_lipo>  (173) 
-0.530312

>  <r_i_glide_hbond>  (173) 
0

>  <r_i_glide_metal>  (173) 
-0

>  <r_i_glide_rewards>  (173) 
-1.38985

>  <r_i_glide_evdw>  (173) 
-20.5422

>  <r_i_glide_ecoul>  (173) 
-3.30577

>  <r_i_glide_erotb>  (173) 
0.203719

>  <r_i_glide_esite>  (173) 
-0.0176804

>  <r_i_glide_emodel>  (173) 
-27.8048

>  <r_i_glide_energy>  (173) 
-23.8479

>  <r_i_glide_einternal>  (173) 
2.31029

>  <r_i_glide_intrahb_reward>  (173) 
-0

>  <i_i_glide_confnum>  (173) 
2

>  <i_i_glide_posenum>  (173) 
22

>  <r_i_glide_eff_state_penalty>  (173) 
0

>  <ligand_id>  (173) 
47

>  <original_smiles>  (173) 
CC1(C)C=C2OC(=N)C(C#N)C(c3cccs3)C2C(=O)C1

>  <smiles>  (173) 
[H][N-][C+]1OC2=C([H])C(C([H])([H])[H])(C([H])([H])[H])C([H])([H])C(=O)C2([H])C([H])(c2sc([H])c([H])c2[H])C1([H])C#N

$$$$
47:0:2
     RDKit          3D

 37 39  0  0  1  0  0  0  0  0999 V2000
    4.0326   -1.0654   -0.5157 C   0  0  0  0  0  0  0  0  0  0  0  0
    4.0445   -2.5816   -0.7624 C   0  0  0  0  0  0  0  0  0  0  0  0
    3.5522   -2.8908   -2.1862 C   0  0  0  0  0  0  0  0  0  0  0  0
    5.4739   -3.0698   -0.6716 C   0  0  0  0  0  0  0  0  0  0  0  0
    5.8440   -4.2066   -0.0556 C   0  0  0  0  0  0  0  0  0  0  0  0
    7.1856   -4.4419    0.0777 O   0  0  0  0  0  0  0  0  0  0  0  0
    7.7004   -5.1308    1.1464 C   0  0  0  0  0  0  0  0  0  0  0  0
    8.9748   -5.4569    0.9154 N   0  0  0  0  0  0  0  0  0  0  0  0
    6.7954   -5.9954    2.0287 C   0  0  1  0  0  0  0  0  0  0  0  0
    7.3509   -6.2035    3.3826 C   0  0  0  0  0  0  0  0  0  0  0  0
    7.7770   -6.3676    4.4455 N   0  0  0  0  0  0  0  0  0  0  0  0
    5.3332   -5.4929    2.0468 C   0  0  1  0  0  0  0  0  0  0  0  0
    5.0985   -4.3678    3.0274 C   0  0  0  0  0  0  0  0  0  0  0  0
    5.3447   -3.0223    2.8746 C   0  0  0  0  0  0  0  0  0  0  0  0
    4.9829   -2.2485    4.0068 C   0  0  0  0  0  0  0  0  0  0  0  0
    4.5089   -3.0087    5.0404 C   0  0  0  0  0  0  0  0  0  0  0  0
    4.4494   -4.6964    4.6139 S   0  0  0  0  0  0  0  0  0  0  0  0
    4.8919   -5.2026    0.5995 C   0  0  1  0  0  0  0  0  0  0  0  0
    3.4163   -4.7583    0.4608 C   0  0  0  0  0  0  0  0  0  0  0  0
    2.4936   -5.5653    0.5071 O   0  0  0  0  0  0  0  0  0  0  0  0
    3.1486   -3.2563    0.3049 C   0  0  0  0  0  0  0  0  0  0  0  0
    3.0138   -0.6865   -0.5811 H   0  0  0  0  0  0  0  0  0  0  0  0
    4.6359   -0.5294   -1.2456 H   0  0  0  0  0  0  0  0  0  0  0  0
    4.4025   -0.8248    0.4799 H   0  0  0  0  0  0  0  0  0  0  0  0
    2.5093   -2.5981   -2.3276 H   0  0  0  0  0  0  0  0  0  0  0  0
    3.6373   -3.9634   -2.3761 H   0  0  0  0  0  0  0  0  0  0  0  0
    4.1724   -2.3915   -2.9362 H   0  0  0  0  0  0  0  0  0  0  0  0
    6.2354   -2.4113   -1.0640 H   0  0  0  0  0  0  0  0  0  0  0  0
    9.2479   -6.1456    1.6304 H   0  0  0  0  0  0  0  0  0  0  0  0
    4.7206   -6.3253    2.3882 H   0  0  0  0  0  0  0  0  0  0  0  0
    5.7488   -2.5351    2.0015 H   0  0  0  0  0  0  0  0  0  0  0  0
    5.0973   -1.1746    4.0146 H   0  0  0  0  0  0  0  0  0  0  0  0
    4.1872   -2.6750    6.0163 H   0  0  0  0  0  0  0  0  0  0  0  0
    4.9879   -6.1319    0.0329 H   0  0  0  0  0  0  0  0  0  0  0  0
    3.3033   -2.7904    1.2768 H   0  0  0  0  0  0  0  0  0  0  0  0
    2.1036   -3.0923    0.0637 H   0  0  0  0  0  0  0  0  0  0  0  0
    6.7851   -6.9853    1.5685 H   0  0  0  0  0  0  0  0  0  0  0  0
  1  2  1  0
  1 22  1  0
  1 23  1  0
  1 24  1  0
  2 21  1  0
  2  3  1  0
  2  4  1  0
  3 25  1  0
  3 26  1  0
  3 27  1  0
  4  5  2  0
  4 28  1  0
  5 18  1  0
  5  6  1  0
  6  7  1  0
  7  8  1  0
  7  9  1  0
  8 29  1  0
  9 10  1  0
  9 12  1  0
  9 37  1  6
 10 11  3  0
 12 13  1  0
 12 18  1  0
 12 30  1  1
 13 17  1  0
 13 14  2  0
 14 15  1  0
 14 31  1  0
 15 16  2  0
 15 32  1  0
 16 17  1  0
 16 33  1  0
 18 19  1  0
 18 34  1  6
 19 20  2  0
 19 21  1  0
 21 35  1  0
 21 36  1  0
M  CHG  2   7   1   8  -1
M  END
>  <i_m_ct_stereo_status>  (174) 
1

>  <s_m_source_file>  (174) 
/var/tmp/pbs.5076255.sched01/tmpn9kf4o8v/46f5dlbpu8.sdf

>  <i_m_source_file_index>  (174) 
21

>  <i_lp_mmshare_version>  (174) 
48012

>  <i_f3d_flags>  (174) 
0

>  <s_epik_input>  (174) 
W0NIM11DKFtDSDNdKShbQ0hdPTEpW0NIMl1DKD1PKVtDQEBIXShDMTIpW0NAQEhdKFtDQEhdKEMjTilDKFxPMik9TlxbSF0pYzNbY0hdW2NIXVtjSF1zMw==

>  <s_epik_cmdline>  (174) 
J2VwaWtfcHl0aG9uJywgJy1waHQnLCAnMi4wJywgJy1waCcsICc3LjAnLCAnLXRuJywgJzgnLCAnLW1hJywgJzIwMCcsICctaW1hZScsICc8aW5maWxlLm1hZT4nLCAnLW9tYWUnLCAnPG91dGZpbGUubWFlPic=

>  <r_lp_tautomer_probability>  (174) 
0.99995

>  <r_epik_Ionization_Penalty>  (174) 
3.84647e-10

>  <r_epik_Ionization_Penalty_Charging>  (174) 
0

>  <r_epik_Ionization_Penalty_Neutral>  (174) 
3.84647e-10

>  <r_epik_State_Penalty>  (174) 
0.827436

>  <r_epik_Charging_Adjusted_Penalty>  (174) 
0.827436

>  <i_epik_Tot_Q>  (174) 
0

>  <i_epik_Tot_abs_Q>  (174) 
2

>  <s_lp_Force_Field>  (174) 
OPLS3e

>  <r_lp_Energy>  (174) 
10.2851

>  <b_lp_Chiralities_Consistent>  (174) 
1

>  <s_lp_Variant>  (174) 
47:0-1

>  <s_i_glide_gridfile>  (174) 
pfpi4k_grid

>  <i_i_glide_lignum>  (174) 
21

>  <i_i_glide_rotatable_bonds>  (174) 
2

>  <r_i_docking_score>  (174) 
-3.25393

>  <r_i_glide_ligand_efficiency>  (174) 
-0.154949

>  <r_i_glide_ligand_efficiency_sa>  (174) 
-0.427492

>  <r_i_glide_ligand_efficiency_ln>  (174) 
-0.804527

>  <r_i_glide_gscore>  (174) 
-3.25393

>  <r_i_glide_lipo>  (174) 
-0.474455

>  <r_i_glide_hbond>  (174) 
-0.0152227

>  <r_i_glide_metal>  (174) 
-0

>  <r_i_glide_rewards>  (174) 
-1.37142

>  <r_i_glide_evdw>  (174) 
-20.2805

>  <r_i_glide_ecoul>  (174) 
-3.82343

>  <r_i_glide_erotb>  (174) 
0.203719

>  <r_i_glide_esite>  (174) 
-0.00901675

>  <r_i_glide_emodel>  (174) 
-27.6214

>  <r_i_glide_energy>  (174) 
-24.1039

>  <r_i_glide_einternal>  (174) 
2.82676

>  <r_i_glide_intrahb_reward>  (174) 
-0

>  <i_i_glide_confnum>  (174) 
2

>  <i_i_glide_posenum>  (174) 
15

>  <r_i_glide_eff_state_penalty>  (174) 
0

>  <ligand_id>  (174) 
47

>  <original_smiles>  (174) 
CC1(C)C=C2OC(=N)C(C#N)C(c3cccs3)C2C(=O)C1

>  <smiles>  (174) 
[H][N-][C+]1OC2=C([H])C(C([H])([H])[H])(C([H])([H])[H])C([H])([H])C(=O)C2([H])C([H])(c2sc([H])c([H])c2[H])C1([H])C#N

$$$$
47:1:0
     RDKit          3D

 37 39  0  0  1  0  0  0  0  0999 V2000
    4.6448   -1.0571   -1.5828 C   0  0  0  0  0  0  0  0  0  0  0  0
    4.4307   -2.5741   -1.5085 C   0  0  0  0  0  0  0  0  0  0  0  0
    4.0441   -3.1050   -2.8991 C   0  0  0  0  0  0  0  0  0  0  0  0
    5.7361   -3.2349   -1.1222 C   0  0  0  0  0  0  0  0  0  0  0  0
    5.8438   -4.2584   -0.2621 C   0  0  0  0  0  0  0  0  0  0  0  0
    7.1132   -4.6683    0.0770 O   0  0  0  0  0  0  0  0  0  0  0  0
    7.4037   -5.2088    1.3132 C   0  0  0  0  0  0  0  0  0  0  0  0
    8.6147   -5.2706    1.6793 N   0  0  0  0  0  0  0  0  0  0  0  0
    6.2290   -5.7183    2.1698 C   0  0  1  0  0  0  0  0  0  0  0  0
    6.5766   -5.8121    3.5940 C   0  0  0  0  0  0  0  0  0  0  0  0
    6.8548   -5.8898    4.7158 N   0  0  0  0  0  0  0  0  0  0  0  0
    4.8964   -4.9921    1.9371 C   0  0  1  0  0  0  0  0  0  0  0  0
    4.7744   -3.6757    2.6791 C   0  0  0  0  0  0  0  0  0  0  0  0
    4.0814   -3.4390    3.8361 C   0  0  0  0  0  0  0  0  0  0  0  0
    4.1688   -2.0856    4.2848 C   0  0  0  0  0  0  0  0  0  0  0  0
    4.9315   -1.3031    3.4650 C   0  0  0  0  0  0  0  0  0  0  0  0
    5.6046   -2.2265    2.1575 S   0  0  0  0  0  0  0  0  0  0  0  0
    4.6582   -4.9406    0.4242 C   0  0  1  0  0  0  0  0  0  0  0  0
    3.3085   -4.3149    0.0278 C   0  0  0  0  0  0  0  0  0  0  0  0
    2.2535   -4.9412    0.1332 O   0  0  0  0  0  0  0  0  0  0  0  0
    3.3251   -2.8650   -0.4591 C   0  0  0  0  0  0  0  0  0  0  0  0
    3.7213   -0.5669   -1.8764 H   0  0  0  0  0  0  0  0  0  0  0  0
    5.4147   -0.7857   -2.3050 H   0  0  0  0  0  0  0  0  0  0  0  0
    4.9422   -0.6583   -0.6116 H   0  0  0  0  0  0  0  0  0  0  0  0
    3.0881   -2.6960   -3.2372 H   0  0  0  0  0  0  0  0  0  0  0  0
    3.9605   -4.1947   -2.8615 H   0  0  0  0  0  0  0  0  0  0  0  0
    4.8188   -2.8751   -3.6371 H   0  0  0  0  0  0  0  0  0  0  0  0
    6.6367   -2.7946   -1.5294 H   0  0  0  0  0  0  0  0  0  0  0  0
    6.0856   -6.7520    1.8532 H   0  0  0  0  0  0  0  0  0  0  0  0
    4.1212   -5.6447    2.3449 H   0  0  0  0  0  0  0  0  0  0  0  0
    3.5177   -4.1896    4.3754 H   0  0  0  0  0  0  0  0  0  0  0  0
    3.6685   -1.7464    5.1853 H   0  0  0  0  0  0  0  0  0  0  0  0
    5.1494   -0.2456    3.5570 H   0  0  0  0  0  0  0  0  0  0  0  0
    4.6399   -5.9625    0.0457 H   0  0  0  0  0  0  0  0  0  0  0  0
    3.4666   -2.2259    0.4152 H   0  0  0  0  0  0  0  0  0  0  0  0
    2.3483   -2.6055   -0.8627 H   0  0  0  0  0  0  0  0  0  0  0  0
    8.7695   -5.6564    2.6031 H   0  0  0  0  0  0  0  0  0  0  0  0
  1  2  1  0
  1 22  1  0
  1 23  1  0
  1 24  1  0
  2 21  1  0
  2  3  1  0
  2  4  1  0
  3 25  1  0
  3 26  1  0
  3 27  1  0
  4  5  2  0
  4 28  1  0
  5 18  1  0
  5  6  1  0
  6  7  1  0
  7  8  2  3
  7  9  1  0
  8 37  1  0
  9 10  1  0
  9 12  1  0
  9 29  1  6
 10 11  3  0
 12 13  1  0
 12 18  1  0
 12 30  1  1
 13 17  1  0
 13 14  2  0
 14 15  1  0
 14 31  1  0
 15 16  2  0
 15 32  1  0
 16 17  1  0
 16 33  1  0
 18 19  1  0
 18 34  1  6
 19 20  2  0
 19 21  1  0
 21 35  1  0
 21 36  1  0
M  END
>  <i_m_ct_stereo_status>  (175) 
1

>  <s_m_source_file>  (175) 
/var/tmp/pbs.5076255.sched01/tmpn9kf4o8v/46f5dlbpu8.sdf

>  <i_m_source_file_index>  (175) 
22

>  <i_lp_mmshare_version>  (175) 
48012

>  <i_f3d_flags>  (175) 
0

>  <s_epik_input>  (175) 
W0NIM11DKFtDSDNdKShbQ0hdPTEpW0NIMl1DKD1PKVtDQEBIXShDMTIpW0NAQEhdKFtDQEhdKEMjTilDKFxPMik9TlxbSF0pYzNbY0hdW2NIXVtjSF1zMw==

>  <s_epik_cmdline>  (175) 
J2VwaWtfcHl0aG9uJywgJy1waHQnLCAnMi4wJywgJy1waCcsICc3LjAnLCAnLXRuJywgJzgnLCAnLW1hJywgJzIwMCcsICctaW1hZScsICc8aW5maWxlLm1hZT4nLCAnLW9tYWUnLCAnPG91dGZpbGUubWFlPic=

>  <r_lp_tautomer_probability>  (175) 
0.99995

>  <r_epik_Ionization_Penalty>  (175) 
0.0322769

>  <r_epik_Ionization_Penalty_Charging>  (175) 
0

>  <r_epik_Ionization_Penalty_Neutral>  (175) 
0.0322769

>  <r_epik_State_Penalty>  (175) 
0.827436

>  <r_epik_Charging_Adjusted_Penalty>  (175) 
0.827436

>  <i_epik_Tot_Q>  (175) 
0

>  <i_epik_Tot_abs_Q>  (175) 
0

>  <s_epik_Chemistry_Notes>  (175) 
This compound has an imine and may undergo hydrolysis.

>  <s_lp_Force_Field>  (175) 
OPLS3e

>  <r_lp_Energy>  (175) 
9.33757

>  <b_lp_Chiralities_Consistent>  (175) 
1

>  <s_lp_Variant>  (175) 
47:0-2

>  <s_i_glide_gridfile>  (175) 
pfpi4k_grid

>  <i_i_glide_lignum>  (175) 
22

>  <i_i_glide_rotatable_bonds>  (175) 
2

>  <r_i_docking_score>  (175) 
-3.09395

>  <r_i_glide_ligand_efficiency>  (175) 
-0.147331

>  <r_i_glide_ligand_efficiency_sa>  (175) 
-0.406474

>  <r_i_glide_ligand_efficiency_ln>  (175) 
-0.764972

>  <r_i_glide_gscore>  (175) 
-3.09395

>  <r_i_glide_lipo>  (175) 
-0.420403

>  <r_i_glide_hbond>  (175) 
-0.00532346

>  <r_i_glide_metal>  (175) 
-0

>  <r_i_glide_rewards>  (175) 
-1.51401

>  <r_i_glide_evdw>  (175) 
-22.2257

>  <r_i_glide_ecoul>  (175) 
-1.50434

>  <r_i_glide_erotb>  (175) 
0.203719

>  <r_i_glide_esite>  (175) 
-0.0209979

>  <r_i_glide_emodel>  (175) 
-27.2993

>  <r_i_glide_energy>  (175) 
-23.73

>  <r_i_glide_einternal>  (175) 
1.97244

>  <r_i_glide_intrahb_reward>  (175) 
-0

>  <i_i_glide_confnum>  (175) 
1

>  <i_i_glide_posenum>  (175) 
1

>  <r_i_glide_eff_state_penalty>  (175) 
0

>  <ligand_id>  (175) 
47

>  <original_smiles>  (175) 
CC1(C)C=C2OC(=N)C(C#N)C(c3cccs3)C2C(=O)C1

>  <smiles>  (175) 
[H]N=C1OC2=C([H])C(C([H])([H])[H])(C([H])([H])[H])C([H])([H])C(=O)C2([H])C([H])(c2sc([H])c([H])c2[H])C1([H])C#N

$$$$
47:1:1
     RDKit          3D

 37 39  0  0  1  0  0  0  0  0999 V2000
    4.6508   -1.0573   -1.5119 C   0  0  0  0  0  0  0  0  0  0  0  0
    4.4786   -2.5813   -1.4550 C   0  0  0  0  0  0  0  0  0  0  0  0
    4.1005   -3.1177   -2.8503 C   0  0  0  0  0  0  0  0  0  0  0  0
    5.8011   -3.2106   -1.0713 C   0  0  0  0  0  0  0  0  0  0  0  0
    5.9305   -4.2459   -0.2267 C   0  0  0  0  0  0  0  0  0  0  0  0
    7.2057   -4.6514    0.0870 O   0  0  0  0  0  0  0  0  0  0  0  0
    7.5156   -5.1905    1.3198 C   0  0  0  0  0  0  0  0  0  0  0  0
    8.7291   -5.2160    1.6810 N   0  0  0  0  0  0  0  0  0  0  0  0
    6.3588   -5.7548    2.1631 C   0  0  1  0  0  0  0  0  0  0  0  0
    6.7126   -5.8559    3.5879 C   0  0  0  0  0  0  0  0  0  0  0  0
    6.9943   -5.9352    4.7085 N   0  0  0  0  0  0  0  0  0  0  0  0
    5.0033   -5.0645    1.9406 C   0  0  1  0  0  0  0  0  0  0  0  0
    4.8286   -3.7772    2.7060 C   0  0  0  0  0  0  0  0  0  0  0  0
    5.4141   -2.5573    2.4795 C   0  0  0  0  0  0  0  0  0  0  0  0
    5.0044   -1.5532    3.3977 C   0  0  0  0  0  0  0  0  0  0  0  0
    4.1216   -2.0193    4.3307 C   0  0  0  0  0  0  0  0  0  0  0  0
    3.7638   -3.7051    4.0870 S   0  0  0  0  0  0  0  0  0  0  0  0
    4.7633   -4.9733    0.4342 C   0  0  1  0  0  0  0  0  0  0  0  0
    3.3997   -4.3729    0.0529 C   0  0  0  0  0  0  0  0  0  0  0  0
    2.3594   -5.0253    0.1401 O   0  0  0  0  0  0  0  0  0  0  0  0
    3.3878   -2.9119   -0.4023 C   0  0  0  0  0  0  0  0  0  0  0  0
    3.7102   -0.5900   -1.7967 H   0  0  0  0  0  0  0  0  0  0  0  0
    5.4115   -0.7592   -2.2340 H   0  0  0  0  0  0  0  0  0  0  0  0
    4.9426   -0.6653   -0.5343 H   0  0  0  0  0  0  0  0  0  0  0  0
    3.1350   -2.7301   -3.1862 H   0  0  0  0  0  0  0  0  0  0  0  0
    4.0382   -4.2085   -2.8287 H   0  0  0  0  0  0  0  0  0  0  0  0
    4.8610   -2.8657   -3.5925 H   0  0  0  0  0  0  0  0  0  0  0  0
    6.6878   -2.7501   -1.4782 H   0  0  0  0  0  0  0  0  0  0  0  0
    6.2475   -6.7897    1.8329 H   0  0  0  0  0  0  0  0  0  0  0  0
    4.2509   -5.7542    2.3252 H   0  0  0  0  0  0  0  0  0  0  0  0
    6.1180   -2.3324    1.6867 H   0  0  0  0  0  0  0  0  0  0  0  0
    5.3728   -0.5378    3.3400 H   0  0  0  0  0  0  0  0  0  0  0  0
    3.6598   -1.4763    5.1413 H   0  0  0  0  0  0  0  0  0  0  0  0
    4.7723   -5.9825    0.0224 H   0  0  0  0  0  0  0  0  0  0  0  0
    3.5391   -2.3004    0.4886 H   0  0  0  0  0  0  0  0  0  0  0  0
    2.3990   -2.6562   -0.7840 H   0  0  0  0  0  0  0  0  0  0  0  0
    8.8920   -5.6124    2.5965 H   0  0  0  0  0  0  0  0  0  0  0  0
  1  2  1  0
  1 22  1  0
  1 23  1  0
  1 24  1  0
  2 21  1  0
  2  3  1  0
  2  4  1  0
  3 25  1  0
  3 26  1  0
  3 27  1  0
  4  5  2  0
  4 28  1  0
  5 18  1  0
  5  6  1  0
  6  7  1  0
  7  8  2  3
  7  9  1  0
  8 37  1  0
  9 10  1  0
  9 12  1  0
  9 29  1  6
 10 11  3  0
 12 13  1  0
 12 18  1  0
 12 30  1  1
 13 17  1  0
 13 14  2  0
 14 15  1  0
 14 31  1  0
 15 16  2  0
 15 32  1  0
 16 17  1  0
 16 33  1  0
 18 19  1  0
 18 34  1  6
 19 20  2  0
 19 21  1  0
 21 35  1  0
 21 36  1  0
M  END
>  <i_m_ct_stereo_status>  (176) 
1

>  <s_m_source_file>  (176) 
/var/tmp/pbs.5076255.sched01/tmpn9kf4o8v/46f5dlbpu8.sdf

>  <i_m_source_file_index>  (176) 
22

>  <i_lp_mmshare_version>  (176) 
48012

>  <i_f3d_flags>  (176) 
0

>  <s_epik_input>  (176) 
W0NIM11DKFtDSDNdKShbQ0hdPTEpW0NIMl1DKD1PKVtDQEBIXShDMTIpW0NAQEhdKFtDQEhdKEMjTilDKFxPMik9TlxbSF0pYzNbY0hdW2NIXVtjSF1zMw==

>  <s_epik_cmdline>  (176) 
J2VwaWtfcHl0aG9uJywgJy1waHQnLCAnMi4wJywgJy1waCcsICc3LjAnLCAnLXRuJywgJzgnLCAnLW1hJywgJzIwMCcsICctaW1hZScsICc8aW5maWxlLm1hZT4nLCAnLW9tYWUnLCAnPG91dGZpbGUubWFlPic=

>  <r_lp_tautomer_probability>  (176) 
0.99995

>  <r_epik_Ionization_Penalty>  (176) 
0.0322769

>  <r_epik_Ionization_Penalty_Charging>  (176) 
0

>  <r_epik_Ionization_Penalty_Neutral>  (176) 
0.0322769

>  <r_epik_State_Penalty>  (176) 
0.827436

>  <r_epik_Charging_Adjusted_Penalty>  (176) 
0.827436

>  <i_epik_Tot_Q>  (176) 
0

>  <i_epik_Tot_abs_Q>  (176) 
0

>  <s_epik_Chemistry_Notes>  (176) 
This compound has an imine and may undergo hydrolysis.

>  <s_lp_Force_Field>  (176) 
OPLS3e

>  <r_lp_Energy>  (176) 
9.33757

>  <b_lp_Chiralities_Consistent>  (176) 
1

>  <s_lp_Variant>  (176) 
47:0-2

>  <s_i_glide_gridfile>  (176) 
pfpi4k_grid

>  <i_i_glide_lignum>  (176) 
22

>  <i_i_glide_rotatable_bonds>  (176) 
2

>  <r_i_docking_score>  (176) 
-3.07704

>  <r_i_glide_ligand_efficiency>  (176) 
-0.146526

>  <r_i_glide_ligand_efficiency_sa>  (176) 
-0.404253

>  <r_i_glide_ligand_efficiency_ln>  (176) 
-0.760792

>  <r_i_glide_gscore>  (176) 
-3.07704

>  <r_i_glide_lipo>  (176) 
-0.403593

>  <r_i_glide_hbond>  (176) 
0

>  <r_i_glide_metal>  (176) 
-0

>  <r_i_glide_rewards>  (176) 
-1.51663

>  <r_i_glide_evdw>  (176) 
-22.4056

>  <r_i_glide_ecoul>  (176) 
-1.472

>  <r_i_glide_erotb>  (176) 
0.203719

>  <r_i_glide_esite>  (176) 
-0.0194569

>  <r_i_glide_emodel>  (176) 
-27.3602

>  <r_i_glide_energy>  (176) 
-23.8776

>  <r_i_glide_einternal>  (176) 
2.49648

>  <r_i_glide_intrahb_reward>  (176) 
-0

>  <i_i_glide_confnum>  (176) 
4

>  <i_i_glide_posenum>  (176) 
31

>  <r_i_glide_eff_state_penalty>  (176) 
0

>  <ligand_id>  (176) 
47

>  <original_smiles>  (176) 
CC1(C)C=C2OC(=N)C(C#N)C(c3cccs3)C2C(=O)C1

>  <smiles>  (176) 
[H]N=C1OC2=C([H])C(C([H])([H])[H])(C([H])([H])[H])C([H])([H])C(=O)C2([H])C([H])(c2sc([H])c([H])c2[H])C1([H])C#N

$$$$
47:1:2
     RDKit          3D

 37 39  0  0  1  0  0  0  0  0999 V2000
    4.5808   -1.0060   -1.9656 C   0  0  0  0  0  0  0  0  0  0  0  0
    4.3431   -2.5157   -1.8285 C   0  0  0  0  0  0  0  0  0  0  0  0
    4.0513   -3.1274   -3.2146 C   0  0  0  0  0  0  0  0  0  0  0  0
    5.6026   -3.1598   -1.2890 C   0  0  0  0  0  0  0  0  0  0  0  0
    5.6238   -4.1303   -0.3650 C   0  0  0  0  0  0  0  0  0  0  0  0
    6.8504   -4.5657    0.0758 O   0  0  0  0  0  0  0  0  0  0  0  0
    7.0354   -5.0625    1.3480 C   0  0  0  0  0  0  0  0  0  0  0  0
    8.2149   -5.1356    1.7953 N   0  0  0  0  0  0  0  0  0  0  0  0
    5.7888   -5.5141    2.1304 C   0  0  1  0  0  0  0  0  0  0  0  0
    6.0233   -5.5213    3.5830 C   0  0  0  0  0  0  0  0  0  0  0  0
    6.2133   -5.5295    4.7247 N   0  0  0  0  0  0  0  0  0  0  0  0
    4.4858   -4.7903    1.7555 C   0  0  1  0  0  0  0  0  0  0  0  0
    4.3095   -3.4467    2.4097 C   0  0  0  0  0  0  0  0  0  0  0  0
    5.1888   -2.3930    2.4536 C   0  0  0  0  0  0  0  0  0  0  0  0
    4.6829   -1.2723    3.1646 C   0  0  0  0  0  0  0  0  0  0  0  0
    3.4231   -1.4764    3.6544 C   0  0  0  0  0  0  0  0  0  0  0  0
    2.8314   -3.0626    3.2557 S   0  0  0  0  0  0  0  0  0  0  0  0
    4.3784   -4.7805    0.2308 C   0  0  1  0  0  0  0  0  0  0  0  0
    3.0834   -4.1596   -0.3099 C   0  0  0  0  0  0  0  0  0  0  0  0
    2.0192   -4.7732   -0.2790 O   0  0  0  0  0  0  0  0  0  0  0  0
    3.1669   -2.7315   -0.8499 C   0  0  0  0  0  0  0  0  0  0  0  0
    3.6916   -0.5021   -2.3434 H   0  0  0  0  0  0  0  0  0  0  0  0
    5.4075   -0.7853   -2.6381 H   0  0  0  0  0  0  0  0  0  0  0  0
    4.8179   -0.5654   -0.9954 H   0  0  0  0  0  0  0  0  0  0  0  0
    3.1345   -2.7234   -3.6511 H   0  0  0  0  0  0  0  0  0  0  0  0
    3.9329   -4.2094   -3.1316 H   0  0  0  0  0  0  0  0  0  0  0  0
    4.8784   -2.9592   -3.9070 H   0  0  0  0  0  0  0  0  0  0  0  0
    6.5373   -2.7690   -1.6584 H   0  0  0  0  0  0  0  0  0  0  0  0
    5.6549   -6.5640    1.8612 H   0  0  0  0  0  0  0  0  0  0  0  0
    3.6752   -5.4223    2.1197 H   0  0  0  0  0  0  0  0  0  0  0  0
    6.1755   -2.3785    2.0075 H   0  0  0  0  0  0  0  0  0  0  0  0
    5.2568   -0.3638    3.2897 H   0  0  0  0  0  0  0  0  0  0  0  0
    2.8106   -0.7960    4.2241 H   0  0  0  0  0  0  0  0  0  0  0  0
    4.3799   -5.8136   -0.1188 H   0  0  0  0  0  0  0  0  0  0  0  0
    3.2737   -2.0719    0.0133 H   0  0  0  0  0  0  0  0  0  0  0  0
    2.2274   -2.4701   -1.3311 H   0  0  0  0  0  0  0  0  0  0  0  0
    8.3015   -5.4677    2.7512 H   0  0  0  0  0  0  0  0  0  0  0  0
  1  2  1  0
  1 22  1  0
  1 23  1  0
  1 24  1  0
  2 21  1  0
  2  3  1  0
  2  4  1  0
  3 25  1  0
  3 26  1  0
  3 27  1  0
  4  5  2  0
  4 28  1  0
  5 18  1  0
  5  6  1  0
  6  7  1  0
  7  8  2  3
  7  9  1  0
  8 37  1  0
  9 10  1  0
  9 12  1  0
  9 29  1  6
 10 11  3  0
 12 13  1  0
 12 18  1  0
 12 30  1  1
 13 17  1  0
 13 14  2  0
 14 15  1  0
 14 31  1  0
 15 16  2  0
 15 32  1  0
 16 17  1  0
 16 33  1  0
 18 19  1  0
 18 34  1  6
 19 20  2  0
 19 21  1  0
 21 35  1  0
 21 36  1  0
M  END
>  <i_m_ct_stereo_status>  (177) 
1

>  <s_m_source_file>  (177) 
/var/tmp/pbs.5076255.sched01/tmpn9kf4o8v/46f5dlbpu8.sdf

>  <i_m_source_file_index>  (177) 
22

>  <i_lp_mmshare_version>  (177) 
48012

>  <i_f3d_flags>  (177) 
0

>  <s_epik_input>  (177) 
W0NIM11DKFtDSDNdKShbQ0hdPTEpW0NIMl1DKD1PKVtDQEBIXShDMTIpW0NAQEhdKFtDQEhdKEMjTilDKFxPMik9TlxbSF0pYzNbY0hdW2NIXVtjSF1zMw==

>  <s_epik_cmdline>  (177) 
J2VwaWtfcHl0aG9uJywgJy1waHQnLCAnMi4wJywgJy1waCcsICc3LjAnLCAnLXRuJywgJzgnLCAnLW1hJywgJzIwMCcsICctaW1hZScsICc8aW5maWxlLm1hZT4nLCAnLW9tYWUnLCAnPG91dGZpbGUubWFlPic=

>  <r_lp_tautomer_probability>  (177) 
0.99995

>  <r_epik_Ionization_Penalty>  (177) 
0.0322769

>  <r_epik_Ionization_Penalty_Charging>  (177) 
0

>  <r_epik_Ionization_Penalty_Neutral>  (177) 
0.0322769

>  <r_epik_State_Penalty>  (177) 
0.827436

>  <r_epik_Charging_Adjusted_Penalty>  (177) 
0.827436

>  <i_epik_Tot_Q>  (177) 
0

>  <i_epik_Tot_abs_Q>  (177) 
0

>  <s_epik_Chemistry_Notes>  (177) 
This compound has an imine and may undergo hydrolysis.

>  <s_lp_Force_Field>  (177) 
OPLS3e

>  <r_lp_Energy>  (177) 
9.33757

>  <b_lp_Chiralities_Consistent>  (177) 
1

>  <s_lp_Variant>  (177) 
47:0-2

>  <s_i_glide_gridfile>  (177) 
pfpi4k_grid

>  <i_i_glide_lignum>  (177) 
22

>  <i_i_glide_rotatable_bonds>  (177) 
2

>  <r_i_docking_score>  (177) 
-3.07696

>  <r_i_glide_ligand_efficiency>  (177) 
-0.146522

>  <r_i_glide_ligand_efficiency_sa>  (177) 
-0.404243

>  <r_i_glide_ligand_efficiency_ln>  (177) 
-0.760773

>  <r_i_glide_gscore>  (177) 
-3.07696

>  <r_i_glide_lipo>  (177) 
-0.42529

>  <r_i_glide_hbond>  (177) 
-0.0142788

>  <r_i_glide_metal>  (177) 
-0

>  <r_i_glide_rewards>  (177) 
-1.51071

>  <r_i_glide_evdw>  (177) 
-21.302

>  <r_i_glide_ecoul>  (177) 
-1.57186

>  <r_i_glide_erotb>  (177) 
0.203719

>  <r_i_glide_esite>  (177) 
-0.02952

>  <r_i_glide_emodel>  (177) 
-26.4999

>  <r_i_glide_energy>  (177) 
-22.8739

>  <r_i_glide_einternal>  (177) 
2.31094

>  <r_i_glide_intrahb_reward>  (177) 
-0

>  <i_i_glide_confnum>  (177) 
4

>  <i_i_glide_posenum>  (177) 
22

>  <r_i_glide_eff_state_penalty>  (177) 
0

>  <ligand_id>  (177) 
47

>  <original_smiles>  (177) 
CC1(C)C=C2OC(=N)C(C#N)C(c3cccs3)C2C(=O)C1

>  <smiles>  (177) 
[H]N=C1OC2=C([H])C(C([H])([H])[H])(C([H])([H])[H])C([H])([H])C(=O)C2([H])C([H])(c2sc([H])c([H])c2[H])C1([H])C#N

$$$$
47:2:0
     RDKit          3D

 37 39  0  0  1  0  0  0  0  0999 V2000
    1.2368   -0.0829    2.5560 C   0  0  0  0  0  0  0  0  0  0  0  0
    0.8150   -0.2753    4.0235 C   0  0  0  0  0  0  0  0  0  0  0  0
    1.0822   -1.7290    4.4666 C   0  0  0  0  0  0  0  0  0  0  0  0
    1.6594    0.6367    4.8987 C   0  0  0  0  0  0  0  0  0  0  0  0
    1.1890    1.3310    5.9450 C   0  0  0  0  0  0  0  0  0  0  0  0
    2.0598    2.1404    6.6367 O   0  0  0  0  0  0  0  0  0  0  0  0
    1.6288    3.3006    7.2486 C   0  0  0  0  0  0  0  0  0  0  0  0
    2.4721    4.2044    7.5098 N   0  0  0  0  0  0  0  0  0  0  0  0
    0.1264    3.4328    7.5715 C   0  0  1  0  0  0  0  0  0  0  0  0
   -0.2694    4.8400    7.7431 C   0  0  0  0  0  0  0  0  0  0  0  0
   -0.5858    5.9492    7.8725 N   0  0  0  0  0  0  0  0  0  0  0  0
   -0.8152    2.6815    6.6052 C   0  0  1  0  0  0  0  0  0  0  0  0
   -1.1005    3.4158    5.3191 C   0  0  0  0  0  0  0  0  0  0  0  0
   -2.2377    3.3424    4.5541 C   0  0  0  0  0  0  0  0  0  0  0  0
   -2.1826    4.1390    3.3766 C   0  0  0  0  0  0  0  0  0  0  0  0
   -1.0195    4.8536    3.2796 C   0  0  0  0  0  0  0  0  0  0  0  0
    0.0835    4.4490    4.5426 S   0  0  0  0  0  0  0  0  0  0  0  0
   -0.2492    1.2697    6.4436 C   0  0  1  0  0  0  0  0  0  0  0  0
   -1.1128    0.3237    5.6031 C   0  0  0  0  0  0  0  0  0  0  0  0
   -2.1145   -0.2110    6.0787 O   0  0  0  0  0  0  0  0  0  0  0  0
   -0.6857    0.0844    4.1553 C   0  0  0  0  0  0  0  0  0  0  0  0
    0.6531   -0.7113    1.8815 H   0  0  0  0  0  0  0  0  0  0  0  0
    2.2923   -0.3156    2.4009 H   0  0  0  0  0  0  0  0  0  0  0  0
    1.0851    0.9514    2.2477 H   0  0  0  0  0  0  0  0  0  0  0  0
    0.4976   -2.4483    3.8867 H   0  0  0  0  0  0  0  0  0  0  0  0
    0.8309   -1.8676    5.5211 H   0  0  0  0  0  0  0  0  0  0  0  0
    2.1399   -1.9862    4.3607 H   0  0  0  0  0  0  0  0  0  0  0  0
    2.6948    0.7428    4.6094 H   0  0  0  0  0  0  0  0  0  0  0  0
    0.0115    2.9872    8.5610 H   0  0  0  0  0  0  0  0  0  0  0  0
   -1.7718    2.5807    7.1258 H   0  0  0  0  0  0  0  0  0  0  0  0
   -3.0888    2.7116    4.7748 H   0  0  0  0  0  0  0  0  0  0  0  0
   -2.9859    4.1620    2.6525 H   0  0  0  0  0  0  0  0  0  0  0  0
   -0.6874    5.5143    2.4783 H   0  0  0  0  0  0  0  0  0  0  0  0
   -0.1926    0.8123    7.4311 H   0  0  0  0  0  0  0  0  0  0  0  0
   -0.8846    1.0009    3.6004 H   0  0  0  0  0  0  0  0  0  0  0  0
   -1.3002   -0.6905    3.6959 H   0  0  0  0  0  0  0  0  0  0  0  0
    3.3926    3.9492    7.1824 H   0  0  0  0  0  0  0  0  0  0  0  0
  1  2  1  0
  1 22  1  0
  1 23  1  0
  1 24  1  0
  2 21  1  0
  2  3  1  0
  2  4  1  0
  3 25  1  0
  3 26  1  0
  3 27  1  0
  4  5  2  0
  4 28  1  0
  5 18  1  0
  5  6  1  0
  6  7  1  0
  7  8  2  3
  7  9  1  0
  8 37  1  0
  9 10  1  0
  9 12  1  0
  9 29  1  1
 10 11  3  0
 12 13  1  0
 12 18  1  0
 12 30  1  1
 13 17  1  0
 13 14  2  0
 14 15  1  0
 14 31  1  0
 15 16  2  0
 15 32  1  0
 16 17  1  0
 16 33  1  0
 18 19  1  0
 18 34  1  1
 19 20  2  0
 19 21  1  0
 21 35  1  0
 21 36  1  0
M  END
>  <i_m_ct_stereo_status>  (178) 
1

>  <s_m_source_file>  (178) 
/var/tmp/pbs.5076255.sched01/tmpn9kf4o8v/46f5dlbpu8.sdf

>  <i_m_source_file_index>  (178) 
23

>  <i_lp_mmshare_version>  (178) 
48012

>  <i_f3d_flags>  (178) 
0

>  <s_epik_input>  (178) 
W0NIM11DKFtDSDNdKShbQ0hdPTEpW0NIMl1DKD1PKVtDQEBIXShDMTIpW0NAQEhdKFtDQEhdKEMjTilDKFxPMik9TlxbSF0pYzNbY0hdW2NIXVtjSF1zMw==

>  <s_epik_cmdline>  (178) 
J2VwaWtfcHl0aG9uJywgJy1waHQnLCAnMi4wJywgJy1waCcsICc3LjAnLCAnLXRuJywgJzgnLCAnLW1hJywgJzIwMCcsICctaW1hZScsICc8aW5maWxlLm1hZT4nLCAnLW9tYWUnLCAnPG91dGZpbGUubWFlPic=

>  <r_lp_tautomer_probability>  (178) 
0.99995

>  <r_epik_Ionization_Penalty>  (178) 
0.0322769

>  <r_epik_Ionization_Penalty_Charging>  (178) 
0

>  <r_epik_Ionization_Penalty_Neutral>  (178) 
0.0322769

>  <r_epik_State_Penalty>  (178) 
0.827436

>  <r_epik_Charging_Adjusted_Penalty>  (178) 
0.827436

>  <i_epik_Tot_Q>  (178) 
0

>  <i_epik_Tot_abs_Q>  (178) 
0

>  <s_epik_Chemistry_Notes>  (178) 
This compound has an imine and may undergo hydrolysis.

>  <s_lp_Force_Field>  (178) 
OPLS3e

>  <r_lp_Energy>  (178) 
9.95636

>  <b_lp_Chiralities_Consistent>  (178) 
1

>  <s_lp_Variant>  (178) 
47:0-3

>  <s_i_glide_gridfile>  (178) 
pfpi4k_grid

>  <i_i_glide_lignum>  (178) 
23

>  <i_i_glide_rotatable_bonds>  (178) 
2

>  <r_i_docking_score>  (178) 
-3.06302

>  <r_i_glide_ligand_efficiency>  (178) 
-0.145858

>  <r_i_glide_ligand_efficiency_sa>  (178) 
-0.402412

>  <r_i_glide_ligand_efficiency_ln>  (178) 
-0.757326

>  <r_i_glide_gscore>  (178) 
-3.06302

>  <r_i_glide_lipo>  (178) 
-0.000174528

>  <r_i_glide_hbond>  (178) 
-0.151412

>  <r_i_glide_metal>  (178) 
-0

>  <r_i_glide_rewards>  (178) 
-1.36107

>  <r_i_glide_evdw>  (178) 
-17.229

>  <r_i_glide_ecoul>  (178) 
-5.68406

>  <r_i_glide_erotb>  (178) 
0.203719

>  <r_i_glide_esite>  (178) 
-0.0400247

>  <r_i_glide_emodel>  (178) 
-26.2009

>  <r_i_glide_energy>  (178) 
-22.9131

>  <r_i_glide_einternal>  (178) 
2.30133

>  <r_i_glide_intrahb_reward>  (178) 
-0

>  <i_i_glide_confnum>  (178) 
3

>  <i_i_glide_posenum>  (178) 
10

>  <r_i_glide_eff_state_penalty>  (178) 
0

>  <ligand_id>  (178) 
47

>  <original_smiles>  (178) 
CC1(C)C=C2OC(=N)C(C#N)C(c3cccs3)C2C(=O)C1

>  <smiles>  (178) 
[H]N=C1OC2=C([H])C(C([H])([H])[H])(C([H])([H])[H])C([H])([H])C(=O)C2([H])C([H])(c2sc([H])c([H])c2[H])C1([H])C#N

$$$$
47:2:1
     RDKit          3D

 37 39  0  0  1  0  0  0  0  0999 V2000
    0.3837    0.8920    2.1041 C   0  0  0  0  0  0  0  0  0  0  0  0
    1.4799    1.3189    3.0962 C   0  0  0  0  0  0  0  0  0  0  0  0
    2.8351    0.7039    2.6972 C   0  0  0  0  0  0  0  0  0  0  0  0
    1.6390    2.8262    3.0350 C   0  0  0  0  0  0  0  0  0  0  0  0
    1.8321    3.6115    4.1068 C   0  0  0  0  0  0  0  0  0  0  0  0
    1.8755    4.9715    3.9078 O   0  0  0  0  0  0  0  0  0  0  0  0
    1.3983    5.8494    4.8610 C   0  0  0  0  0  0  0  0  0  0  0  0
    1.0953    7.0270    4.5273 N   0  0  0  0  0  0  0  0  0  0  0  0
    1.2797    5.3566    6.3101 C   0  0  1  0  0  0  0  0  0  0  0  0
    0.3504    6.1905    7.0893 C   0  0  0  0  0  0  0  0  0  0  0  0
   -0.3831    6.8475    7.7044 N   0  0  0  0  0  0  0  0  0  0  0  0
    0.9807    3.8575    6.4491 C   0  0  1  0  0  0  0  0  0  0  0  0
   -0.4772    3.5086    6.2949 C   0  0  0  0  0  0  0  0  0  0  0  0
   -1.2281    3.4532    5.1471 C   0  0  0  0  0  0  0  0  0  0  0  0
   -2.5737    3.0609    5.3763 C   0  0  0  0  0  0  0  0  0  0  0  0
   -2.8474    2.8548    6.7003 C   0  0  0  0  0  0  0  0  0  0  0  0
   -1.4418    3.1073    7.6918 S   0  0  0  0  0  0  0  0  0  0  0  0
    1.9505    3.0998    5.5395 C   0  0  1  0  0  0  0  0  0  0  0  0
    1.8309    1.5706    5.6282 C   0  0  0  0  0  0  0  0  0  0  0  0
    2.3152    0.9446    6.5680 O   0  0  0  0  0  0  0  0  0  0  0  0
    1.0547    0.8634    4.5153 C   0  0  0  0  0  0  0  0  0  0  0  0
    0.2405   -0.1883    2.1138 H   0  0  0  0  0  0  0  0  0  0  0  0
    0.6222    1.1867    1.0814 H   0  0  0  0  0  0  0  0  0  0  0  0
   -0.5710    1.3542    2.3584 H   0  0  0  0  0  0  0  0  0  0  0  0
    2.8138   -0.3881    2.7287 H   0  0  0  0  0  0  0  0  0  0  0  0
    3.6253    1.0469    3.3713 H   0  0  0  0  0  0  0  0  0  0  0  0
    3.1221    1.0164    1.6897 H   0  0  0  0  0  0  0  0  0  0  0  0
    1.5289    3.2811    2.0638 H   0  0  0  0  0  0  0  0  0  0  0  0
    2.2603    5.5331    6.7556 H   0  0  0  0  0  0  0  0  0  0  0  0
    1.2500    3.5927    7.4726 H   0  0  0  0  0  0  0  0  0  0  0  0
   -0.8679    3.6531    4.1471 H   0  0  0  0  0  0  0  0  0  0  0  0
   -3.2797    2.9447    4.5644 H   0  0  0  0  0  0  0  0  0  0  0  0
   -3.7832    2.5584    7.1507 H   0  0  0  0  0  0  0  0  0  0  0  0
    2.9652    3.3415    5.8578 H   0  0  0  0  0  0  0  0  0  0  0  0
   -0.0019    1.0816    4.6714 H   0  0  0  0  0  0  0  0  0  0  0  0
    1.1591   -0.2180    4.6147 H   0  0  0  0  0  0  0  0  0  0  0  0
    1.1972    7.2073    3.5348 H   0  0  0  0  0  0  0  0  0  0  0  0
  1  2  1  0
  1 22  1  0
  1 23  1  0
  1 24  1  0
  2 21  1  0
  2  3  1  0
  2  4  1  0
  3 25  1  0
  3 26  1  0
  3 27  1  0
  4  5  2  0
  4 28  1  0
  5 18  1  0
  5  6  1  0
  6  7  1  0
  7  8  2  3
  7  9  1  0
  8 37  1  0
  9 10  1  0
  9 12  1  0
  9 29  1  1
 10 11  3  0
 12 13  1  0
 12 18  1  0
 12 30  1  1
 13 17  1  0
 13 14  2  0
 14 15  1  0
 14 31  1  0
 15 16  2  0
 15 32  1  0
 16 17  1  0
 16 33  1  0
 18 19  1  0
 18 34  1  1
 19 20  2  0
 19 21  1  0
 21 35  1  0
 21 36  1  0
M  END
>  <i_m_ct_stereo_status>  (179) 
1

>  <s_m_source_file>  (179) 
/var/tmp/pbs.5076255.sched01/tmpn9kf4o8v/46f5dlbpu8.sdf

>  <i_m_source_file_index>  (179) 
23

>  <i_lp_mmshare_version>  (179) 
48012

>  <i_f3d_flags>  (179) 
0

>  <s_epik_input>  (179) 
W0NIM11DKFtDSDNdKShbQ0hdPTEpW0NIMl1DKD1PKVtDQEBIXShDMTIpW0NAQEhdKFtDQEhdKEMjTilDKFxPMik9TlxbSF0pYzNbY0hdW2NIXVtjSF1zMw==

>  <s_epik_cmdline>  (179) 
J2VwaWtfcHl0aG9uJywgJy1waHQnLCAnMi4wJywgJy1waCcsICc3LjAnLCAnLXRuJywgJzgnLCAnLW1hJywgJzIwMCcsICctaW1hZScsICc8aW5maWxlLm1hZT4nLCAnLW9tYWUnLCAnPG91dGZpbGUubWFlPic=

>  <r_lp_tautomer_probability>  (179) 
0.99995

>  <r_epik_Ionization_Penalty>  (179) 
0.0322769

>  <r_epik_Ionization_Penalty_Charging>  (179) 
0

>  <r_epik_Ionization_Penalty_Neutral>  (179) 
0.0322769

>  <r_epik_State_Penalty>  (179) 
0.827436

>  <r_epik_Charging_Adjusted_Penalty>  (179) 
0.827436

>  <i_epik_Tot_Q>  (179) 
0

>  <i_epik_Tot_abs_Q>  (179) 
0

>  <s_epik_Chemistry_Notes>  (179) 
This compound has an imine and may undergo hydrolysis.

>  <s_lp_Force_Field>  (179) 
OPLS3e

>  <r_lp_Energy>  (179) 
9.95636

>  <b_lp_Chiralities_Consistent>  (179) 
1

>  <s_lp_Variant>  (179) 
47:0-3

>  <s_i_glide_gridfile>  (179) 
pfpi4k_grid

>  <i_i_glide_lignum>  (179) 
23

>  <i_i_glide_rotatable_bonds>  (179) 
2

>  <r_i_docking_score>  (179) 
-2.87259

>  <r_i_glide_ligand_efficiency>  (179) 
-0.13679

>  <r_i_glide_ligand_efficiency_sa>  (179) 
-0.377393

>  <r_i_glide_ligand_efficiency_ln>  (179) 
-0.710242

>  <r_i_glide_gscore>  (179) 
-2.87259

>  <r_i_glide_lipo>  (179) 
-0.229405

>  <r_i_glide_hbond>  (179) 
-0.0643839

>  <r_i_glide_metal>  (179) 
-0

>  <r_i_glide_rewards>  (179) 
-1.36107

>  <r_i_glide_evdw>  (179) 
-19.6478

>  <r_i_glide_ecoul>  (179) 
-2.77113

>  <r_i_glide_erotb>  (179) 
0.203719

>  <r_i_glide_esite>  (179) 
-0.0233917

>  <r_i_glide_emodel>  (179) 
-25.566

>  <r_i_glide_energy>  (179) 
-22.4189

>  <r_i_glide_einternal>  (179) 
2.57199

>  <r_i_glide_intrahb_reward>  (179) 
-0

>  <i_i_glide_confnum>  (179) 
3

>  <i_i_glide_posenum>  (179) 
40

>  <r_i_glide_eff_state_penalty>  (179) 
0

>  <ligand_id>  (179) 
47

>  <original_smiles>  (179) 
CC1(C)C=C2OC(=N)C(C#N)C(c3cccs3)C2C(=O)C1

>  <smiles>  (179) 
[H]N=C1OC2=C([H])C(C([H])([H])[H])(C([H])([H])[H])C([H])([H])C(=O)C2([H])C([H])(c2sc([H])c([H])c2[H])C1([H])C#N

$$$$
47:2:2
     RDKit          3D

 37 39  0  0  1  0  0  0  0  0999 V2000
    0.5095    0.8438    2.0821 C   0  0  0  0  0  0  0  0  0  0  0  0
    1.6356    1.3016    3.0285 C   0  0  0  0  0  0  0  0  0  0  0  0
    2.9881    0.7296    2.5596 C   0  0  0  0  0  0  0  0  0  0  0  0
    1.7479    2.8128    2.9777 C   0  0  0  0  0  0  0  0  0  0  0  0
    1.9701    3.5988    4.0442 C   0  0  0  0  0  0  0  0  0  0  0  0
    1.9678    4.9618    3.8540 O   0  0  0  0  0  0  0  0  0  0  0  0
    1.5029    5.8163    4.8354 C   0  0  0  0  0  0  0  0  0  0  0  0
    1.1337    6.9830    4.5283 N   0  0  0  0  0  0  0  0  0  0  0  0
    1.4583    5.3029    6.2840 C   0  0  1  0  0  0  0  0  0  0  0  0
    0.5370    6.0982    7.1130 C   0  0  0  0  0  0  0  0  0  0  0  0
   -0.1886    6.7258    7.7671 N   0  0  0  0  0  0  0  0  0  0  0  0
    1.2039    3.7942    6.4234 C   0  0  1  0  0  0  0  0  0  0  0  0
   -0.2504    3.4060    6.3127 C   0  0  0  0  0  0  0  0  0  0  0  0
   -1.0370    2.8299    7.2766 C   0  0  0  0  0  0  0  0  0  0  0  0
   -2.3743    2.5959    6.8433 C   0  0  0  0  0  0  0  0  0  0  0  0
   -2.5891    2.9960    5.5538 C   0  0  0  0  0  0  0  0  0  0  0  0
   -1.1688    3.6973    4.8547 S   0  0  0  0  0  0  0  0  0  0  0  0
    2.1603    3.0796    5.4659 C   0  0  1  0  0  0  0  0  0  0  0  0
    2.0950    1.5465    5.5433 C   0  0  0  0  0  0  0  0  0  0  0  0
    2.6453    0.9284    6.4502 O   0  0  0  0  0  0  0  0  0  0  0  0
    1.2907    0.8238    4.4609 C   0  0  0  0  0  0  0  0  0  0  0  0
    0.4058   -0.2409    2.0874 H   0  0  0  0  0  0  0  0  0  0  0  0
    0.6868    1.1547    1.0515 H   0  0  0  0  0  0  0  0  0  0  0  0
   -0.4471    1.2706    2.3859 H   0  0  0  0  0  0  0  0  0  0  0  0
    3.0048   -0.3632    2.5804 H   0  0  0  0  0  0  0  0  0  0  0  0
    3.7976    1.0959    3.1987 H   0  0  0  0  0  0  0  0  0  0  0  0
    3.2143    1.0603    1.5418 H   0  0  0  0  0  0  0  0  0  0  0  0
    1.5794    3.2742    2.0188 H   0  0  0  0  0  0  0  0  0  0  0  0
    2.4525    5.5022    6.6888 H   0  0  0  0  0  0  0  0  0  0  0  0
    1.5152    3.5253    7.4351 H   0  0  0  0  0  0  0  0  0  0  0  0
   -0.7008    2.5734    8.2723 H   0  0  0  0  0  0  0  0  0  0  0  0
   -3.1217    2.1518    7.4886 H   0  0  0  0  0  0  0  0  0  0  0  0
   -3.4995    2.9412    4.9716 H   0  0  0  0  0  0  0  0  0  0  0  0
    3.1777    3.3558    5.7414 H   0  0  0  0  0  0  0  0  0  0  0  0
    0.2353    1.0096    4.6649 H   0  0  0  0  0  0  0  0  0  0  0  0
    1.4384   -0.2528    4.5448 H   0  0  0  0  0  0  0  0  0  0  0  0
    1.1826    7.1835    3.5354 H   0  0  0  0  0  0  0  0  0  0  0  0
  1  2  1  0
  1 22  1  0
  1 23  1  0
  1 24  1  0
  2 21  1  0
  2  3  1  0
  2  4  1  0
  3 25  1  0
  3 26  1  0
  3 27  1  0
  4  5  2  0
  4 28  1  0
  5 18  1  0
  5  6  1  0
  6  7  1  0
  7  8  2  3
  7  9  1  0
  8 37  1  0
  9 10  1  0
  9 12  1  0
  9 29  1  1
 10 11  3  0
 12 13  1  0
 12 18  1  0
 12 30  1  1
 13 17  1  0
 13 14  2  0
 14 15  1  0
 14 31  1  0
 15 16  2  0
 15 32  1  0
 16 17  1  0
 16 33  1  0
 18 19  1  0
 18 34  1  1
 19 20  2  0
 19 21  1  0
 21 35  1  0
 21 36  1  0
M  END
>  <i_m_ct_stereo_status>  (180) 
1

>  <s_m_source_file>  (180) 
/var/tmp/pbs.5076255.sched01/tmpn9kf4o8v/46f5dlbpu8.sdf

>  <i_m_source_file_index>  (180) 
23

>  <i_lp_mmshare_version>  (180) 
48012

>  <i_f3d_flags>  (180) 
0

>  <s_epik_input>  (180) 
W0NIM11DKFtDSDNdKShbQ0hdPTEpW0NIMl1DKD1PKVtDQEBIXShDMTIpW0NAQEhdKFtDQEhdKEMjTilDKFxPMik9TlxbSF0pYzNbY0hdW2NIXVtjSF1zMw==

>  <s_epik_cmdline>  (180) 
J2VwaWtfcHl0aG9uJywgJy1waHQnLCAnMi4wJywgJy1waCcsICc3LjAnLCAnLXRuJywgJzgnLCAnLW1hJywgJzIwMCcsICctaW1hZScsICc8aW5maWxlLm1hZT4nLCAnLW9tYWUnLCAnPG91dGZpbGUubWFlPic=

>  <r_lp_tautomer_probability>  (180) 
0.99995

>  <r_epik_Ionization_Penalty>  (180) 
0.0322769

>  <r_epik_Ionization_Penalty_Charging>  (180) 
0

>  <r_epik_Ionization_Penalty_Neutral>  (180) 
0.0322769

>  <r_epik_State_Penalty>  (180) 
0.827436

>  <r_epik_Charging_Adjusted_Penalty>  (180) 
0.827436

>  <i_epik_Tot_Q>  (180) 
0

>  <i_epik_Tot_abs_Q>  (180) 
0

>  <s_epik_Chemistry_Notes>  (180) 
This compound has an imine and may undergo hydrolysis.

>  <s_lp_Force_Field>  (180) 
OPLS3e

>  <r_lp_Energy>  (180) 
9.95636

>  <b_lp_Chiralities_Consistent>  (180) 
1

>  <s_lp_Variant>  (180) 
47:0-3

>  <s_i_glide_gridfile>  (180) 
pfpi4k_grid

>  <i_i_glide_lignum>  (180) 
23

>  <i_i_glide_rotatable_bonds>  (180) 
2

>  <r_i_docking_score>  (180) 
-2.80799

>  <r_i_glide_ligand_efficiency>  (180) 
-0.133714

>  <r_i_glide_ligand_efficiency_sa>  (180) 
-0.368906

>  <r_i_glide_ligand_efficiency_ln>  (180) 
-0.694269

>  <r_i_glide_gscore>  (180) 
-2.80799

>  <r_i_glide_lipo>  (180) 
-0.187815

>  <r_i_glide_hbond>  (180) 
-0.0689615

>  <r_i_glide_metal>  (180) 
-0

>  <r_i_glide_rewards>  (180) 
-1.36107

>  <r_i_glide_evdw>  (180) 
-19.9315

>  <r_i_glide_ecoul>  (180) 
-2.51177

>  <r_i_glide_erotb>  (180) 
0.203719

>  <r_i_glide_esite>  (180) 
-0.0205199

>  <r_i_glide_emodel>  (180) 
-26.2854

>  <r_i_glide_energy>  (180) 
-22.4433

>  <r_i_glide_einternal>  (180) 
0.873147

>  <r_i_glide_intrahb_reward>  (180) 
-0

>  <i_i_glide_confnum>  (180) 
1

>  <i_i_glide_posenum>  (180) 
15

>  <r_i_glide_eff_state_penalty>  (180) 
0

>  <ligand_id>  (180) 
47

>  <original_smiles>  (180) 
CC1(C)C=C2OC(=N)C(C#N)C(c3cccs3)C2C(=O)C1

>  <smiles>  (180) 
[H]N=C1OC2=C([H])C(C([H])([H])[H])(C([H])([H])[H])C([H])([H])C(=O)C2([H])C([H])(c2sc([H])c([H])c2[H])C1([H])C#N

$$$$
47:3:0
     RDKit          3D

 36 38  0  0  1  0  0  0  0  0999 V2000
    4.0998   -0.9593   -3.1452 C   0  0  0  0  0  0  0  0  0  0  0  0
    3.8954   -2.4357   -2.7946 C   0  0  0  0  0  0  0  0  0  0  0  0
    3.7330   -3.2686   -4.0602 C   0  0  0  0  0  0  0  0  0  0  0  0
    5.1091   -2.9507   -2.0515 C   0  0  0  0  0  0  0  0  0  0  0  0
    5.0449   -3.7600   -0.9770 C   0  0  0  0  0  0  0  0  0  0  0  0
    6.2134   -4.0544   -0.3322 O   0  0  0  0  0  0  0  0  0  0  0  0
    6.2273   -4.5081    0.9598 C   0  0  0  0  0  0  0  0  0  0  0  0
    7.4628   -4.7412    1.4221 N   0  0  0  0  0  0  0  0  0  0  0  0
    4.9561   -4.6566    1.8070 C   0  0  1  0  0  0  0  0  0  0  0  0
    5.1127   -4.2993    3.2315 C   0  0  0  0  0  0  0  0  0  0  0  0
    5.2111   -4.0261    4.3546 N   0  0  0  0  0  0  0  0  0  0  0  0
    3.7242   -3.9965    1.1638 C   0  0  1  0  0  0  0  0  0  0  0  0
    3.5624   -2.5417    1.5242 C   0  0  0  0  0  0  0  0  0  0  0  0
    2.5232   -1.9711    2.2108 C   0  0  0  0  0  0  0  0  0  0  0  0
    2.6693   -0.5637    2.3807 C   0  0  0  0  0  0  0  0  0  0  0  0
    3.8170   -0.0753    1.8211 C   0  0  0  0  0  0  0  0  0  0  0  0
    4.7730   -1.3434    1.1269 S   0  0  0  0  0  0  0  0  0  0  0  0
    3.7513   -4.2929   -0.3449 C   0  0  1  0  0  0  0  0  0  0  0  0
    2.4971   -3.8227   -1.1214 C   0  0  0  0  0  0  0  0  0  0  0  0
    1.4228   -4.4341   -1.1089 O   0  0  0  0  0  0  0  0  0  0  0  0
    2.6396   -2.5421   -1.9214 C   0  0  0  0  0  0  0  0  0  0  0  0
    3.2435   -0.5595   -3.6825 H   0  0  0  0  0  0  0  0  0  0  0  0
    4.9805   -0.8360   -3.7701 H   0  0  0  0  0  0  0  0  0  0  0  0
    4.2388   -0.3516   -2.2491 H   0  0  0  0  0  0  0  0  0  0  0  0
    2.8454   -2.9791   -4.6196 H   0  0  0  0  0  0  0  0  0  0  0  0
    3.6455   -4.3176   -3.8010 H   0  0  0  0  0  0  0  0  0  0  0  0
    4.6137   -3.1869   -4.6964 H   0  0  0  0  0  0  0  0  0  0  0  0
    6.0729   -2.5801   -2.3769 H   0  0  0  0  0  0  0  0  0  0  0  0
    4.7735   -5.7301    1.8126 H   0  0  0  0  0  0  0  0  0  0  0  0
    2.8555   -4.5180    1.5656 H   0  0  0  0  0  0  0  0  0  0  0  0
    1.6620   -2.5086    2.5865 H   0  0  0  0  0  0  0  0  0  0  0  0
    1.9331    0.0369    2.9015 H   0  0  0  0  0  0  0  0  0  0  0  0
    4.1605    0.9512    1.7935 H   0  0  0  0  0  0  0  0  0  0  0  0
    3.8098   -5.3788   -0.4564 H   0  0  0  0  0  0  0  0  0  0  0  0
    2.6590   -1.7533   -1.1783 H   0  0  0  0  0  0  0  0  0  0  0  0
    1.7482   -2.3984   -2.5183 H   0  0  0  0  0  0  0  0  0  0  0  0
  1  2  1  0
  1 22  1  0
  1 23  1  0
  1 24  1  0
  2 21  1  0
  2  3  1  0
  2  4  1  0
  3 25  1  0
  3 26  1  0
  3 27  1  0
  4  5  2  0
  4 28  1  0
  5 18  1  0
  5  6  1  0
  6  7  1  0
  7  8  2  3
  7  9  1  0
  9 10  1  0
  9 12  1  0
  9 29  1  1
 10 11  3  0
 12 13  1  0
 12 18  1  0
 12 30  1  1
 13 17  1  0
 13 14  2  0
 14 15  1  0
 14 31  1  0
 15 16  2  0
 15 32  1  0
 16 17  1  0
 16 33  1  0
 18 19  1  0
 18 34  1  1
 19 20  2  0
 19 21  1  0
 21 35  1  0
 21 36  1  0
M  CHG  1   8  -1
M  END
>  <i_m_ct_stereo_status>  (181) 
1

>  <s_m_source_file>  (181) 
/var/tmp/pbs.5076255.sched01/tmpn9kf4o8v/46f5dlbpu8.sdf

>  <i_m_source_file_index>  (181) 
24

>  <i_lp_mmshare_version>  (181) 
48012

>  <i_f3d_flags>  (181) 
0

>  <s_epik_input>  (181) 
W0NIM11DKFtDSDNdKShbQ0hdPTEpW0NIMl1DKD1PKVtDQEBIXShDMTIpW0NAQEhdKFtDQEhdKEMjTilDKFxPMik9TlxbSF0pYzNbY0hdW2NIXVtjSF1zMw==

>  <s_epik_cmdline>  (181) 
J2VwaWtfcHl0aG9uJywgJy1waHQnLCAnMi4wJywgJy1waCcsICc3LjAnLCAnLXRuJywgJzgnLCAnLW1hJywgJzIwMCcsICctaW1hZScsICc8aW5maWxlLm1hZT4nLCAnLW9tYWUnLCAnPG91dGZpbGUubWFlPic=

>  <r_lp_tautomer_probability>  (181) 
0.99995

>  <r_epik_Ionization_Penalty>  (181) 
1.79948

>  <r_epik_Ionization_Penalty_Charging>  (181) 
1.79948

>  <r_epik_Ionization_Penalty_Neutral>  (181) 
9.07693e-08

>  <r_epik_State_Penalty>  (181) 
2.71655

>  <r_epik_Charging_Adjusted_Penalty>  (181) 
4.51603

>  <i_epik_Tot_Q>  (181) 
-1

>  <i_epik_Tot_abs_Q>  (181) 
1

>  <s_epik_Chemistry_Notes>  (181) 
This compound has an imine and may undergo hydrolysis.

>  <s_lp_Force_Field>  (181) 
OPLS3e

>  <r_lp_Energy>  (181) 
12.7778

>  <b_lp_Chiralities_Consistent>  (181) 
1

>  <s_lp_Variant>  (181) 
47:0-4

>  <s_i_glide_gridfile>  (181) 
pfpi4k_grid

>  <i_i_glide_lignum>  (181) 
24

>  <i_i_glide_rotatable_bonds>  (181) 
2

>  <r_i_docking_score>  (181) 
-3.01562

>  <r_i_glide_ligand_efficiency>  (181) 
-0.143601

>  <r_i_glide_ligand_efficiency_sa>  (181) 
-0.396185

>  <r_i_glide_ligand_efficiency_ln>  (181) 
-0.745607

>  <r_i_glide_gscore>  (181) 
-3.01562

>  <r_i_glide_lipo>  (181) 
-0.460757

>  <r_i_glide_hbond>  (181) 
-9.99002e-05

>  <r_i_glide_metal>  (181) 
-0

>  <r_i_glide_rewards>  (181) 
-1.51988

>  <r_i_glide_evdw>  (181) 
-19.1222

>  <r_i_glide_ecoul>  (181) 
-1.74607

>  <r_i_glide_erotb>  (181) 
0.204921

>  <r_i_glide_esite>  (181) 
-0.0217895

>  <r_i_glide_emodel>  (181) 
-25.5375

>  <r_i_glide_energy>  (181) 
-20.8682

>  <r_i_glide_einternal>  (181) 
1.1186

>  <r_i_glide_intrahb_reward>  (181) 
-0

>  <i_i_glide_confnum>  (181) 
1

>  <i_i_glide_posenum>  (181) 
27

>  <r_i_glide_eff_state_penalty>  (181) 
0

>  <ligand_id>  (181) 
47

>  <original_smiles>  (181) 
CC1(C)C=C2OC(=N)C(C#N)C(c3cccs3)C2C(=O)C1

>  <smiles>  (181) 
[H]C1=C2OC(=[N-])C([H])(C#N)C([H])(c3sc([H])c([H])c3[H])C2([H])C(=O)C([H])([H])C1(C([H])([H])[H])C([H])([H])[H]

$$$$
47:3:1
     RDKit          3D

 36 38  0  0  1  0  0  0  0  0999 V2000
    4.0778   -1.0375   -3.4554 C   0  0  0  0  0  0  0  0  0  0  0  0
    3.8640   -2.4821   -2.9781 C   0  0  0  0  0  0  0  0  0  0  0  0
    3.6651   -3.4106   -4.1703 C   0  0  0  0  0  0  0  0  0  0  0  0
    5.0971   -2.9570   -2.2453 C   0  0  0  0  0  0  0  0  0  0  0  0
    5.0633   -3.6882   -1.1242 C   0  0  0  0  0  0  0  0  0  0  0  0
    6.2532   -3.9316   -0.4919 O   0  0  0  0  0  0  0  0  0  0  0  0
    6.2992   -4.3227    0.8186 C   0  0  0  0  0  0  0  0  0  0  0  0
    7.5406   -4.5266    1.2717 N   0  0  0  0  0  0  0  0  0  0  0  0
    5.0535   -4.4202    1.7016 C   0  0  1  0  0  0  0  0  0  0  0  0
    5.2456   -3.9783    3.0946 C   0  0  0  0  0  0  0  0  0  0  0  0
    5.3741   -3.6357    4.1948 N   0  0  0  0  0  0  0  0  0  0  0  0
    3.8086   -3.7977    1.0547 C   0  0  1  0  0  0  0  0  0  0  0  0
    3.6485   -2.3248    1.3299 C   0  0  0  0  0  0  0  0  0  0  0  0
    4.3937   -1.2851    0.8354 C   0  0  0  0  0  0  0  0  0  0  0  0
    3.9430   -0.0137    1.2791 C   0  0  0  0  0  0  0  0  0  0  0  0
    2.8880   -0.0939    2.1412 C   0  0  0  0  0  0  0  0  0  0  0  0
    2.3867   -1.7434    2.3844 S   0  0  0  0  0  0  0  0  0  0  0  0
    3.7899   -4.1762   -0.4303 C   0  0  1  0  0  0  0  0  0  0  0  0
    2.5132   -3.7253   -1.1784 C   0  0  0  0  0  0  0  0  0  0  0  0
    1.4470   -4.3337   -1.1168 O   0  0  0  0  0  0  0  0  0  0  0  0
    2.6359   -2.4936   -2.0605 C   0  0  0  0  0  0  0  0  0  0  0  0
    3.2099   -0.6585   -3.9913 H   0  0  0  0  0  0  0  0  0  0  0  0
    4.9357   -0.9696   -4.1207 H   0  0  0  0  0  0  0  0  0  0  0  0
    4.2565   -0.3687   -2.6111 H   0  0  0  0  0  0  0  0  0  0  0  0
    2.7705   -3.1274   -4.7248 H   0  0  0  0  0  0  0  0  0  0  0  0
    3.5616   -4.4552   -3.9003 H   0  0  0  0  0  0  0  0  0  0  0  0
    4.5604   -3.3911   -4.7845 H   0  0  0  0  0  0  0  0  0  0  0  0
    6.0503   -2.6228   -2.6289 H   0  0  0  0  0  0  0  0  0  0  0  0
    4.8684   -5.4905    1.7734 H   0  0  0  0  0  0  0  0  0  0  0  0
    2.9517   -4.2913    1.5075 H   0  0  0  0  0  0  0  0  0  0  0  0
    5.2297   -1.3698    0.1556 H   0  0  0  0  0  0  0  0  0  0  0  0
    4.4124    0.9008    0.9457 H   0  0  0  0  0  0  0  0  0  0  0  0
    2.3670    0.7196    2.6302 H   0  0  0  0  0  0  0  0  0  0  0  0
    3.8151   -5.2660   -0.4953 H   0  0  0  0  0  0  0  0  0  0  0  0
    2.6785   -1.6457   -1.3834 H   0  0  0  0  0  0  0  0  0  0  0  0
    1.7273   -2.3853   -2.6405 H   0  0  0  0  0  0  0  0  0  0  0  0
  1  2  1  0
  1 22  1  0
  1 23  1  0
  1 24  1  0
  2 21  1  0
  2  3  1  0
  2  4  1  0
  3 25  1  0
  3 26  1  0
  3 27  1  0
  4  5  2  0
  4 28  1  0
  5 18  1  0
  5  6  1  0
  6  7  1  0
  7  8  2  3
  7  9  1  0
  9 10  1  0
  9 12  1  0
  9 29  1  1
 10 11  3  0
 12 13  1  0
 12 18  1  0
 12 30  1  1
 13 17  1  0
 13 14  2  0
 14 15  1  0
 14 31  1  0
 15 16  2  0
 15 32  1  0
 16 17  1  0
 16 33  1  0
 18 19  1  0
 18 34  1  1
 19 20  2  0
 19 21  1  0
 21 35  1  0
 21 36  1  0
M  CHG  1   8  -1
M  END
>  <i_m_ct_stereo_status>  (182) 
1

>  <s_m_source_file>  (182) 
/var/tmp/pbs.5076255.sched01/tmpn9kf4o8v/46f5dlbpu8.sdf

>  <i_m_source_file_index>  (182) 
24

>  <i_lp_mmshare_version>  (182) 
48012

>  <i_f3d_flags>  (182) 
0

>  <s_epik_input>  (182) 
W0NIM11DKFtDSDNdKShbQ0hdPTEpW0NIMl1DKD1PKVtDQEBIXShDMTIpW0NAQEhdKFtDQEhdKEMjTilDKFxPMik9TlxbSF0pYzNbY0hdW2NIXVtjSF1zMw==

>  <s_epik_cmdline>  (182) 
J2VwaWtfcHl0aG9uJywgJy1waHQnLCAnMi4wJywgJy1waCcsICc3LjAnLCAnLXRuJywgJzgnLCAnLW1hJywgJzIwMCcsICctaW1hZScsICc8aW5maWxlLm1hZT4nLCAnLW9tYWUnLCAnPG91dGZpbGUubWFlPic=

>  <r_lp_tautomer_probability>  (182) 
0.99995

>  <r_epik_Ionization_Penalty>  (182) 
1.79948

>  <r_epik_Ionization_Penalty_Charging>  (182) 
1.79948

>  <r_epik_Ionization_Penalty_Neutral>  (182) 
9.07693e-08

>  <r_epik_State_Penalty>  (182) 
2.71655

>  <r_epik_Charging_Adjusted_Penalty>  (182) 
4.51603

>  <i_epik_Tot_Q>  (182) 
-1

>  <i_epik_Tot_abs_Q>  (182) 
1

>  <s_epik_Chemistry_Notes>  (182) 
This compound has an imine and may undergo hydrolysis.

>  <s_lp_Force_Field>  (182) 
OPLS3e

>  <r_lp_Energy>  (182) 
12.7778

>  <b_lp_Chiralities_Consistent>  (182) 
1

>  <s_lp_Variant>  (182) 
47:0-4

>  <s_i_glide_gridfile>  (182) 
pfpi4k_grid

>  <i_i_glide_lignum>  (182) 
24

>  <i_i_glide_rotatable_bonds>  (182) 
2

>  <r_i_docking_score>  (182) 
-2.988

>  <r_i_glide_ligand_efficiency>  (182) 
-0.142286

>  <r_i_glide_ligand_efficiency_sa>  (182) 
-0.392556

>  <r_i_glide_ligand_efficiency_ln>  (182) 
-0.738778

>  <r_i_glide_gscore>  (182) 
-2.988

>  <r_i_glide_lipo>  (182) 
-0.547111

>  <r_i_glide_hbond>  (182) 
-0.000208135

>  <r_i_glide_metal>  (182) 
-0

>  <r_i_glide_rewards>  (182) 
-1.53728

>  <r_i_glide_evdw>  (182) 
-18.5539

>  <r_i_glide_ecoul>  (182) 
-1.12534

>  <r_i_glide_erotb>  (182) 
0.204921

>  <r_i_glide_esite>  (182) 
-0.0118367

>  <r_i_glide_emodel>  (182) 
-23.4486

>  <r_i_glide_energy>  (182) 
-19.6792

>  <r_i_glide_einternal>  (182) 
2.80552

>  <r_i_glide_intrahb_reward>  (182) 
-0

>  <i_i_glide_confnum>  (182) 
2

>  <i_i_glide_posenum>  (182) 
4

>  <r_i_glide_eff_state_penalty>  (182) 
0

>  <ligand_id>  (182) 
47

>  <original_smiles>  (182) 
CC1(C)C=C2OC(=N)C(C#N)C(c3cccs3)C2C(=O)C1

>  <smiles>  (182) 
[H]C1=C2OC(=[N-])C([H])(C#N)C([H])(c3sc([H])c([H])c3[H])C2([H])C(=O)C([H])([H])C1(C([H])([H])[H])C([H])([H])[H]

$$$$
47:3:2
     RDKit          3D

 36 38  0  0  1  0  0  0  0  0999 V2000
   -0.8814    1.8862    3.3462 C   0  0  0  0  0  0  0  0  0  0  0  0
    0.3447    2.5746    3.9698 C   0  0  0  0  0  0  0  0  0  0  0  0
    1.5816    2.3837    3.0798 C   0  0  0  0  0  0  0  0  0  0  0  0
    0.0819    4.0726    4.0423 C   0  0  0  0  0  0  0  0  0  0  0  0
    0.4162    4.8500    5.0912 C   0  0  0  0  0  0  0  0  0  0  0  0
    0.0061    6.1592    5.0906 O   0  0  0  0  0  0  0  0  0  0  0  0
   -0.0782    6.8944    6.2530 C   0  0  0  0  0  0  0  0  0  0  0  0
   -0.5837    8.1219    6.0771 N   0  0  0  0  0  0  0  0  0  0  0  0
    0.2363    6.3008    7.6335 C   0  0  1  0  0  0  0  0  0  0  0  0
   -0.6363    6.8204    8.7087 C   0  0  0  0  0  0  0  0  0  0  0  0
   -1.3138    7.2223    9.5590 N   0  0  0  0  0  0  0  0  0  0  0  0
    0.3461    4.7627    7.6147 C   0  0  1  0  0  0  0  0  0  0  0  0
   -0.9691    4.0446    7.8436 C   0  0  0  0  0  0  0  0  0  0  0  0
   -1.8835    3.6066    6.9136 C   0  0  0  0  0  0  0  0  0  0  0  0
   -2.9951    2.9449    7.4815 C   0  0  0  0  0  0  0  0  0  0  0  0
   -2.9795    2.9405    8.8499 C   0  0  0  0  0  0  0  0  0  0  0  0
   -1.5172    3.6678    9.4587 S   0  0  0  0  0  0  0  0  0  0  0  0
    1.1273    4.3565    6.3464 C   0  0  1  0  0  0  0  0  0  0  0  0
    1.4645    2.8567    6.2685 C   0  0  0  0  0  0  0  0  0  0  0  0
    2.3857    2.3848    6.9177 O   0  0  0  0  0  0  0  0  0  0  0  0
    0.5813    1.9744    5.3782 C   0  0  0  0  0  0  0  0  0  0  0  0
   -0.7266    0.8132    3.2651 H   0  0  0  0  0  0  0  0  0  0  0  0
   -1.0953    2.2758    2.3507 H   0  0  0  0  0  0  0  0  0  0  0  0
   -1.7708    2.0417    3.9552 H   0  0  0  0  0  0  0  0  0  0  0  0
    1.8528    1.3308    2.9927 H   0  0  0  0  0  0  0  0  0  0  0  0
    2.4383    2.9228    3.4972 H   0  0  0  0  0  0  0  0  0  0  0  0
    1.4043    2.7922    2.0815 H   0  0  0  0  0  0  0  0  0  0  0  0
   -0.4640    4.5021    3.2110 H   0  0  0  0  0  0  0  0  0  0  0  0
    1.2314    6.6817    7.8812 H   0  0  0  0  0  0  0  0  0  0  0  0
    0.9799    4.4904    8.4580 H   0  0  0  0  0  0  0  0  0  0  0  0
   -1.8094    3.7064    5.8402 H   0  0  0  0  0  0  0  0  0  0  0  0
   -3.7716    2.5463    6.8459 H   0  0  0  0  0  0  0  0  0  0  0  0
   -3.7239    2.5474    9.5309 H   0  0  0  0  0  0  0  0  0  0  0  0
    2.0895    4.8774    6.3726 H   0  0  0  0  0  0  0  0  0  0  0  0
   -0.3658    1.8238    5.8934 H   0  0  0  0  0  0  0  0  0  0  0  0
    1.0117    0.9806    5.2903 H   0  0  0  0  0  0  0  0  0  0  0  0
  1  2  1  0
  1 22  1  0
  1 23  1  0
  1 24  1  0
  2 21  1  0
  2  3  1  0
  2  4  1  0
  3 25  1  0
  3 26  1  0
  3 27  1  0
  4  5  2  0
  4 28  1  0
  5 18  1  0
  5  6  1  0
  6  7  1  0
  7  8  2  3
  7  9  1  0
  9 10  1  0
  9 12  1  0
  9 29  1  1
 10 11  3  0
 12 13  1  0
 12 18  1  0
 12 30  1  1
 13 17  1  0
 13 14  2  0
 14 15  1  0
 14 31  1  0
 15 16  2  0
 15 32  1  0
 16 17  1  0
 16 33  1  0
 18 19  1  0
 18 34  1  1
 19 20  2  0
 19 21  1  0
 21 35  1  0
 21 36  1  0
M  CHG  1   8  -1
M  END
>  <i_m_ct_stereo_status>  (183) 
1

>  <s_m_source_file>  (183) 
/var/tmp/pbs.5076255.sched01/tmpn9kf4o8v/46f5dlbpu8.sdf

>  <i_m_source_file_index>  (183) 
24

>  <i_lp_mmshare_version>  (183) 
48012

>  <i_f3d_flags>  (183) 
0

>  <s_epik_input>  (183) 
W0NIM11DKFtDSDNdKShbQ0hdPTEpW0NIMl1DKD1PKVtDQEBIXShDMTIpW0NAQEhdKFtDQEhdKEMjTilDKFxPMik9TlxbSF0pYzNbY0hdW2NIXVtjSF1zMw==

>  <s_epik_cmdline>  (183) 
J2VwaWtfcHl0aG9uJywgJy1waHQnLCAnMi4wJywgJy1waCcsICc3LjAnLCAnLXRuJywgJzgnLCAnLW1hJywgJzIwMCcsICctaW1hZScsICc8aW5maWxlLm1hZT4nLCAnLW9tYWUnLCAnPG91dGZpbGUubWFlPic=

>  <r_lp_tautomer_probability>  (183) 
0.99995

>  <r_epik_Ionization_Penalty>  (183) 
1.79948

>  <r_epik_Ionization_Penalty_Charging>  (183) 
1.79948

>  <r_epik_Ionization_Penalty_Neutral>  (183) 
9.07693e-08

>  <r_epik_State_Penalty>  (183) 
2.71655

>  <r_epik_Charging_Adjusted_Penalty>  (183) 
4.51603

>  <i_epik_Tot_Q>  (183) 
-1

>  <i_epik_Tot_abs_Q>  (183) 
1

>  <s_epik_Chemistry_Notes>  (183) 
This compound has an imine and may undergo hydrolysis.

>  <s_lp_Force_Field>  (183) 
OPLS3e

>  <r_lp_Energy>  (183) 
12.7778

>  <b_lp_Chiralities_Consistent>  (183) 
1

>  <s_lp_Variant>  (183) 
47:0-4

>  <s_i_glide_gridfile>  (183) 
pfpi4k_grid

>  <i_i_glide_lignum>  (183) 
24

>  <i_i_glide_rotatable_bonds>  (183) 
2

>  <r_i_docking_score>  (183) 
-2.97423

>  <r_i_glide_ligand_efficiency>  (183) 
-0.14163

>  <r_i_glide_ligand_efficiency_sa>  (183) 
-0.390746

>  <r_i_glide_ligand_efficiency_ln>  (183) 
-0.735372

>  <r_i_glide_gscore>  (183) 
-2.97423

>  <r_i_glide_lipo>  (183) 
-0.227835

>  <r_i_glide_hbond>  (183) 
-0.2

>  <r_i_glide_metal>  (183) 
-0

>  <r_i_glide_rewards>  (183) 
-1.36794

>  <r_i_glide_evdw>  (183) 
-17.6296

>  <r_i_glide_ecoul>  (183) 
-3.09623

>  <r_i_glide_erotb>  (183) 
0.204921

>  <r_i_glide_esite>  (183) 
-0.037458

>  <r_i_glide_emodel>  (183) 
-23.7367

>  <r_i_glide_energy>  (183) 
-20.7258

>  <r_i_glide_einternal>  (183) 
3.77238

>  <r_i_glide_intrahb_reward>  (183) 
-0

>  <i_i_glide_confnum>  (183) 
4

>  <i_i_glide_posenum>  (183) 
28

>  <r_i_glide_eff_state_penalty>  (183) 
0

>  <ligand_id>  (183) 
47

>  <original_smiles>  (183) 
CC1(C)C=C2OC(=N)C(C#N)C(c3cccs3)C2C(=O)C1

>  <smiles>  (183) 
[H]C1=C2OC(=[N-])C([H])(C#N)C([H])(c3sc([H])c([H])c3[H])C2([H])C(=O)C([H])([H])C1(C([H])([H])[H])C([H])([H])[H]

$$$$
48:0:0
     RDKit          3D

 46 52  0  0  1  0  0  0  0  0999 V2000
   -6.1203   -4.5232   -4.6609 C   0  0  0  0  0  0  0  0  0  0  0  0
   -5.8689   -5.9060   -4.8819 O   0  0  0  0  0  0  0  0  0  0  0  0
   -6.7599   -6.4541   -5.8456 C   0  0  0  0  0  0  0  0  0  0  0  0
   -6.3380   -7.9002   -6.1294 C   0  0  2  0  0  0  0  0  0  0  0  0
   -4.9250   -8.1559   -6.6531 C   0  0  0  0  0  0  0  0  0  0  0  0
   -5.4500   -9.0625   -7.6620 N   0  0  2  0  0  0  0  0  0  0  0  0
   -6.8237   -8.5675   -7.4109 C   0  0  1  0  0  0  0  0  0  0  0  0
   -7.9798   -9.6055   -7.5882 C   0  0  2  0  0  0  0  0  0  0  0  0
   -8.4008  -10.5196   -6.3875 C   0  0  0  0  0  0  0  0  0  0  0  0
   -7.8312  -11.9842   -6.4277 C   0  0  1  0  0  0  0  0  0  0  0  0
   -8.1245  -12.8654   -7.7057 C   0  0  1  0  0  0  0  0  0  0  0  0
   -9.2766  -12.2943   -8.5437 C   0  0  0  0  0  0  0  0  0  0  0  0
   -8.4833  -11.3876   -9.4882 C   0  0  2  0  0  0  0  0  0  0  0  0
   -7.4824  -12.3894  -10.0360 C   0  0  0  0  0  0  0  0  0  0  0  0
   -6.8619  -12.6735   -8.6784 C   0  0  1  0  0  0  0  0  0  0  0  0
   -6.3897  -11.3372   -8.1233 C   0  0  1  0  0  0  0  0  0  0  0  0
   -6.3910  -11.8900   -6.6841 C   0  0  1  0  0  0  0  0  0  0  0  0
   -5.2853  -11.0192   -6.1655 C   0  0  0  0  0  0  0  0  0  0  0  0
   -5.1580  -10.5272   -7.6052 C   0  0  2  0  0  0  0  0  0  0  0  0
   -7.4992  -10.4595   -8.7461 C   0  0  2  0  0  0  0  0  0  0  0  0
   -5.4209   -4.1184   -3.9369 H   0  0  0  0  0  0  0  0  0  0  0  0
   -7.1278   -4.3619   -4.2771 H   0  0  0  0  0  0  0  0  0  0  0  0
   -5.9963   -3.9558   -5.5834 H   0  0  0  0  0  0  0  0  0  0  0  0
   -7.7741   -6.4483   -5.4569 H   0  0  0  0  0  0  0  0  0  0  0  0
   -6.7510   -5.8395   -6.7439 H   0  0  0  0  0  0  0  0  0  0  0  0
   -6.5031   -8.5324   -5.2717 H   0  0  0  0  0  0  0  0  0  0  0  0
   -4.5238   -7.2732   -7.1328 H   0  0  0  0  0  0  0  0  0  0  0  0
   -4.2188   -8.5994   -5.9354 H   0  0  0  0  0  0  0  0  0  0  0  0
   -6.9682   -7.7744   -8.1434 H   0  0  0  0  0  0  0  0  0  0  0  0
   -8.8677   -9.0638   -7.9075 H   0  0  0  0  0  0  0  0  0  0  0  0
   -8.0873  -10.0617   -5.4503 H   0  0  0  0  0  0  0  0  0  0  0  0
   -9.4913  -10.5630   -6.3345 H   0  0  0  0  0  0  0  0  0  0  0  0
   -8.0402  -12.5351   -5.5240 H   0  0  0  0  0  0  0  0  0  0  0  0
   -8.2812  -13.9099   -7.4548 H   0  0  0  0  0  0  0  0  0  0  0  0
   -9.7506  -13.0871   -9.1170 H   0  0  0  0  0  0  0  0  0  0  0  0
  -10.0623  -11.7949   -7.9817 H   0  0  0  0  0  0  0  0  0  0  0  0
   -9.0860  -10.8795  -10.2431 H   0  0  0  0  0  0  0  0  0  0  0  0
   -7.9162  -13.2643  -10.5339 H   0  0  0  0  0  0  0  0  0  0  0  0
   -6.7607  -11.9410  -10.6997 H   0  0  0  0  0  0  0  0  0  0  0  0
   -6.1157  -13.4693   -8.6610 H   0  0  0  0  0  0  0  0  0  0  0  0
   -5.9107  -12.8581   -6.5796 H   0  0  0  0  0  0  0  0  0  0  0  0
   -5.5627  -10.3411   -5.3847 H   0  0  0  0  0  0  0  0  0  0  0  0
   -4.3886  -11.5900   -5.8898 H   0  0  0  0  0  0  0  0  0  0  0  0
   -4.2273  -10.8281   -8.0823 H   0  0  0  0  0  0  0  0  0  0  0  0
   -7.0757   -9.8235   -9.5307 H   0  0  0  0  0  0  0  0  0  0  0  0
   -5.2017   -8.7400   -8.5915 H   0  0  0  0  0  0  0  0  0  0  0  0
  1  2  1  0
  1 21  1  0
  1 22  1  0
  1 23  1  0
  2  3  1  0
  3  4  1  0
  3 24  1  0
  3 25  1  0
  4  7  1  0
  4  5  1  0
  4 26  1  1
  5  6  1  0
  5 27  1  0
  5 28  1  0
  6 19  1  0
  6  7  1  0
  6 46  1  6
  7  8  1  0
  7 29  1  6
  8 20  1  0
  8  9  1  0
  8 30  1  6
  9 10  1  0
  9 31  1  0
  9 32  1  0
 10 17  1  0
 10 11  1  0
 10 33  1  1
 11 15  1  0
 11 12  1  0
 11 34  1  1
 12 13  1  0
 12 35  1  0
 12 36  1  0
 13 20  1  0
 13 14  1  0
 13 37  1  6
 14 15  1  0
 14 38  1  0
 14 39  1  0
 15 16  1  0
 15 40  1  6
 16 19  1  6
 16 17  1  0
 16 20  1  0
 17 18  1  0
 17 41  1  6
 18 19  1  0
 18 42  1  0
 18 43  1  0
 19 44  1  6
 20 45  1  6
M  CHG  1   6   1
M  END
>  <i_m_ct_stereo_status>  (184) 
1

>  <s_m_source_file>  (184) 
/var/tmp/pbs.5076255.sched01/tmpn9kf4o8v/46f5dlbpu8.sdf

>  <i_m_source_file_index>  (184) 
25

>  <i_lp_mmshare_version>  (184) 
48012

>  <i_f3d_flags>  (184) 
0

>  <s_epik_input>  (184) 
W0NIM11PW0NIMl1bQ0BIXShbQ0gyXTEpW0NASF0oW0NASF0oW0NIMl0yKVtDQEBIXTNbQ0BIXShbQ0gyXTQpW0NIMl01KU4xW0NASF02W0NIMl1bQ0BIXTdbQ0BASF0yW0NAQEhdNFtDQEBIXTVbQ0BdMzY3

>  <s_epik_cmdline>  (184) 
J2VwaWtfcHl0aG9uJywgJy1waHQnLCAnMi4wJywgJy1waCcsICc3LjAnLCAnLXRuJywgJzgnLCAnLW1hJywgJzIwMCcsICctaW1hZScsICc8aW5maWxlLm1hZT4nLCAnLW9tYWUnLCAnPG91dGZpbGUubWFlPic=

>  <r_epik_Ionization_Penalty>  (184) 
0.000823078

>  <r_epik_Ionization_Penalty_Charging>  (184) 
0.000823078

>  <r_epik_Ionization_Penalty_Neutral>  (184) 
6.21231e-12

>  <r_epik_State_Penalty>  (184) 
0.000529547

>  <r_epik_Charging_Adjusted_Penalty>  (184) 
0.00135263

>  <i_epik_Tot_Q>  (184) 
1

>  <i_epik_Tot_abs_Q>  (184) 
1

>  <s_lp_Force_Field>  (184) 
OPLS3e

>  <r_lp_Energy>  (184) 
171.536

>  <b_lp_Chiralities_Consistent>  (184) 
1

>  <s_lp_Variant>  (184) 
48:0-1

>  <s_i_glide_gridfile>  (184) 
pfpi4k_grid

>  <i_i_glide_lignum>  (184) 
25

>  <i_i_glide_rotatable_bonds>  (184) 
2

>  <r_i_docking_score>  (184) 
-4.97744

>  <r_i_glide_ligand_efficiency>  (184) 
-0.248872

>  <r_i_glide_ligand_efficiency_sa>  (184) 
-0.675543

>  <r_i_glide_ligand_efficiency_ln>  (184) 
-1.24569

>  <r_i_glide_gscore>  (184) 
-4.97744

>  <r_i_glide_lipo>  (184) 
-2.18037

>  <r_i_glide_hbond>  (184) 
0

>  <r_i_glide_metal>  (184) 
-0

>  <r_i_glide_rewards>  (184) 
-1.87478

>  <r_i_glide_evdw>  (184) 
-16.3927

>  <r_i_glide_ecoul>  (184) 
-0.684375

>  <r_i_glide_erotb>  (184) 
0

>  <r_i_glide_esite>  (184) 
0

>  <r_i_glide_emodel>  (184) 
-19.6719

>  <r_i_glide_energy>  (184) 
-17.0771

>  <r_i_glide_einternal>  (184) 
0.585924

>  <r_i_glide_intrahb_reward>  (184) 
-0

>  <i_i_glide_confnum>  (184) 
2

>  <i_i_glide_posenum>  (184) 
20

>  <r_i_glide_eff_state_penalty>  (184) 
0

>  <ligand_id>  (184) 
48

>  <original_smiles>  (184) 
COCC1CN2C1C1CC3C4CC5CC4C4(C3CC24)C51

>  <smiles>  (184) 
[H]C([H])([H])OC([H])([H])C1([H])C([H])([H])[N+]2([H])C1([H])C1([H])C([H])([H])C3([H])C4([H])C([H])([H])C5([H])C([H])([H])C4([H])C4(C3([H])C([H])([H])C42[H])C51[H]

$$$$
48:0:1
     RDKit          3D

 46 52  0  0  1  0  0  0  0  0999 V2000
   -5.6351   -4.9816   -4.8816 C   0  0  0  0  0  0  0  0  0  0  0  0
   -5.7129   -6.3893   -4.9875 O   0  0  0  0  0  0  0  0  0  0  0  0
   -6.8899   -6.8146   -5.6533 C   0  0  0  0  0  0  0  0  0  0  0  0
   -6.6319   -8.1948   -6.2510 C   0  0  2  0  0  0  0  0  0  0  0  0
   -5.5065   -8.3671   -7.2818 C   0  0  0  0  0  0  0  0  0  0  0  0
   -6.3878   -9.1391   -8.1147 N   0  0  2  0  0  0  0  0  0  0  0  0
   -7.5738   -8.7089   -7.3440 C   0  0  1  0  0  0  0  0  0  0  0  0
   -8.7386   -9.7483   -7.2384 C   0  0  2  0  0  0  0  0  0  0  0  0
   -8.6859  -10.8291   -6.0852 C   0  0  0  0  0  0  0  0  0  0  0  0
   -8.1733  -12.2561   -6.5201 C   0  0  1  0  0  0  0  0  0  0  0  0
   -8.9363  -12.9773   -7.7071 C   0  0  1  0  0  0  0  0  0  0  0  0
  -10.3031  -12.3500   -7.9943 C   0  0  0  0  0  0  0  0  0  0  0  0
   -9.9170  -11.2956   -9.0326 C   0  0  2  0  0  0  0  0  0  0  0  0
   -9.1888  -12.1605  -10.0502 C   0  0  0  0  0  0  0  0  0  0  0  0
   -8.1334  -12.6038   -9.0410 C   0  0  1  0  0  0  0  0  0  0  0  0
   -7.4669  -11.3422   -8.5290 C   0  0  1  0  0  0  0  0  0  0  0  0
   -6.9589  -12.0616   -7.2797 C   0  0  1  0  0  0  0  0  0  0  0  0
   -5.7356  -11.2549   -7.0383 C   0  0  0  0  0  0  0  0  0  0  0  0
   -6.1307  -10.5823   -8.3411 C   0  0  2  0  0  0  0  0  0  0  0  0
   -8.7196  -10.4275   -8.5833 C   0  0  2  0  0  0  0  0  0  0  0  0
   -4.7287   -4.6931   -4.3539 H   0  0  0  0  0  0  0  0  0  0  0  0
   -6.4938   -4.5568   -4.3570 H   0  0  0  0  0  0  0  0  0  0  0  0
   -5.5827   -4.5370   -5.8758 H   0  0  0  0  0  0  0  0  0  0  0  0
   -7.7166   -6.8509   -4.9454 H   0  0  0  0  0  0  0  0  0  0  0  0
   -7.1820   -6.0939   -6.4311 H   0  0  0  0  0  0  0  0  0  0  0  0
   -6.4892   -8.9410   -5.4724 H   0  0  0  0  0  0  0  0  0  0  0  0
   -5.2532   -7.4478   -7.7823 H   0  0  0  0  0  0  0  0  0  0  0  0
   -4.6103   -8.8752   -6.9103 H   0  0  0  0  0  0  0  0  0  0  0  0
   -7.9589   -7.8271   -7.8507 H   0  0  0  0  0  0  0  0  0  0  0  0
   -9.6827   -9.2155   -7.1540 H   0  0  0  0  0  0  0  0  0  0  0  0
   -8.0511  -10.4577   -5.2915 H   0  0  0  0  0  0  0  0  0  0  0  0
   -9.6733  -10.9516   -5.6314 H   0  0  0  0  0  0  0  0  0  0  0  0
   -7.8969  -12.8791   -5.6726 H   0  0  0  0  0  0  0  0  0  0  0  0
   -8.9955  -14.0531   -7.5541 H   0  0  0  0  0  0  0  0  0  0  0  0
  -10.9732  -13.0823   -8.4411 H   0  0  0  0  0  0  0  0  0  0  0  0
  -10.8168  -11.9540   -7.1181 H   0  0  0  0  0  0  0  0  0  0  0  0
  -10.7550  -10.7200   -9.4275 H   0  0  0  0  0  0  0  0  0  0  0  0
   -9.7781  -12.9727  -10.4699 H   0  0  0  0  0  0  0  0  0  0  0  0
   -8.7452  -11.5748  -10.8598 H   0  0  0  0  0  0  0  0  0  0  0  0
   -7.4290  -13.3684   -9.4101 H   0  0  0  0  0  0  0  0  0  0  0  0
   -6.4724  -13.0161   -7.5096 H   0  0  0  0  0  0  0  0  0  0  0  0
   -5.7003  -10.7194   -6.0947 H   0  0  0  0  0  0  0  0  0  0  0  0
   -4.8098  -11.7988   -7.2153 H   0  0  0  0  0  0  0  0  0  0  0  0
   -5.4683  -10.9133   -9.1112 H   0  0  0  0  0  0  0  0  0  0  0  0
   -8.6071   -9.6841   -9.3752 H   0  0  0  0  0  0  0  0  0  0  0  0
   -6.4832   -8.7039   -9.0386 H   0  0  0  0  0  0  0  0  0  0  0  0
  1  2  1  0
  1 21  1  0
  1 22  1  0
  1 23  1  0
  2  3  1  0
  3  4  1  0
  3 24  1  0
  3 25  1  0
  4  7  1  0
  4  5  1  0
  4 26  1  1
  5  6  1  0
  5 27  1  0
  5 28  1  0
  6 19  1  0
  6  7  1  0
  6 46  1  6
  7  8  1  0
  7 29  1  6
  8 20  1  0
  8  9  1  0
  8 30  1  1
  9 10  1  0
  9 31  1  0
  9 32  1  0
 10 17  1  0
 10 11  1  0
 10 33  1  1
 11 15  1  0
 11 12  1  0
 11 34  1  1
 12 13  1  0
 12 35  1  0
 12 36  1  0
 13 20  1  0
 13 14  1  0
 13 37  1  6
 14 15  1  0
 14 38  1  0
 14 39  1  0
 15 16  1  0
 15 40  1  6
 16 19  1  6
 16 17  1  0
 16 20  1  0
 17 18  1  0
 17 41  1  6
 18 19  1  0
 18 42  1  0
 18 43  1  0
 19 44  1  6
 20 45  1  6
M  CHG  1   6   1
M  END
>  <i_m_ct_stereo_status>  (185) 
1

>  <s_m_source_file>  (185) 
/var/tmp/pbs.5076255.sched01/tmpn9kf4o8v/46f5dlbpu8.sdf

>  <i_m_source_file_index>  (185) 
25

>  <i_lp_mmshare_version>  (185) 
48012

>  <i_f3d_flags>  (185) 
0

>  <s_epik_input>  (185) 
W0NIM11PW0NIMl1bQ0BIXShbQ0gyXTEpW0NASF0oW0NASF0oW0NIMl0yKVtDQEBIXTNbQ0BIXShbQ0gyXTQpW0NIMl01KU4xW0NASF02W0NIMl1bQ0BIXTdbQ0BASF0yW0NAQEhdNFtDQEBIXTVbQ0BdMzY3

>  <s_epik_cmdline>  (185) 
J2VwaWtfcHl0aG9uJywgJy1waHQnLCAnMi4wJywgJy1waCcsICc3LjAnLCAnLXRuJywgJzgnLCAnLW1hJywgJzIwMCcsICctaW1hZScsICc8aW5maWxlLm1hZT4nLCAnLW9tYWUnLCAnPG91dGZpbGUubWFlPic=

>  <r_epik_Ionization_Penalty>  (185) 
0.000823078

>  <r_epik_Ionization_Penalty_Charging>  (185) 
0.000823078

>  <r_epik_Ionization_Penalty_Neutral>  (185) 
6.21231e-12

>  <r_epik_State_Penalty>  (185) 
0.000529547

>  <r_epik_Charging_Adjusted_Penalty>  (185) 
0.00135263

>  <i_epik_Tot_Q>  (185) 
1

>  <i_epik_Tot_abs_Q>  (185) 
1

>  <s_lp_Force_Field>  (185) 
OPLS3e

>  <r_lp_Energy>  (185) 
171.536

>  <b_lp_Chiralities_Consistent>  (185) 
1

>  <s_lp_Variant>  (185) 
48:0-1

>  <s_i_glide_gridfile>  (185) 
pfpi4k_grid

>  <i_i_glide_lignum>  (185) 
25

>  <i_i_glide_rotatable_bonds>  (185) 
2

>  <r_i_docking_score>  (185) 
-4.58721

>  <r_i_glide_ligand_efficiency>  (185) 
-0.229361

>  <r_i_glide_ligand_efficiency_sa>  (185) 
-0.622581

>  <r_i_glide_ligand_efficiency_ln>  (185) 
-1.14803

>  <r_i_glide_gscore>  (185) 
-4.58721

>  <r_i_glide_lipo>  (185) 
-1.78011

>  <r_i_glide_hbond>  (185) 
0

>  <r_i_glide_metal>  (185) 
-0

>  <r_i_glide_rewards>  (185) 
-1.84345

>  <r_i_glide_evdw>  (185) 
-16.431

>  <r_i_glide_ecoul>  (185) 
-0.947348

>  <r_i_glide_erotb>  (185) 
0

>  <r_i_glide_esite>  (185) 
0

>  <r_i_glide_emodel>  (185) 
-19.1067

>  <r_i_glide_energy>  (185) 
-17.3783

>  <r_i_glide_einternal>  (185) 
1.52646

>  <r_i_glide_intrahb_reward>  (185) 
-0

>  <i_i_glide_confnum>  (185) 
2

>  <i_i_glide_posenum>  (185) 
1

>  <r_i_glide_eff_state_penalty>  (185) 
0

>  <ligand_id>  (185) 
48

>  <original_smiles>  (185) 
COCC1CN2C1C1CC3C4CC5CC4C4(C3CC24)C51

>  <smiles>  (185) 
[H]C([H])([H])OC([H])([H])C1([H])C([H])([H])[N+]2([H])C1([H])C1([H])C([H])([H])C3([H])C4([H])C([H])([H])C5([H])C([H])([H])C4([H])C4(C3([H])C([H])([H])C42[H])C51[H]

$$$$
48:0:2
     RDKit          3D

 46 52  0  0  1  0  0  0  0  0999 V2000
   -6.0728   -3.5928   -4.1867 C   0  0  0  0  0  0  0  0  0  0  0  0
   -5.5287   -4.6583   -4.9510 O   0  0  0  0  0  0  0  0  0  0  0  0
   -6.4425   -5.7332   -5.1068 C   0  0  0  0  0  0  0  0  0  0  0  0
   -7.1693   -5.6192   -6.4489 C   0  0  2  0  0  0  0  0  0  0  0  0
   -7.8845   -4.2990   -6.8308 C   0  0  0  0  0  0  0  0  0  0  0  0
   -9.0270   -5.0851   -7.2866 N   0  0  2  0  0  0  0  0  0  0  0  0
   -8.5033   -6.3045   -6.6262 C   0  0  1  0  0  0  0  0  0  0  0  0
   -8.8025   -7.6682   -7.3546 C   0  0  2  0  0  0  0  0  0  0  0  0
   -7.8543   -8.2286   -8.4722 C   0  0  0  0  0  0  0  0  0  0  0  0
   -8.3704   -8.0172   -9.9409 C   0  0  1  0  0  0  0  0  0  0  0  0
   -9.8261   -8.5280  -10.3228 C   0  0  1  0  0  0  0  0  0  0  0  0
  -10.3564   -9.5534   -9.3214 C   0  0  0  0  0  0  0  0  0  0  0  0
  -11.0844   -8.6210   -8.3483 C   0  0  2  0  0  0  0  0  0  0  0  0
  -11.9975   -7.8560   -9.2975 C   0  0  0  0  0  0  0  0  0  0  0  0
  -10.8350   -7.2892  -10.1086 C   0  0  1  0  0  0  0  0  0  0  0  0
   -9.9631   -6.5431   -9.1314 C   0  0  1  0  0  0  0  0  0  0  0  0
   -8.7484   -6.6041  -10.0821 C   0  0  1  0  0  0  0  0  0  0  0  0
   -8.1819   -5.3118   -9.6085 C   0  0  0  0  0  0  0  0  0  0  0  0
   -9.4250   -5.1372   -8.7297 C   0  0  2  0  0  0  0  0  0  0  0  0
  -10.2010   -7.4381   -7.9189 C   0  0  2  0  0  0  0  0  0  0  0  0
   -5.3860   -2.7881   -4.0658 H   0  0  0  0  0  0  0  0  0  0  0  0
   -6.2985   -3.9420   -3.1697 H   0  0  0  0  0  0  0  0  0  0  0  0
   -6.9471   -3.1665   -4.6560 H   0  0  0  0  0  0  0  0  0  0  0  0
   -5.8719   -6.6560   -5.0943 H   0  0  0  0  0  0  0  0  0  0  0  0
   -7.1206   -5.7977   -4.2472 H   0  0  0  0  0  0  0  0  0  0  0  0
   -6.5834   -6.0247   -7.2705 H   0  0  0  0  0  0  0  0  0  0  0  0
   -8.2718   -3.7014   -6.0044 H   0  0  0  0  0  0  0  0  0  0  0  0
   -7.4081   -3.6799   -7.6011 H   0  0  0  0  0  0  0  0  0  0  0  0
   -8.9675   -6.2665   -5.6426 H   0  0  0  0  0  0  0  0  0  0  0  0
   -8.8102   -8.4743   -6.6375 H   0  0  0  0  0  0  0  0  0  0  0  0
   -6.8513   -7.8169   -8.3626 H   0  0  0  0  0  0  0  0  0  0  0  0
   -7.7118   -9.2940   -8.2912 H   0  0  0  0  0  0  0  0  0  0  0  0
   -7.6152   -8.3231  -10.6631 H   0  0  0  0  0  0  0  0  0  0  0  0
   -9.8570   -8.8931  -11.3488 H   0  0  0  0  0  0  0  0  0  0  0  0
  -11.0792  -10.2094   -9.8042 H   0  0  0  0  0  0  0  0  0  0  0  0
   -9.6035  -10.1867   -8.8571 H   0  0  0  0  0  0  0  0  0  0  0  0
  -11.6014   -9.1208   -7.5308 H   0  0  0  0  0  0  0  0  0  0  0  0
  -12.6727   -8.4793   -9.8891 H   0  0  0  0  0  0  0  0  0  0  0  0
  -12.5718   -7.0718   -8.7949 H   0  0  0  0  0  0  0  0  0  0  0  0
  -11.1065   -6.7204  -10.9981 H   0  0  0  0  0  0  0  0  0  0  0  0
   -8.9614   -6.3529  -11.1210 H   0  0  0  0  0  0  0  0  0  0  0  0
   -7.2531   -5.4878   -9.1212 H   0  0  0  0  0  0  0  0  0  0  0  0
   -8.1004   -4.5747  -10.4083 H   0  0  0  0  0  0  0  0  0  0  0  0
  -10.1530   -4.3560   -8.9165 H   0  0  0  0  0  0  0  0  0  0  0  0
  -10.8438   -6.8828   -7.2098 H   0  0  0  0  0  0  0  0  0  0  0  0
   -9.8523   -4.8030   -6.7786 H   0  0  0  0  0  0  0  0  0  0  0  0
  1  2  1  0
  1 21  1  0
  1 22  1  0
  1 23  1  0
  2  3  1  0
  3  4  1  0
  3 24  1  0
  3 25  1  0
  4  7  1  0
  4  5  1  0
  4 26  1  6
  5  6  1  0
  5 27  1  0
  5 28  1  0
  6 19  1  0
  6  7  1  0
  6 46  1  1
  7  8  1  0
  7 29  1  1
  8 20  1  0
  8  9  1  0
  8 30  1  1
  9 10  1  0
  9 31  1  0
  9 32  1  0
 10 17  1  0
 10 11  1  0
 10 33  1  6
 11 15  1  0
 11 12  1  0
 11 34  1  6
 12 13  1  0
 12 35  1  0
 12 36  1  0
 13 20  1  0
 13 14  1  0
 13 37  1  1
 14 15  1  0
 14 38  1  0
 14 39  1  0
 15 16  1  0
 15 40  1  6
 16 19  1  1
 16 17  1  0
 16 20  1  0
 17 18  1  0
 17 41  1  6
 18 19  1  0
 18 42  1  0
 18 43  1  0
 19 44  1  6
 20 45  1  1
M  CHG  1   6   1
M  END
>  <i_m_ct_stereo_status>  (186) 
1

>  <s_m_source_file>  (186) 
/var/tmp/pbs.5076255.sched01/tmpn9kf4o8v/46f5dlbpu8.sdf

>  <i_m_source_file_index>  (186) 
25

>  <i_lp_mmshare_version>  (186) 
48012

>  <i_f3d_flags>  (186) 
0

>  <s_epik_input>  (186) 
W0NIM11PW0NIMl1bQ0BIXShbQ0gyXTEpW0NASF0oW0NASF0oW0NIMl0yKVtDQEBIXTNbQ0BIXShbQ0gyXTQpW0NIMl01KU4xW0NASF02W0NIMl1bQ0BIXTdbQ0BASF0yW0NAQEhdNFtDQEBIXTVbQ0BdMzY3

>  <s_epik_cmdline>  (186) 
J2VwaWtfcHl0aG9uJywgJy1waHQnLCAnMi4wJywgJy1waCcsICc3LjAnLCAnLXRuJywgJzgnLCAnLW1hJywgJzIwMCcsICctaW1hZScsICc8aW5maWxlLm1hZT4nLCAnLW9tYWUnLCAnPG91dGZpbGUubWFlPic=

>  <r_epik_Ionization_Penalty>  (186) 
0.000823078

>  <r_epik_Ionization_Penalty_Charging>  (186) 
0.000823078

>  <r_epik_Ionization_Penalty_Neutral>  (186) 
6.21231e-12

>  <r_epik_State_Penalty>  (186) 
0.000529547

>  <r_epik_Charging_Adjusted_Penalty>  (186) 
0.00135263

>  <i_epik_Tot_Q>  (186) 
1

>  <i_epik_Tot_abs_Q>  (186) 
1

>  <s_lp_Force_Field>  (186) 
OPLS3e

>  <r_lp_Energy>  (186) 
171.536

>  <b_lp_Chiralities_Consistent>  (186) 
1

>  <s_lp_Variant>  (186) 
48:0-1

>  <s_i_glide_gridfile>  (186) 
pfpi4k_grid

>  <i_i_glide_lignum>  (186) 
25

>  <i_i_glide_rotatable_bonds>  (186) 
2

>  <r_i_docking_score>  (186) 
-3.81451

>  <r_i_glide_ligand_efficiency>  (186) 
-0.190725

>  <r_i_glide_ligand_efficiency_sa>  (186) 
-0.517708

>  <r_i_glide_ligand_efficiency_ln>  (186) 
-0.954646

>  <r_i_glide_gscore>  (186) 
-3.81451

>  <r_i_glide_lipo>  (186) 
-1.53611

>  <r_i_glide_hbond>  (186) 
0

>  <r_i_glide_metal>  (186) 
-0

>  <r_i_glide_rewards>  (186) 
-1.9799

>  <r_i_glide_evdw>  (186) 
-4.06663

>  <r_i_glide_ecoul>  (186) 
-0.634469

>  <r_i_glide_erotb>  (186) 
0

>  <r_i_glide_esite>  (186) 
0

>  <r_i_glide_emodel>  (186) 
-4.68938

>  <r_i_glide_energy>  (186) 
-4.7011

>  <r_i_glide_einternal>  (186) 
2.95285

>  <r_i_glide_intrahb_reward>  (186) 
-0

>  <i_i_glide_confnum>  (186) 
2

>  <i_i_glide_posenum>  (186) 
22

>  <r_i_glide_eff_state_penalty>  (186) 
0

>  <ligand_id>  (186) 
48

>  <original_smiles>  (186) 
COCC1CN2C1C1CC3C4CC5CC4C4(C3CC24)C51

>  <smiles>  (186) 
[H]C([H])([H])OC([H])([H])C1([H])C([H])([H])[N+]2([H])C1([H])C1([H])C([H])([H])C3([H])C4([H])C([H])([H])C5([H])C([H])([H])C4([H])C4(C3([H])C([H])([H])C42[H])C51[H]

$$$$
49:0:0
     RDKit          3D

 27 30  0  0  1  0  0  0  0  0999 V2000
    1.0343   -5.9798    0.7758 O   0  0  0  0  0  0  0  0  0  0  0  0
    1.4647   -6.9135    1.4594 C   0  0  0  0  0  0  0  0  0  0  0  0
    2.7530   -7.3247    1.5183 N   0  0  0  0  0  0  0  0  0  0  0  0
    3.8081   -6.6632    0.7325 C   0  0  0  0  0  0  0  0  0  0  0  0
    4.1275   -5.2504    1.1923 C   0  0  0  0  0  0  0  0  0  0  0  0
    4.0962   -4.9118    2.5679 C   0  0  0  0  0  0  0  0  0  0  0  0
    4.3958   -3.6010    2.9899 C   0  0  0  0  0  0  0  0  0  0  0  0
    4.7316   -2.6336    2.0274 C   0  0  0  0  0  0  0  0  0  0  0  0
    5.0396   -1.3738    2.3471 N   0  0  0  0  0  0  0  0  0  0  0  0
    5.3459   -0.6590    0.8547 S   0  0  0  0  0  0  0  0  0  0  0  0
    5.1071   -1.9730   -0.1693 N   0  0  0  0  0  0  0  0  0  0  0  0
    4.7659   -2.9593    0.6672 C   0  0  0  0  0  0  0  0  0  0  0  0
    4.4624   -4.2648    0.2353 C   0  0  0  0  0  0  0  0  0  0  0  0
    3.1112   -8.4185    2.3290 C   0  0  0  0  0  0  0  0  0  0  0  0
    2.2552   -9.0716    3.0615 N   0  0  0  0  0  0  0  0  0  0  0  0
    0.9418   -8.6724    3.0307 C   0  0  0  0  0  0  0  0  0  0  0  0
   -0.0888   -9.1877    3.6944 N   0  0  0  0  0  0  0  0  0  0  0  0
   -1.1221   -8.3967    3.2721 C   0  0  0  0  0  0  0  0  0  0  0  0
   -0.7982   -7.4130    2.4337 N   0  0  0  0  0  0  0  0  0  0  0  0
    0.5281   -7.6310    2.2760 N   0  0  0  0  0  0  0  0  0  0  0  0
    4.7388   -7.2357    0.7312 H   0  0  0  0  0  0  0  0  0  0  0  0
    3.4889   -6.6260   -0.3084 H   0  0  0  0  0  0  0  0  0  0  0  0
    3.8398   -5.6526    3.3126 H   0  0  0  0  0  0  0  0  0  0  0  0
    4.3724   -3.3489    4.0387 H   0  0  0  0  0  0  0  0  0  0  0  0
    4.4829   -4.5047   -0.8165 H   0  0  0  0  0  0  0  0  0  0  0  0
    4.1748   -8.6745    2.3038 H   0  0  0  0  0  0  0  0  0  0  0  0
   -2.1396   -8.5385    3.6157 H   0  0  0  0  0  0  0  0  0  0  0  0
  1  2  2  0
  2 20  1  0
  2  3  1  0
  3  4  1  0
  3 14  1  0
  4  5  1  0
  4 21  1  0
  4 22  1  0
  5 13  2  0
  5  6  1  0
  6  7  2  0
  6 23  1  0
  7  8  1  0
  7 24  1  0
  8 12  1  0
  8  9  2  0
  9 10  1  0
 10 11  1  0
 11 12  2  0
 12 13  1  0
 13 25  1  0
 14 15  2  0
 14 26  1  0
 15 16  1  0
 16 20  1  0
 16 17  2  0
 17 18  1  0
 18 19  2  0
 18 27  1  0
 19 20  1  0
M  END
>  <i_m_ct_stereo_status>  (187) 
1

>  <s_m_source_file>  (187) 
/var/tmp/pbs.5076255.sched01/tmpn9kf4o8v/46f5dlbpu8.sdf

>  <i_m_source_file_index>  (187) 
26

>  <i_lp_mmshare_version>  (187) 
48012

>  <i_f3d_flags>  (187) 
0

>  <s_epik_input>  (187) 
bjFbY0hdbm4oYzEyKWMoPU8pbihbY0hdbjIpW0NIMl1jKFtjSF1bY0hdMylbY0hdYyhjMzQpbnNuNA==

>  <s_epik_cmdline>  (187) 
J2VwaWtfcHl0aG9uJywgJy1waHQnLCAnMi4wJywgJy1waCcsICc3LjAnLCAnLXRuJywgJzgnLCAnLW1hJywgJzIwMCcsICctaW1hZScsICc8aW5maWxlLm1hZT4nLCAnLW9tYWUnLCAnPG91dGZpbGUubWFlPic=

>  <r_lp_tautomer_probability>  (187) 
1

>  <r_epik_Ionization_Penalty>  (187) 
7.4832e-09

>  <r_epik_Ionization_Penalty_Charging>  (187) 
2.52592e-14

>  <r_epik_Ionization_Penalty_Neutral>  (187) 
7.48317e-09

>  <r_epik_State_Penalty>  (187) 
-0

>  <r_epik_Charging_Adjusted_Penalty>  (187) 
2.52592e-14

>  <i_epik_Tot_Q>  (187) 
0

>  <i_epik_Tot_abs_Q>  (187) 
0

>  <s_lp_Force_Field>  (187) 
OPLS3e

>  <r_lp_Energy>  (187) 
35.0952

>  <b_lp_Chiralities_Consistent>  (187) 
1

>  <s_lp_Variant>  (187) 
49:0-1

>  <s_i_glide_gridfile>  (187) 
pfpi4k_grid

>  <i_i_glide_lignum>  (187) 
26

>  <i_i_glide_rotatable_bonds>  (187) 
2

>  <r_i_docking_score>  (187) 
-3.87382

>  <r_i_glide_ligand_efficiency>  (187) 
-0.193691

>  <r_i_glide_ligand_efficiency_sa>  (187) 
-0.525759

>  <r_i_glide_ligand_efficiency_ln>  (187) 
-0.96949

>  <r_i_glide_gscore>  (187) 
-3.87382

>  <r_i_glide_lipo>  (187) 
-0.349137

>  <r_i_glide_hbond>  (187) 
-0.203735

>  <r_i_glide_metal>  (187) 
-0

>  <r_i_glide_rewards>  (187) 
-1.48937

>  <r_i_glide_evdw>  (187) 
-25.4569

>  <r_i_glide_ecoul>  (187) 
-5.48588

>  <r_i_glide_erotb>  (187) 
0.445793

>  <r_i_glide_esite>  (187) 
-0.181645

>  <r_i_glide_emodel>  (187) 
-39.0288

>  <r_i_glide_energy>  (187) 
-30.9428

>  <r_i_glide_einternal>  (187) 
0.0619498

>  <r_i_glide_intrahb_reward>  (187) 
-0

>  <i_i_glide_confnum>  (187) 
1

>  <i_i_glide_posenum>  (187) 
21

>  <r_i_glide_eff_state_penalty>  (187) 
0

>  <ligand_id>  (187) 
49

>  <original_smiles>  (187) 
O=c1n(Cc2ccc3nsnc3c2)cnc2ncnn12

>  <smiles>  (187) 
[H]c1nc2nc([H])n(C([H])([H])c3c([H])c([H])c4nsnc4c3[H])c(=O)n2n1

$$$$
49:0:1
     RDKit          3D

 27 30  0  0  1  0  0  0  0  0999 V2000
    0.8191   -6.2574    0.5476 O   0  0  0  0  0  0  0  0  0  0  0  0
    1.2642   -6.7222    1.6003 C   0  0  0  0  0  0  0  0  0  0  0  0
    2.5680   -6.8017    1.9452 N   0  0  0  0  0  0  0  0  0  0  0  0
    3.6304   -6.3197    1.0506 C   0  0  0  0  0  0  0  0  0  0  0  0
    3.6787   -4.8106    0.8643 C   0  0  0  0  0  0  0  0  0  0  0  0
    4.2489   -4.2881   -0.3211 C   0  0  0  0  0  0  0  0  0  0  0  0
    4.3140   -2.8943   -0.5330 C   0  0  0  0  0  0  0  0  0  0  0  0
    3.8077   -2.0292    0.4533 C   0  0  0  0  0  0  0  0  0  0  0  0
    3.8506   -0.6988    0.3464 N   0  0  0  0  0  0  0  0  0  0  0  0
    3.0929   -0.1655    1.7542 S   0  0  0  0  0  0  0  0  0  0  0  0
    2.7712   -1.6440    2.4974 N   0  0  0  0  0  0  0  0  0  0  0  0
    3.2335   -2.5387    1.6204 C   0  0  0  0  0  0  0  0  0  0  0  0
    3.1685   -3.9237    1.8422 C   0  0  0  0  0  0  0  0  0  0  0  0
    2.9413   -7.3172    3.1999 C   0  0  0  0  0  0  0  0  0  0  0  0
    2.0800   -7.7349    4.0823 N   0  0  0  0  0  0  0  0  0  0  0  0
    0.7462   -7.6757    3.7627 C   0  0  0  0  0  0  0  0  0  0  0  0
   -0.2972   -8.0350    4.5077 N   0  0  0  0  0  0  0  0  0  0  0  0
   -1.3433   -7.7614    3.6696 C   0  0  0  0  0  0  0  0  0  0  0  0
   -1.0268   -7.1915    2.5086 N   0  0  0  0  0  0  0  0  0  0  0  0
    0.3215   -7.1897    2.5756 N   0  0  0  0  0  0  0  0  0  0  0  0
    4.6193   -6.6596    1.3645 H   0  0  0  0  0  0  0  0  0  0  0  0
    3.4675   -6.7729    0.0769 H   0  0  0  0  0  0  0  0  0  0  0  0
    4.6282   -4.9588   -1.0803 H   0  0  0  0  0  0  0  0  0  0  0  0
    4.7456   -2.4990   -1.4394 H   0  0  0  0  0  0  0  0  0  0  0  0
    2.7293   -4.2849    2.7577 H   0  0  0  0  0  0  0  0  0  0  0  0
    4.0190   -7.3225    3.3850 H   0  0  0  0  0  0  0  0  0  0  0  0
   -2.3744   -7.9449    3.9451 H   0  0  0  0  0  0  0  0  0  0  0  0
  1  2  2  0
  2 20  1  0
  2  3  1  0
  3  4  1  0
  3 14  1  0
  4  5  1  0
  4 21  1  0
  4 22  1  0
  5 13  2  0
  5  6  1  0
  6  7  2  0
  6 23  1  0
  7  8  1  0
  7 24  1  0
  8 12  1  0
  8  9  2  0
  9 10  1  0
 10 11  1  0
 11 12  2  0
 12 13  1  0
 13 25  1  0
 14 15  2  0
 14 26  1  0
 15 16  1  0
 16 20  1  0
 16 17  2  0
 17 18  1  0
 18 19  2  0
 18 27  1  0
 19 20  1  0
M  END
>  <i_m_ct_stereo_status>  (188) 
1

>  <s_m_source_file>  (188) 
/var/tmp/pbs.5076255.sched01/tmpn9kf4o8v/46f5dlbpu8.sdf

>  <i_m_source_file_index>  (188) 
26

>  <i_lp_mmshare_version>  (188) 
48012

>  <i_f3d_flags>  (188) 
0

>  <s_epik_input>  (188) 
bjFbY0hdbm4oYzEyKWMoPU8pbihbY0hdbjIpW0NIMl1jKFtjSF1bY0hdMylbY0hdYyhjMzQpbnNuNA==

>  <s_epik_cmdline>  (188) 
J2VwaWtfcHl0aG9uJywgJy1waHQnLCAnMi4wJywgJy1waCcsICc3LjAnLCAnLXRuJywgJzgnLCAnLW1hJywgJzIwMCcsICctaW1hZScsICc8aW5maWxlLm1hZT4nLCAnLW9tYWUnLCAnPG91dGZpbGUubWFlPic=

>  <r_lp_tautomer_probability>  (188) 
1

>  <r_epik_Ionization_Penalty>  (188) 
7.4832e-09

>  <r_epik_Ionization_Penalty_Charging>  (188) 
2.52592e-14

>  <r_epik_Ionization_Penalty_Neutral>  (188) 
7.48317e-09

>  <r_epik_State_Penalty>  (188) 
-0

>  <r_epik_Charging_Adjusted_Penalty>  (188) 
2.52592e-14

>  <i_epik_Tot_Q>  (188) 
0

>  <i_epik_Tot_abs_Q>  (188) 
0

>  <s_lp_Force_Field>  (188) 
OPLS3e

>  <r_lp_Energy>  (188) 
35.0952

>  <b_lp_Chiralities_Consistent>  (188) 
1

>  <s_lp_Variant>  (188) 
49:0-1

>  <s_i_glide_gridfile>  (188) 
pfpi4k_grid

>  <i_i_glide_lignum>  (188) 
26

>  <i_i_glide_rotatable_bonds>  (188) 
2

>  <r_i_docking_score>  (188) 
-3.67715

>  <r_i_glide_ligand_efficiency>  (188) 
-0.183857

>  <r_i_glide_ligand_efficiency_sa>  (188) 
-0.499066

>  <r_i_glide_ligand_efficiency_ln>  (188) 
-0.920269

>  <r_i_glide_gscore>  (188) 
-3.67715

>  <r_i_glide_lipo>  (188) 
-0.0573199

>  <r_i_glide_hbond>  (188) 
-0.339945

>  <r_i_glide_metal>  (188) 
-0

>  <r_i_glide_rewards>  (188) 
-1.46396

>  <r_i_glide_evdw>  (188) 
-25.7851

>  <r_i_glide_ecoul>  (188) 
-5.04793

>  <r_i_glide_erotb>  (188) 
0.445793

>  <r_i_glide_esite>  (188) 
-0.215269

>  <r_i_glide_emodel>  (188) 
-38.3911

>  <r_i_glide_energy>  (188) 
-30.833

>  <r_i_glide_einternal>  (188) 
0.24233

>  <r_i_glide_intrahb_reward>  (188) 
-0

>  <i_i_glide_confnum>  (188) 
3

>  <i_i_glide_posenum>  (188) 
39

>  <r_i_glide_eff_state_penalty>  (188) 
0

>  <ligand_id>  (188) 
49

>  <original_smiles>  (188) 
O=c1n(Cc2ccc3nsnc3c2)cnc2ncnn12

>  <smiles>  (188) 
[H]c1nc2nc([H])n(C([H])([H])c3c([H])c([H])c4nsnc4c3[H])c(=O)n2n1

$$$$
49:0:2
     RDKit          3D

 27 30  0  0  1  0  0  0  0  0999 V2000
    1.1806   -5.9054    1.7292 O   0  0  0  0  0  0  0  0  0  0  0  0
    2.4039   -6.0881    1.7440 C   0  0  0  0  0  0  0  0  0  0  0  0
    3.3368   -5.1151    1.7905 N   0  0  0  0  0  0  0  0  0  0  0  0
    2.9673   -3.6953    1.8619 C   0  0  0  0  0  0  0  0  0  0  0  0
    3.3864   -2.9012    0.6415 C   0  0  0  0  0  0  0  0  0  0  0  0
    4.1491   -1.7269    0.8236 C   0  0  0  0  0  0  0  0  0  0  0  0
    4.5494   -0.9621   -0.2870 C   0  0  0  0  0  0  0  0  0  0  0  0
    4.1723   -1.3760   -1.5770 C   0  0  0  0  0  0  0  0  0  0  0  0
    4.5061   -0.6969   -2.6776 N   0  0  0  0  0  0  0  0  0  0  0  0
    3.7955   -1.5865   -3.9168 S   0  0  0  0  0  0  0  0  0  0  0  0
    3.1083   -2.8419   -3.0305 N   0  0  0  0  0  0  0  0  0  0  0  0
    3.4162   -2.5373   -1.7649 C   0  0  0  0  0  0  0  0  0  0  0  0
    3.0174   -3.3152   -0.6612 C   0  0  0  0  0  0  0  0  0  0  0  0
    4.7079   -5.4391    1.7737 C   0  0  0  0  0  0  0  0  0  0  0  0
    5.1526   -6.6622    1.7221 N   0  0  0  0  0  0  0  0  0  0  0  0
    4.2313   -7.6779    1.6917 C   0  0  0  0  0  0  0  0  0  0  0  0
    4.4585   -8.9896    1.6450 N   0  0  0  0  0  0  0  0  0  0  0  0
    3.1828   -9.4870    1.6526 C   0  0  0  0  0  0  0  0  0  0  0  0
    2.2040   -8.5886    1.6829 N   0  0  0  0  0  0  0  0  0  0  0  0
    2.9012   -7.4361    1.7061 N   0  0  0  0  0  0  0  0  0  0  0  0
    1.8909   -3.5582    1.9650 H   0  0  0  0  0  0  0  0  0  0  0  0
    3.3908   -3.2616    2.7715 H   0  0  0  0  0  0  0  0  0  0  0  0
    4.4273   -1.4063    1.8182 H   0  0  0  0  0  0  0  0  0  0  0  0
    5.1220   -0.0623   -0.1409 H   0  0  0  0  0  0  0  0  0  0  0  0
    2.4304   -4.2045   -0.8230 H   0  0  0  0  0  0  0  0  0  0  0  0
    5.3748   -4.5735    1.8036 H   0  0  0  0  0  0  0  0  0  0  0  0
    2.9702  -10.5493    1.6258 H   0  0  0  0  0  0  0  0  0  0  0  0
  1  2  2  0
  2 20  1  0
  2  3  1  0
  3  4  1  0
  3 14  1  0
  4  5  1  0
  4 21  1  0
  4 22  1  0
  5 13  2  0
  5  6  1  0
  6  7  2  0
  6 23  1  0
  7  8  1  0
  7 24  1  0
  8 12  1  0
  8  9  2  0
  9 10  1  0
 10 11  1  0
 11 12  2  0
 12 13  1  0
 13 25  1  0
 14 15  2  0
 14 26  1  0
 15 16  1  0
 16 20  1  0
 16 17  2  0
 17 18  1  0
 18 19  2  0
 18 27  1  0
 19 20  1  0
M  END
>  <i_m_ct_stereo_status>  (189) 
1

>  <s_m_source_file>  (189) 
/var/tmp/pbs.5076255.sched01/tmpn9kf4o8v/46f5dlbpu8.sdf

>  <i_m_source_file_index>  (189) 
26

>  <i_lp_mmshare_version>  (189) 
48012

>  <i_f3d_flags>  (189) 
0

>  <s_epik_input>  (189) 
bjFbY0hdbm4oYzEyKWMoPU8pbihbY0hdbjIpW0NIMl1jKFtjSF1bY0hdMylbY0hdYyhjMzQpbnNuNA==

>  <s_epik_cmdline>  (189) 
J2VwaWtfcHl0aG9uJywgJy1waHQnLCAnMi4wJywgJy1waCcsICc3LjAnLCAnLXRuJywgJzgnLCAnLW1hJywgJzIwMCcsICctaW1hZScsICc8aW5maWxlLm1hZT4nLCAnLW9tYWUnLCAnPG91dGZpbGUubWFlPic=

>  <r_lp_tautomer_probability>  (189) 
1

>  <r_epik_Ionization_Penalty>  (189) 
7.4832e-09

>  <r_epik_Ionization_Penalty_Charging>  (189) 
2.52592e-14

>  <r_epik_Ionization_Penalty_Neutral>  (189) 
7.48317e-09

>  <r_epik_State_Penalty>  (189) 
-0

>  <r_epik_Charging_Adjusted_Penalty>  (189) 
2.52592e-14

>  <i_epik_Tot_Q>  (189) 
0

>  <i_epik_Tot_abs_Q>  (189) 
0

>  <s_lp_Force_Field>  (189) 
OPLS3e

>  <r_lp_Energy>  (189) 
35.0952

>  <b_lp_Chiralities_Consistent>  (189) 
1

>  <s_lp_Variant>  (189) 
49:0-1

>  <s_i_glide_gridfile>  (189) 
pfpi4k_grid

>  <i_i_glide_lignum>  (189) 
26

>  <i_i_glide_rotatable_bonds>  (189) 
2

>  <r_i_docking_score>  (189) 
-3.30268

>  <r_i_glide_ligand_efficiency>  (189) 
-0.165134

>  <r_i_glide_ligand_efficiency_sa>  (189) 
-0.448242

>  <r_i_glide_ligand_efficiency_ln>  (189) 
-0.826551

>  <r_i_glide_gscore>  (189) 
-3.30268

>  <r_i_glide_lipo>  (189) 
-0.125007

>  <r_i_glide_hbond>  (189) 
-0.12979

>  <r_i_glide_metal>  (189) 
-0

>  <r_i_glide_rewards>  (189) 
-1.57227

>  <r_i_glide_evdw>  (189) 
-30.08

>  <r_i_glide_ecoul>  (189) 
-2.2998

>  <r_i_glide_erotb>  (189) 
0.445793

>  <r_i_glide_esite>  (189) 
-0.0724317

>  <r_i_glide_emodel>  (189) 
-38.651

>  <r_i_glide_energy>  (189) 
-32.3798

>  <r_i_glide_einternal>  (189) 
1.23363

>  <r_i_glide_intrahb_reward>  (189) 
-0

>  <i_i_glide_confnum>  (189) 
2

>  <i_i_glide_posenum>  (189) 
18

>  <r_i_glide_eff_state_penalty>  (189) 
0

>  <ligand_id>  (189) 
49

>  <original_smiles>  (189) 
O=c1n(Cc2ccc3nsnc3c2)cnc2ncnn12

>  <smiles>  (189) 
[H]c1nc2nc([H])n(C([H])([H])c3c([H])c([H])c4nsnc4c3[H])c(=O)n2n1

$$$$
50:0:0
     RDKit          3D

 80 85  0  0  1  0  0  0  0  0999 V2000
    8.5790   -5.9038    5.5788 C   0  0  0  0  0  0  0  0  0  0  0  0
    8.6991   -7.3907    5.2039 C   0  0  2  0  0  0  0  0  0  0  0  0
    9.0712   -7.5831    3.7307 C   0  0  0  0  0  0  0  0  0  0  0  0
    7.7274   -7.5409    3.0029 C   0  0  1  0  0  0  0  0  0  0  0  0
    7.7460   -7.9423    1.6549 O   0  0  0  0  0  0  0  0  0  0  0  0
    6.7029   -8.2165    3.9617 C   0  0  2  0  0  0  0  0  0  0  0  0
    7.3477   -8.1244    5.3625 C   0  0  1  0  0  0  0  0  0  0  0  0
    7.5332   -9.4903    6.0248 C   0  0  0  0  0  0  0  0  0  0  0  0
    6.2120  -10.2820    6.1173 C   0  0  0  0  0  0  0  0  0  0  0  0
    5.2107  -10.1853    4.8971 C   0  0  1  0  0  0  0  0  0  0  0  0
    4.8324  -11.6832    4.5834 C   0  0  0  0  0  0  0  0  0  0  0  0
    3.8282   -9.4459    5.3147 C   0  0  1  0  0  0  0  0  0  0  0  0
    3.0950  -10.3067    6.3983 C   0  0  0  0  0  0  0  0  0  0  0  0
    3.9957   -8.0411    5.9618 C   0  0  0  0  0  0  0  0  0  0  0  0
    2.7000   -7.3138    6.3700 C   0  0  0  0  0  0  0  0  0  0  0  0
    1.6774   -7.1580    5.2214 C   0  0  2  0  0  0  0  0  0  0  0  0
    2.1011   -5.9254    4.3778 C   0  0  0  0  0  0  0  0  0  0  0  0
    0.3074   -6.8166    5.8481 C   0  0  0  0  0  0  0  0  0  0  0  0
   -0.7783   -6.6933    4.7798 C   0  0  0  0  0  0  0  0  0  0  0  0
   -0.9793   -8.0227    4.0484 C   0  0  1  0  0  0  0  0  0  0  0  0
   -2.1466   -7.8605    3.0732 C   0  0  0  0  0  0  0  0  0  0  0  0
    0.3328   -8.5758    3.3993 C   0  0  1  0  0  0  0  0  0  0  0  0
    0.0785  -10.0190    2.9147 C   0  0  0  0  0  0  0  0  0  0  0  0
    0.6241   -7.8231    2.2407 O   0  0  0  0  0  0  0  0  0  0  0  0
    1.5061   -8.5186    4.4501 C   0  0  1  0  0  0  0  0  0  0  0  0
    2.8392   -9.2840    4.1018 C   0  0  1  0  0  0  0  0  0  0  0  0
    3.4974   -8.9654    2.7468 C   0  0  1  0  0  0  0  0  0  0  0  0
    3.9370   -7.6030    2.2525 C   0  0  0  0  0  0  0  0  0  0  0  0
    5.1405   -8.1760    1.6888 O   0  0  0  0  0  0  0  0  0  0  0  0
    4.9253   -9.3953    2.4666 C   0  0  1  0  0  0  0  0  0  0  0  0
    5.9656   -9.5845    3.6019 C   0  0  1  0  0  0  0  0  0  0  0  0
    7.0052  -10.6361    3.1096 C   0  0  0  0  0  0  0  0  0  0  0  0
    7.8403   -5.3861    4.9592 H   0  0  0  0  0  0  0  0  0  0  0  0
    9.5418   -5.4088    5.4469 H   0  0  0  0  0  0  0  0  0  0  0  0
    8.2775   -5.7822    6.6222 H   0  0  0  0  0  0  0  0  0  0  0  0
    9.4725   -7.8182    5.8515 H   0  0  0  0  0  0  0  0  0  0  0  0
    9.7868   -6.8375    3.3732 H   0  0  0  0  0  0  0  0  0  0  0  0
    9.5397   -8.5624    3.6047 H   0  0  0  0  0  0  0  0  0  0  0  0
    7.4667   -6.4883    2.9337 H   0  0  0  0  0  0  0  0  0  0  0  0
    6.8336   -7.9214    1.3559 H   0  0  0  0  0  0  0  0  0  0  0  0
    5.9447   -7.4571    3.9760 H   0  0  0  0  0  0  0  0  0  0  0  0
    6.7112   -7.5231    6.0199 H   0  0  0  0  0  0  0  0  0  0  0  0
    8.3345  -10.0433    5.5275 H   0  0  0  0  0  0  0  0  0  0  0  0
    7.8919   -9.3434    7.0413 H   0  0  0  0  0  0  0  0  0  0  0  0
    6.4602  -11.3291    6.3232 H   0  0  0  0  0  0  0  0  0  0  0  0
    5.7258   -9.9411    7.0342 H   0  0  0  0  0  0  0  0  0  0  0  0
    4.1444  -11.7731    3.7385 H   0  0  0  0  0  0  0  0  0  0  0  0
    4.3942  -12.1920    5.4461 H   0  0  0  0  0  0  0  0  0  0  0  0
    5.6974  -12.3147    4.3801 H   0  0  0  0  0  0  0  0  0  0  0  0
    2.2602   -9.8259    6.8887 H   0  0  0  0  0  0  0  0  0  0  0  0
    3.7542  -10.6350    7.1997 H   0  0  0  0  0  0  0  0  0  0  0  0
    2.6355  -11.1993    5.9741 H   0  0  0  0  0  0  0  0  0  0  0  0
    4.6387   -8.0889    6.8381 H   0  0  0  0  0  0  0  0  0  0  0  0
    4.4830   -7.3622    5.2844 H   0  0  0  0  0  0  0  0  0  0  0  0
    2.2298   -7.7827    7.2321 H   0  0  0  0  0  0  0  0  0  0  0  0
    2.9717   -6.3225    6.7343 H   0  0  0  0  0  0  0  0  0  0  0  0
    1.8084   -5.9947    3.3348 H   0  0  0  0  0  0  0  0  0  0  0  0
    3.1661   -5.7313    4.4279 H   0  0  0  0  0  0  0  0  0  0  0  0
    1.6445   -5.0143    4.7597 H   0  0  0  0  0  0  0  0  0  0  0  0
    0.0211   -7.5894    6.5688 H   0  0  0  0  0  0  0  0  0  0  0  0
    0.3773   -5.8910    6.4212 H   0  0  0  0  0  0  0  0  0  0  0  0
   -1.7176   -6.4162    5.2668 H   0  0  0  0  0  0  0  0  0  0  0  0
   -0.5480   -5.8870    4.0763 H   0  0  0  0  0  0  0  0  0  0  0  0
   -1.3041   -8.7515    4.7951 H   0  0  0  0  0  0  0  0  0  0  0  0
   -1.9000   -7.1607    2.2683 H   0  0  0  0  0  0  0  0  0  0  0  0
   -3.0020   -7.4722    3.6187 H   0  0  0  0  0  0  0  0  0  0  0  0
   -2.4484   -8.7898    2.6209 H   0  0  0  0  0  0  0  0  0  0  0  0
   -0.1763  -10.6723    3.7450 H   0  0  0  0  0  0  0  0  0  0  0  0
    0.9342  -10.4569    2.4063 H   0  0  0  0  0  0  0  0  0  0  0  0
   -0.7422  -10.0925    2.2077 H   0  0  0  0  0  0  0  0  0  0  0  0
    0.4796   -8.3981    1.4852 H   0  0  0  0  0  0  0  0  0  0  0  0
    1.0793   -9.1647    5.2172 H   0  0  0  0  0  0  0  0  0  0  0  0
    2.4866  -10.2994    3.9517 H   0  0  0  0  0  0  0  0  0  0  0  0
    2.8966   -9.3842    1.9322 H   0  0  0  0  0  0  0  0  0  0  0  0
    3.2919   -7.2202    1.4700 H   0  0  0  0  0  0  0  0  0  0  0  0
    4.1614   -6.8743    3.0220 H   0  0  0  0  0  0  0  0  0  0  0  0
    4.8603  -10.2864    1.8363 H   0  0  0  0  0  0  0  0  0  0  0  0
    6.5220  -11.4145    2.5289 H   0  0  0  0  0  0  0  0  0  0  0  0
    7.5316  -11.1538    3.9066 H   0  0  0  0  0  0  0  0  0  0  0  0
    7.7855  -10.2358    2.4890 H   0  0  0  0  0  0  0  0  0  0  0  0
  1  2  1  0
  1 33  1  0
  1 34  1  0
  1 35  1  0
  2  7  1  0
  2  3  1  0
  2 36  1  1
  3  4  1  0
  3 37  1  0
  3 38  1  0
  4  5  1  0
  4  6  1  0
  4 39  1  6
  5 40  1  0
  6 31  1  0
  6  7  1  0
  6 41  1  1
  7  8  1  0
  7 42  1  1
  8  9  1  0
  8 43  1  0
  8 44  1  0
  9 10  1  0
  9 45  1  0
  9 46  1  0
 10 31  1  0
 10 11  1  6
 10 12  1  0
 11 47  1  0
 11 48  1  0
 11 49  1  0
 12 26  1  0
 12 13  1  1
 12 14  1  0
 13 50  1  0
 13 51  1  0
 13 52  1  0
 14 15  1  0
 14 53  1  0
 14 54  1  0
 15 16  1  0
 15 55  1  0
 15 56  1  0
 16 25  1  0
 16 17  1  6
 16 18  1  0
 17 57  1  0
 17 58  1  0
 17 59  1  0
 18 19  1  0
 18 60  1  0
 18 61  1  0
 19 20  1  0
 19 62  1  0
 19 63  1  0
 20 21  1  0
 20 22  1  0
 20 64  1  1
 21 65  1  0
 21 66  1  0
 21 67  1  0
 22 23  1  0
 22 24  1  6
 22 25  1  0
 23 68  1  0
 23 69  1  0
 23 70  1  0
 24 71  1  0
 25 26  1  0
 25 72  1  1
 26 27  1  0
 26 73  1  6
 27 30  1  0
 27 28  1  0
 27 74  1  6
 28 29  1  0
 28 75  1  0
 28 76  1  0
 29 30  1  0
 30 31  1  0
 30 77  1  6
 31 32  1  6
 32 78  1  0
 32 79  1  0
 32 80  1  0
M  END
>  <i_m_ct_stereo_status>  (190) 
1

>  <s_m_source_file>  (190) 
/var/tmp/pbs.5076255.sched01/tmpn9kf4o8v/46f5dlbpu8.sdf

>  <i_m_source_file_index>  (190) 
27

>  <i_lp_mmshare_version>  (190) 
48012

>  <i_f3d_flags>  (190) 
0

>  <s_epik_input>  (190) 
W09IXVtDQEBIXTFbQ0gyXVtDQEBIXShbQ0gzXSlbQ0BIXShbQ0gyXVtDSDJdMilbQ0BASF0xW0NAXTMoW0NIM10pW0NASF0oT1tDSDJdNClbQ0BIXTRbQ0BASF0oW0NAQF01KFtDSDNdKVtDQF0yM1tDSDNdKVtDQEhdNltDQF0oW0NIM10pKFtDSDJdW0NIMl01KVtDSDJdW0NIMl1bQ0BASF0oW0NIM10pW0NAQF02KFtDSDNdKVtPSF0=

>  <s_epik_cmdline>  (190) 
J2VwaWtfcHl0aG9uJywgJy1waHQnLCAnMi4wJywgJy1waCcsICc3LjAnLCAnLXRuJywgJzgnLCAnLW1hJywgJzIwMCcsICctaW1hZScsICc8aW5maWxlLm1hZT4nLCAnLW9tYWUnLCAnPG91dGZpbGUubWFlPic=

>  <r_lp_tautomer_probability>  (190) 
1

>  <r_epik_Ionization_Penalty>  (190) 
3.90815e-06

>  <r_epik_Ionization_Penalty_Charging>  (190) 
0

>  <r_epik_Ionization_Penalty_Neutral>  (190) 
3.90815e-06

>  <r_epik_State_Penalty>  (190) 
-0

>  <r_epik_Charging_Adjusted_Penalty>  (190) 
0

>  <i_epik_Tot_Q>  (190) 
0

>  <i_epik_Tot_abs_Q>  (190) 
0

>  <s_lp_Force_Field>  (190) 
OPLS3e

>  <r_lp_Energy>  (190) 
121.628

>  <b_lp_Chiralities_Consistent>  (190) 
1

>  <s_lp_Variant>  (190) 
50:0-1

>  <s_i_glide_gridfile>  (190) 
pfpi4k_grid

>  <i_i_glide_lignum>  (190) 
27

>  <i_i_glide_rotatable_bonds>  (190) 
2

>  <r_i_docking_score>  (190) 
-2.71043

>  <r_i_glide_ligand_efficiency>  (190) 
-0.0847009

>  <r_i_glide_ligand_efficiency_sa>  (190) 
-0.268909

>  <r_i_glide_ligand_efficiency_ln>  (190) 
-0.606939

>  <r_i_glide_gscore>  (190) 
-2.71043

>  <r_i_glide_lipo>  (190) 
-0.0293368

>  <r_i_glide_hbond>  (190) 
-0.0842758

>  <r_i_glide_metal>  (190) 
-0

>  <r_i_glide_rewards>  (190) 
-0.877116

>  <r_i_glide_evdw>  (190) 
-26.8328

>  <r_i_glide_ecoul>  (190) 
-2.52041

>  <r_i_glide_erotb>  (190) 
0

>  <r_i_glide_esite>  (190) 
0

>  <r_i_glide_emodel>  (190) 
-38.9718

>  <r_i_glide_energy>  (190) 
-29.3532

>  <r_i_glide_einternal>  (190) 
1.57077

>  <r_i_glide_intrahb_reward>  (190) 
-0.5

>  <i_i_glide_confnum>  (190) 
2

>  <i_i_glide_posenum>  (190) 
7

>  <r_i_glide_eff_state_penalty>  (190) 
0

>  <ligand_id>  (190) 
50

>  <original_smiles>  (190) 
CC1CC(O)C2C1CCC1(C)C3(C)CCC4(C)CCC(C)C(C)(O)C4C3C3COC3C21C

>  <smiles>  (190) 
[H]OC1([H])C([H])([H])C([H])(C([H])([H])[H])C2([H])C([H])([H])C([H])([H])C3(C([H])([H])[H])C4(C([H])([H])[H])C([H])([H])C([H])([H])C5(C([H])([H])[H])C([H])([H])C([H])([H])C([H])(C([H])([H])[H])C(O[H])(C([H])([H])[H])C5([H])C4([H])C4([H])C([H])([H])OC4([H])C3(C([H])([H])[H])C12[H]

$$$$
50:0:1
     RDKit          3D

 80 85  0  0  1  0  0  0  0  0999 V2000
    2.6318   -0.6504    2.3103 C   0  0  0  0  0  0  0  0  0  0  0  0
    3.8136   -1.2574    1.5112 C   0  0  2  0  0  0  0  0  0  0  0  0
    3.4794   -1.4801    0.0364 C   0  0  0  0  0  0  0  0  0  0  0  0
    2.8214   -2.8679    0.0182 C   0  0  1  0  0  0  0  0  0  0  0  0
    2.7129   -3.3903   -1.2894 O   0  0  0  0  0  0  0  0  0  0  0  0
    3.5078   -3.7031    1.1246 C   0  0  2  0  0  0  0  0  0  0  0  0
    4.1832   -2.6617    2.0268 C   0  0  1  0  0  0  0  0  0  0  0  0
    5.6815   -2.8387    2.0486 C   0  0  0  0  0  0  0  0  0  0  0  0
    6.0734   -4.2665    2.4617 C   0  0  0  0  0  0  0  0  0  0  0  0
    5.2339   -5.4891    1.9912 C   0  0  1  0  0  0  0  0  0  0  0  0
    6.3112   -6.5013    1.4390 C   0  0  0  0  0  0  0  0  0  0  0  0
    4.4910   -6.2382    3.2251 C   0  0  1  0  0  0  0  0  0  0  0  0
    5.5687   -6.8550    4.1830 C   0  0  0  0  0  0  0  0  0  0  0  0
    3.6047   -5.3158    4.1073 C   0  0  0  0  0  0  0  0  0  0  0  0
    2.8623   -6.0069    5.2705 C   0  0  0  0  0  0  0  0  0  0  0  0
    1.9698   -7.1908    4.8376 C   0  0  2  0  0  0  0  0  0  0  0  0
    0.6241   -6.6108    4.3246 C   0  0  0  0  0  0  0  0  0  0  0  0
    1.6353   -8.0099    6.1000 C   0  0  0  0  0  0  0  0  0  0  0  0
    0.8169   -9.2678    5.7677 C   0  0  0  0  0  0  0  0  0  0  0  0
    1.5828  -10.2030    4.8221 C   0  0  1  0  0  0  0  0  0  0  0  0
    0.7473  -11.4559    4.5709 C   0  0  0  0  0  0  0  0  0  0  0  0
    2.0859   -9.5111    3.5252 C   0  0  1  0  0  0  0  0  0  0  0  0
    3.0490  -10.4598    2.7961 C   0  0  0  0  0  0  0  0  0  0  0  0
    0.9915   -9.3045    2.6584 O   0  0  0  0  0  0  0  0  0  0  0  0
    2.7689   -8.1359    3.8677 C   0  0  1  0  0  0  0  0  0  0  0  0
    3.5943   -7.4164    2.7472 C   0  0  1  0  0  0  0  0  0  0  0  0
    2.8563   -7.1400    1.4365 C   0  0  1  0  0  0  0  0  0  0  0  0
    1.5550   -6.3972    1.2222 C   0  0  0  0  0  0  0  0  0  0  0  0
    2.0611   -5.7213    0.0969 O   0  0  0  0  0  0  0  0  0  0  0  0
    3.3957   -6.1521    0.4271 C   0  0  1  0  0  0  0  0  0  0  0  0
    4.3264   -5.0081    0.7852 C   0  0  1  0  0  0  0  0  0  0  0  0
    5.2591   -4.6962   -0.4442 C   0  0  0  0  0  0  0  0  0  0  0  0
    1.7487   -1.2902    2.2916 H   0  0  0  0  0  0  0  0  0  0  0  0
    2.3492    0.3273    1.9119 H   0  0  0  0  0  0  0  0  0  0  0  0
    2.9179   -0.5101    3.3563 H   0  0  0  0  0  0  0  0  0  0  0  0
    4.6479   -0.5544    1.5904 H   0  0  0  0  0  0  0  0  0  0  0  0
    2.8278   -0.6893   -0.3315 H   0  0  0  0  0  0  0  0  0  0  0  0
    4.3906   -1.4719   -0.5630 H   0  0  0  0  0  0  0  0  0  0  0  0
    1.8129   -2.7140    0.3351 H   0  0  0  0  0  0  0  0  0  0  0  0
    2.6659   -4.3417   -1.2567 H   0  0  0  0  0  0  0  0  0  0  0  0
    2.6566   -4.0121    1.6937 H   0  0  0  0  0  0  0  0  0  0  0  0
    3.8211   -2.7559    3.0544 H   0  0  0  0  0  0  0  0  0  0  0  0
    6.1183   -2.5417    1.1001 H   0  0  0  0  0  0  0  0  0  0  0  0
    6.1173   -2.1567    2.7808 H   0  0  0  0  0  0  0  0  0  0  0  0
    7.1251   -4.4143    2.2016 H   0  0  0  0  0  0  0  0  0  0  0  0
    6.0216   -4.2510    3.5520 H   0  0  0  0  0  0  0  0  0  0  0  0
    5.8820   -7.4150    1.0313 H   0  0  0  0  0  0  0  0  0  0  0  0
    7.0504   -6.7940    2.1863 H   0  0  0  0  0  0  0  0  0  0  0  0
    6.9699   -6.0956    0.6691 H   0  0  0  0  0  0  0  0  0  0  0  0
    5.1804   -7.2088    5.1309 H   0  0  0  0  0  0  0  0  0  0  0  0
    6.3641   -6.1559    4.4412 H   0  0  0  0  0  0  0  0  0  0  0  0
    6.0442   -7.7449    3.7707 H   0  0  0  0  0  0  0  0  0  0  0  0
    4.1752   -4.4913    4.5302 H   0  0  0  0  0  0  0  0  0  0  0  0
    2.8312   -4.8540    3.5127 H   0  0  0  0  0  0  0  0  0  0  0  0
    3.5476   -6.3078    6.0551 H   0  0  0  0  0  0  0  0  0  0  0  0
    2.2375   -5.2513    5.7476 H   0  0  0  0  0  0  0  0  0  0  0  0
    0.1490   -7.2265    3.5633 H   0  0  0  0  0  0  0  0  0  0  0  0
    0.7207   -5.6029    3.9463 H   0  0  0  0  0  0  0  0  0  0  0  0
   -0.1059   -6.5176    5.1269 H   0  0  0  0  0  0  0  0  0  0  0  0
    2.5589   -8.3375    6.5886 H   0  0  0  0  0  0  0  0  0  0  0  0
    1.1114   -7.3987    6.8384 H   0  0  0  0  0  0  0  0  0  0  0  0
    0.5950   -9.7889    6.7009 H   0  0  0  0  0  0  0  0  0  0  0  0
   -0.1486   -8.9914    5.3374 H   0  0  0  0  0  0  0  0  0  0  0  0
    2.4530  -10.5314    5.3842 H   0  0  0  0  0  0  0  0  0  0  0  0
   -0.1378  -11.2266    3.9949 H   0  0  0  0  0  0  0  0  0  0  0  0
    0.3961  -11.8574    5.5139 H   0  0  0  0  0  0  0  0  0  0  0  0
    1.2866  -12.2480    4.0728 H   0  0  0  0  0  0  0  0  0  0  0  0
    3.9315  -10.6656    3.3919 H   0  0  0  0  0  0  0  0  0  0  0  0
    3.3777  -10.0745    1.8358 H   0  0  0  0  0  0  0  0  0  0  0  0
    2.6014  -11.4255    2.5612 H   0  0  0  0  0  0  0  0  0  0  0  0
    0.6641  -10.1494    2.3825 H   0  0  0  0  0  0  0  0  0  0  0  0
    3.5633   -8.5055    4.5134 H   0  0  0  0  0  0  0  0  0  0  0  0
    4.3180   -8.1805    2.4570 H   0  0  0  0  0  0  0  0  0  0  0  0
    2.7081   -8.0843    0.8929 H   0  0  0  0  0  0  0  0  0  0  0  0
    0.7303   -7.0683    0.9910 H   0  0  0  0  0  0  0  0  0  0  0  0
    1.3005   -5.7219    2.0120 H   0  0  0  0  0  0  0  0  0  0  0  0
    3.8047   -6.7776   -0.3625 H   0  0  0  0  0  0  0  0  0  0  0  0
    5.5134   -5.6256   -0.9315 H   0  0  0  0  0  0  0  0  0  0  0  0
    6.2059   -4.2047   -0.1988 H   0  0  0  0  0  0  0  0  0  0  0  0
    4.8813   -4.0929   -1.2592 H   0  0  0  0  0  0  0  0  0  0  0  0
  1  2  1  0
  1 33  1  0
  1 34  1  0
  1 35  1  0
  2  7  1  0
  2  3  1  0
  2 36  1  6
  3  4  1  0
  3 37  1  0
  3 38  1  0
  4  5  1  0
  4  6  1  0
  4 39  1  1
  5 40  1  0
  6 31  1  0
  6  7  1  0
  6 41  1  1
  7  8  1  0
  7 42  1  1
  8  9  1  0
  8 43  1  0
  8 44  1  0
  9 10  1  0
  9 45  1  0
  9 46  1  0
 10 31  1  0
 10 11  1  6
 10 12  1  0
 11 47  1  0
 11 48  1  0
 11 49  1  0
 12 26  1  0
 12 13  1  1
 12 14  1  0
 13 50  1  0
 13 51  1  0
 13 52  1  0
 14 15  1  0
 14 53  1  0
 14 54  1  0
 15 16  1  0
 15 55  1  0
 15 56  1  0
 16 25  1  0
 16 17  1  6
 16 18  1  0
 17 57  1  0
 17 58  1  0
 17 59  1  0
 18 19  1  0
 18 60  1  0
 18 61  1  0
 19 20  1  0
 19 62  1  0
 19 63  1  0
 20 21  1  0
 20 22  1  0
 20 64  1  1
 21 65  1  0
 21 66  1  0
 21 67  1  0
 22 23  1  0
 22 24  1  6
 22 25  1  0
 23 68  1  0
 23 69  1  0
 23 70  1  0
 24 71  1  0
 25 26  1  0
 25 72  1  1
 26 27  1  0
 26 73  1  6
 27 30  1  0
 27 28  1  0
 27 74  1  6
 28 29  1  0
 28 75  1  0
 28 76  1  0
 29 30  1  0
 30 31  1  0
 30 77  1  6
 31 32  1  6
 32 78  1  0
 32 79  1  0
 32 80  1  0
M  END
>  <i_m_ct_stereo_status>  (191) 
1

>  <s_m_source_file>  (191) 
/var/tmp/pbs.5076255.sched01/tmpn9kf4o8v/46f5dlbpu8.sdf

>  <i_m_source_file_index>  (191) 
27

>  <i_lp_mmshare_version>  (191) 
48012

>  <i_f3d_flags>  (191) 
0

>  <s_epik_input>  (191) 
W09IXVtDQEBIXTFbQ0gyXVtDQEBIXShbQ0gzXSlbQ0BIXShbQ0gyXVtDSDJdMilbQ0BASF0xW0NAXTMoW0NIM10pW0NASF0oT1tDSDJdNClbQ0BIXTRbQ0BASF0oW0NAQF01KFtDSDNdKVtDQF0yM1tDSDNdKVtDQEhdNltDQF0oW0NIM10pKFtDSDJdW0NIMl01KVtDSDJdW0NIMl1bQ0BASF0oW0NIM10pW0NAQF02KFtDSDNdKVtPSF0=

>  <s_epik_cmdline>  (191) 
J2VwaWtfcHl0aG9uJywgJy1waHQnLCAnMi4wJywgJy1waCcsICc3LjAnLCAnLXRuJywgJzgnLCAnLW1hJywgJzIwMCcsICctaW1hZScsICc8aW5maWxlLm1hZT4nLCAnLW9tYWUnLCAnPG91dGZpbGUubWFlPic=

>  <r_lp_tautomer_probability>  (191) 
1

>  <r_epik_Ionization_Penalty>  (191) 
3.90815e-06

>  <r_epik_Ionization_Penalty_Charging>  (191) 
0

>  <r_epik_Ionization_Penalty_Neutral>  (191) 
3.90815e-06

>  <r_epik_State_Penalty>  (191) 
-0

>  <r_epik_Charging_Adjusted_Penalty>  (191) 
0

>  <i_epik_Tot_Q>  (191) 
0

>  <i_epik_Tot_abs_Q>  (191) 
0

>  <s_lp_Force_Field>  (191) 
OPLS3e

>  <r_lp_Energy>  (191) 
121.628

>  <b_lp_Chiralities_Consistent>  (191) 
1

>  <s_lp_Variant>  (191) 
50:0-1

>  <s_i_glide_gridfile>  (191) 
pfpi4k_grid

>  <i_i_glide_lignum>  (191) 
27

>  <i_i_glide_rotatable_bonds>  (191) 
2

>  <r_i_docking_score>  (191) 
-2.63027

>  <r_i_glide_ligand_efficiency>  (191) 
-0.0821959

>  <r_i_glide_ligand_efficiency_sa>  (191) 
-0.260956

>  <r_i_glide_ligand_efficiency_ln>  (191) 
-0.588989

>  <r_i_glide_gscore>  (191) 
-2.63027

>  <r_i_glide_lipo>  (191) 
-0.281727

>  <r_i_glide_hbond>  (191) 
0

>  <r_i_glide_metal>  (191) 
-0

>  <r_i_glide_rewards>  (191) 
-0.877116

>  <r_i_glide_evdw>  (191) 
-24.5923

>  <r_i_glide_ecoul>  (191) 
-1.61208

>  <r_i_glide_erotb>  (191) 
0

>  <r_i_glide_esite>  (191) 
0

>  <r_i_glide_emodel>  (191) 
-35.6358

>  <r_i_glide_energy>  (191) 
-26.2044

>  <r_i_glide_einternal>  (191) 
1.37212

>  <r_i_glide_intrahb_reward>  (191) 
-0.5

>  <i_i_glide_confnum>  (191) 
2

>  <i_i_glide_posenum>  (191) 
25

>  <r_i_glide_eff_state_penalty>  (191) 
0

>  <ligand_id>  (191) 
50

>  <original_smiles>  (191) 
CC1CC(O)C2C1CCC1(C)C3(C)CCC4(C)CCC(C)C(C)(O)C4C3C3COC3C21C

>  <smiles>  (191) 
[H]OC1([H])C([H])([H])C([H])(C([H])([H])[H])C2([H])C([H])([H])C([H])([H])C3(C([H])([H])[H])C4(C([H])([H])[H])C([H])([H])C([H])([H])C5(C([H])([H])[H])C([H])([H])C([H])([H])C([H])(C([H])([H])[H])C(O[H])(C([H])([H])[H])C5([H])C4([H])C4([H])C([H])([H])OC4([H])C3(C([H])([H])[H])C12[H]

$$$$
50:0:2
     RDKit          3D

 80 85  0  0  1  0  0  0  0  0999 V2000
    8.5218   -5.8782    5.4973 C   0  0  0  0  0  0  0  0  0  0  0  0
    8.6386   -7.3744    5.1543 C   0  0  2  0  0  0  0  0  0  0  0  0
    9.0180   -7.5991    3.6895 C   0  0  0  0  0  0  0  0  0  0  0  0
    7.6784   -7.5985    2.9541 C   0  0  1  0  0  0  0  0  0  0  0  0
    7.7671   -8.0730    1.6362 O   0  0  0  0  0  0  0  0  0  0  0  0
    6.6467   -8.2376    3.9325 C   0  0  2  0  0  0  0  0  0  0  0  0
    7.2942   -8.1098    5.3319 C   0  0  1  0  0  0  0  0  0  0  0  0
    7.4737   -9.4577    6.0193 C   0  0  0  0  0  0  0  0  0  0  0  0
    6.1548  -10.2493    6.1401 C   0  0  0  0  0  0  0  0  0  0  0  0
    5.1395  -10.1740    4.9302 C   0  0  1  0  0  0  0  0  0  0  0  0
    4.7527  -11.6743    4.6549 C   0  0  0  0  0  0  0  0  0  0  0  0
    3.7611   -9.4155    5.3582 C   0  0  1  0  0  0  0  0  0  0  0  0
    3.0412  -10.2576    6.4651 C   0  0  0  0  0  0  0  0  0  0  0  0
    3.9520   -7.9953    5.9695 C   0  0  0  0  0  0  0  0  0  0  0  0
    2.6546   -7.2659    6.3896 C   0  0  0  0  0  0  0  0  0  0  0  0
    1.6132   -7.1206    5.2519 C   0  0  2  0  0  0  0  0  0  0  0  0
    2.0270   -5.9070    4.3772 C   0  0  0  0  0  0  0  0  0  0  0  0
    0.2543   -6.7670    5.8998 C   0  0  0  0  0  0  0  0  0  0  0  0
   -0.8478   -6.6574    4.8439 C   0  0  0  0  0  0  0  0  0  0  0  0
   -1.0499   -8.0016    4.1235 C   0  0  1  0  0  0  0  0  0  0  0  0
   -2.2029   -7.8520    3.1403 C   0  0  0  0  0  0  0  0  0  0  0  0
    0.2487   -8.5645    3.4763 C   0  0  1  0  0  0  0  0  0  0  0  0
   -0.0094  -10.0114    3.0045 C   0  0  0  0  0  0  0  0  0  0  0  0
    0.5213   -7.8273    2.3045 O   0  0  0  0  0  0  0  0  0  0  0  0
    1.4341   -8.4978    4.5045 C   0  0  1  0  0  0  0  0  0  0  0  0
    2.7589   -9.2745    4.1514 C   0  0  1  0  0  0  0  0  0  0  0  0
    3.4034   -8.9824    2.7789 C   0  0  1  0  0  0  0  0  0  0  0  0
    3.8487   -7.6284    2.2553 C   0  0  0  0  0  0  0  0  0  0  0  0
    5.0493   -8.2093    1.6930 O   0  0  0  0  0  0  0  0  0  0  0  0
    4.8366   -9.4088    2.4824 C   0  0  1  0  0  0  0  0  0  0  0  0
    5.8810   -9.5995    3.6210 C   0  0  1  0  0  0  0  0  0  0  0  0
    6.9087  -10.6790    3.1289 C   0  0  0  0  0  0  0  0  0  0  0  0
    7.7755   -5.3773    4.8800 H   0  0  0  0  0  0  0  0  0  0  0  0
    9.4805   -5.3882    5.3407 H   0  0  0  0  0  0  0  0  0  0  0  0
    8.2420   -5.7318    6.5416 H   0  0  0  0  0  0  0  0  0  0  0  0
    9.4087   -7.7922    5.8036 H   0  0  0  0  0  0  0  0  0  0  0  0
    9.7073   -6.8437    3.3048 H   0  0  0  0  0  0  0  0  0  0  0  0
    9.5095   -8.5677    3.5838 H   0  0  0  0  0  0  0  0  0  0  0  0
    7.4033   -6.5549    2.8230 H   0  0  0  0  0  0  0  0  0  0  0  0
    6.8666   -8.0907    1.2971 H   0  0  0  0  0  0  0  0  0  0  0  0
    5.8925   -7.4689    3.9268 H   0  0  0  0  0  0  0  0  0  0  0  0
    6.6563   -7.5026    5.9745 H   0  0  0  0  0  0  0  0  0  0  0  0
    8.2457  -10.0314    5.5075 H   0  0  0  0  0  0  0  0  0  0  0  0
    7.8681   -9.3010    7.0253 H   0  0  0  0  0  0  0  0  0  0  0  0
    6.4256  -11.2855    6.3447 H   0  0  0  0  0  0  0  0  0  0  0  0
    5.6840   -9.9195    7.0615 H   0  0  0  0  0  0  0  0  0  0  0  0
    4.0567  -11.7891    3.8201 H   0  0  0  0  0  0  0  0  0  0  0  0
    4.3242  -12.1762    5.5215 H   0  0  0  0  0  0  0  0  0  0  0  0
    5.6082  -12.3165    4.4456 H   0  0  0  0  0  0  0  0  0  0  0  0
    2.2117   -9.7697    6.9596 H   0  0  0  0  0  0  0  0  0  0  0  0
    3.6992  -10.5822    7.2670 H   0  0  0  0  0  0  0  0  0  0  0  0
    2.5758  -11.1546    6.0564 H   0  0  0  0  0  0  0  0  0  0  0  0
    4.5990   -8.0333    6.8392 H   0  0  0  0  0  0  0  0  0  0  0  0
    4.4295   -7.3332    5.2693 H   0  0  0  0  0  0  0  0  0  0  0  0
    2.2018   -7.7334    7.2608 H   0  0  0  0  0  0  0  0  0  0  0  0
    2.9225   -6.2713    6.7482 H   0  0  0  0  0  0  0  0  0  0  0  0
    1.7262   -5.9946    3.3367 H   0  0  0  0  0  0  0  0  0  0  0  0
    3.0954   -5.7141    4.4053 H   0  0  0  0  0  0  0  0  0  0  0  0
    1.5747   -4.9843    4.7415 H   0  0  0  0  0  0  0  0  0  0  0  0
   -0.0243   -7.5305    6.6259 H   0  0  0  0  0  0  0  0  0  0  0  0
    0.3260   -5.8361    6.4635 H   0  0  0  0  0  0  0  0  0  0  0  0
   -1.7764   -6.3543    5.3291 H   0  0  0  0  0  0  0  0  0  0  0  0
   -0.6189   -5.8678    4.1290 H   0  0  0  0  0  0  0  0  0  0  0  0
   -1.3821   -8.7083    4.8853 H   0  0  0  0  0  0  0  0  0  0  0  0
   -1.9776   -7.1623    2.3319 H   0  0  0  0  0  0  0  0  0  0  0  0
   -3.0707   -7.4658    3.6585 H   0  0  0  0  0  0  0  0  0  0  0  0
   -2.5135   -8.7976    2.7032 H   0  0  0  0  0  0  0  0  0  0  0  0
   -0.2246  -10.6603    3.8485 H   0  0  0  0  0  0  0  0  0  0  0  0
    0.8304  -10.4512    2.4760 H   0  0  0  0  0  0  0  0  0  0  0  0
   -0.8472  -10.0920    2.3172 H   0  0  0  0  0  0  0  0  0  0  0  0
    1.0412   -8.3777    1.7389 H   0  0  0  0  0  0  0  0  0  0  0  0
    1.0147   -9.1257    5.2901 H   0  0  0  0  0  0  0  0  0  0  0  0
    2.4052  -10.2943    4.0268 H   0  0  0  0  0  0  0  0  0  0  0  0
    2.7933   -9.4120    1.9881 H   0  0  0  0  0  0  0  0  0  0  0  0
    3.1847   -7.2268    1.4891 H   0  0  0  0  0  0  0  0  0  0  0  0
    4.0821   -6.8887    3.0107 H   0  0  0  0  0  0  0  0  0  0  0  0
    4.7711  -10.2917    1.8385 H   0  0  0  0  0  0  0  0  0  0  0  0
    6.4212  -11.4754    2.5639 H   0  0  0  0  0  0  0  0  0  0  0  0
    7.4485  -11.1746    3.9312 H   0  0  0  0  0  0  0  0  0  0  0  0
    7.6782  -10.2971    2.4866 H   0  0  0  0  0  0  0  0  0  0  0  0
  1  2  1  0
  1 33  1  0
  1 34  1  0
  1 35  1  0
  2  7  1  0
  2  3  1  0
  2 36  1  1
  3  4  1  0
  3 37  1  0
  3 38  1  0
  4  5  1  0
  4  6  1  0
  4 39  1  6
  5 40  1  0
  6 31  1  0
  6  7  1  0
  6 41  1  1
  7  8  1  0
  7 42  1  1
  8  9  1  0
  8 43  1  0
  8 44  1  0
  9 10  1  0
  9 45  1  0
  9 46  1  0
 10 31  1  0
 10 11  1  6
 10 12  1  0
 11 47  1  0
 11 48  1  0
 11 49  1  0
 12 26  1  0
 12 13  1  1
 12 14  1  0
 13 50  1  0
 13 51  1  0
 13 52  1  0
 14 15  1  0
 14 53  1  0
 14 54  1  0
 15 16  1  0
 15 55  1  0
 15 56  1  0
 16 25  1  0
 16 17  1  6
 16 18  1  0
 17 57  1  0
 17 58  1  0
 17 59  1  0
 18 19  1  0
 18 60  1  0
 18 61  1  0
 19 20  1  0
 19 62  1  0
 19 63  1  0
 20 21  1  0
 20 22  1  0
 20 64  1  1
 21 65  1  0
 21 66  1  0
 21 67  1  0
 22 23  1  0
 22 24  1  6
 22 25  1  0
 23 68  1  0
 23 69  1  0
 23 70  1  0
 24 71  1  0
 25 26  1  0
 25 72  1  1
 26 27  1  0
 26 73  1  6
 27 30  1  0
 27 28  1  0
 27 74  1  6
 28 29  1  0
 28 75  1  0
 28 76  1  0
 29 30  1  0
 30 31  1  0
 30 77  1  6
 31 32  1  6
 32 78  1  0
 32 79  1  0
 32 80  1  0
M  END
>  <i_m_ct_stereo_status>  (192) 
1

>  <s_m_source_file>  (192) 
/var/tmp/pbs.5076255.sched01/tmpn9kf4o8v/46f5dlbpu8.sdf

>  <i_m_source_file_index>  (192) 
27

>  <i_lp_mmshare_version>  (192) 
48012

>  <i_f3d_flags>  (192) 
0

>  <s_epik_input>  (192) 
W09IXVtDQEBIXTFbQ0gyXVtDQEBIXShbQ0gzXSlbQ0BIXShbQ0gyXVtDSDJdMilbQ0BASF0xW0NAXTMoW0NIM10pW0NASF0oT1tDSDJdNClbQ0BIXTRbQ0BASF0oW0NAQF01KFtDSDNdKVtDQF0yM1tDSDNdKVtDQEhdNltDQF0oW0NIM10pKFtDSDJdW0NIMl01KVtDSDJdW0NIMl1bQ0BASF0oW0NIM10pW0NAQF02KFtDSDNdKVtPSF0=

>  <s_epik_cmdline>  (192) 
J2VwaWtfcHl0aG9uJywgJy1waHQnLCAnMi4wJywgJy1waCcsICc3LjAnLCAnLXRuJywgJzgnLCAnLW1hJywgJzIwMCcsICctaW1hZScsICc8aW5maWxlLm1hZT4nLCAnLW9tYWUnLCAnPG91dGZpbGUubWFlPic=

>  <r_lp_tautomer_probability>  (192) 
1

>  <r_epik_Ionization_Penalty>  (192) 
3.90815e-06

>  <r_epik_Ionization_Penalty_Charging>  (192) 
0

>  <r_epik_Ionization_Penalty_Neutral>  (192) 
3.90815e-06

>  <r_epik_State_Penalty>  (192) 
-0

>  <r_epik_Charging_Adjusted_Penalty>  (192) 
0

>  <i_epik_Tot_Q>  (192) 
0

>  <i_epik_Tot_abs_Q>  (192) 
0

>  <s_lp_Force_Field>  (192) 
OPLS3e

>  <r_lp_Energy>  (192) 
121.628

>  <b_lp_Chiralities_Consistent>  (192) 
1

>  <s_lp_Variant>  (192) 
50:0-1

>  <s_i_glide_gridfile>  (192) 
pfpi4k_grid

>  <i_i_glide_lignum>  (192) 
27

>  <i_i_glide_rotatable_bonds>  (192) 
2

>  <r_i_docking_score>  (192) 
-2.45786

>  <r_i_glide_ligand_efficiency>  (192) 
-0.0768081

>  <r_i_glide_ligand_efficiency_sa>  (192) 
-0.24385

>  <r_i_glide_ligand_efficiency_ln>  (192) 
-0.550381

>  <r_i_glide_gscore>  (192) 
-2.45786

>  <r_i_glide_lipo>  (192) 
-0.0277754

>  <r_i_glide_hbond>  (192) 
0

>  <r_i_glide_metal>  (192) 
-0

>  <r_i_glide_rewards>  (192) 
-0.877116

>  <r_i_glide_evdw>  (192) 
-25.8669

>  <r_i_glide_ecoul>  (192) 
-1.73081

>  <r_i_glide_erotb>  (192) 
0

>  <r_i_glide_esite>  (192) 
0

>  <r_i_glide_emodel>  (192) 
-37.1752

>  <r_i_glide_energy>  (192) 
-27.5977

>  <r_i_glide_einternal>  (192) 
0.655343

>  <r_i_glide_intrahb_reward>  (192) 
-0.5

>  <i_i_glide_confnum>  (192) 
1

>  <i_i_glide_posenum>  (192) 
2

>  <r_i_glide_eff_state_penalty>  (192) 
0

>  <ligand_id>  (192) 
50

>  <original_smiles>  (192) 
CC1CC(O)C2C1CCC1(C)C3(C)CCC4(C)CCC(C)C(C)(O)C4C3C3COC3C21C

>  <smiles>  (192) 
[H]OC1([H])C([H])([H])C([H])(C([H])([H])[H])C2([H])C([H])([H])C([H])([H])C3(C([H])([H])[H])C4(C([H])([H])[H])C([H])([H])C([H])([H])C5(C([H])([H])[H])C([H])([H])C([H])([H])C([H])(C([H])([H])[H])C(O[H])(C([H])([H])[H])C5([H])C4([H])C4([H])C([H])([H])OC4([H])C3(C([H])([H])[H])C12[H]

$$$$
51:0:0
     RDKit          3D

 47 52  0  0  1  0  0  0  0  0999 V2000
    2.7983    0.2094    1.5539 C   0  0  0  0  0  0  0  0  0  0  0  0
    3.9945   -0.1629    0.8637 O   0  0  0  0  0  0  0  0  0  0  0  0
    4.5436   -1.4263    1.0820 C   0  0  1  0  0  0  0  0  0  0  0  0
    5.3417   -1.2286    2.4450 C   0  0  0  0  0  0  0  0  0  0  0  0
    5.1642   -2.2804    3.4417 O   0  0  0  0  0  0  0  0  0  0  0  0
    4.7350   -3.6156    3.2140 C   0  0  2  0  0  0  0  0  0  0  0  0
    5.7346   -4.6498    3.0578 O   0  0  0  0  0  0  0  0  0  0  0  0
    6.3552   -4.9810    1.7765 C   0  0  2  0  0  0  0  0  0  0  0  0
    6.3675   -3.7014    1.0880 C   0  0  1  0  0  0  0  0  0  0  0  0
    7.3244   -3.4465   -0.0439 C   0  0  0  0  0  0  0  0  0  0  0  0
    6.1380   -3.2268   -0.9252 C   0  0  1  0  0  0  0  0  0  0  0  0
    5.3700   -4.6603   -0.6318 C   0  0  2  0  0  0  0  0  0  0  0  0
    4.9331   -3.9781    0.4375 C   0  0  1  0  0  0  0  0  0  0  0  0
    3.9740   -4.8174    1.0902 C   0  0  1  0  0  0  0  0  0  0  0  0
    2.8106   -5.2732    0.4085 O   0  0  0  0  0  0  0  0  0  0  0  0
    5.3341   -5.5131    0.7710 C   0  0  2  0  0  0  0  0  0  0  0  0
    3.6315   -3.6755    2.1086 C   0  0  1  0  0  0  0  0  0  0  0  0
    2.2728   -3.8559    2.8125 C   0  0  0  0  0  0  0  0  0  0  0  0
    3.4698   -2.3470    1.4269 O   0  0  0  0  0  0  0  0  0  0  0  0
    5.4413   -1.7231   -0.4160 C   0  0  1  0  0  0  0  0  0  0  0  0
    4.6455   -1.1109   -1.6269 C   0  0  0  0  0  0  0  0  0  0  0  0
    3.4641   -1.9041   -2.2366 C   0  0  0  0  0  0  0  0  0  0  0  0
    3.8804   -2.9552   -3.0981 O   0  0  0  0  0  0  0  0  0  0  0  0
    2.5703    1.2361    1.2882 H   0  0  0  0  0  0  0  0  0  0  0  0
    2.8907    0.1732    2.6377 H   0  0  0  0  0  0  0  0  0  0  0  0
    1.9466   -0.4010    1.2623 H   0  0  0  0  0  0  0  0  0  0  0  0
    6.3715   -0.9416    2.2702 H   0  0  0  0  0  0  0  0  0  0  0  0
    4.9691   -0.3589    2.9737 H   0  0  0  0  0  0  0  0  0  0  0  0
    4.2790   -3.8794    4.1709 H   0  0  0  0  0  0  0  0  0  0  0  0
    7.3040   -5.5086    1.7935 H   0  0  0  0  0  0  0  0  0  0  0  0
    6.6467   -2.9521    1.7831 H   0  0  0  0  0  0  0  0  0  0  0  0
    7.9769   -2.5766    0.0920 H   0  0  0  0  0  0  0  0  0  0  0  0
    7.8957   -4.3230   -0.3095 H   0  0  0  0  0  0  0  0  0  0  0  0
    6.4725   -3.1402   -1.9647 H   0  0  0  0  0  0  0  0  0  0  0  0
    4.6028   -4.9952   -1.3246 H   0  0  0  0  0  0  0  0  0  0  0  0
    4.1817   -3.4779   -0.1705 H   0  0  0  0  0  0  0  0  0  0  0  0
    3.0969   -5.5896   -0.4257 H   0  0  0  0  0  0  0  0  0  0  0  0
    5.2352   -6.5943    0.6185 H   0  0  0  0  0  0  0  0  0  0  0  0
    2.2097   -4.8077    3.3318 H   0  0  0  0  0  0  0  0  0  0  0  0
    1.4617   -3.8013    2.0852 H   0  0  0  0  0  0  0  0  0  0  0  0
    2.1098   -3.0510    3.5248 H   0  0  0  0  0  0  0  0  0  0  0  0
    6.2766   -1.0414   -0.3039 H   0  0  0  0  0  0  0  0  0  0  0  0
    4.2564   -0.1296   -1.3931 H   0  0  0  0  0  0  0  0  0  0  0  0
    5.3797   -0.8823   -2.4001 H   0  0  0  0  0  0  0  0  0  0  0  0
    2.7400   -2.2310   -1.4848 H   0  0  0  0  0  0  0  0  0  0  0  0
    2.9072   -1.2368   -2.8918 H   0  0  0  0  0  0  0  0  0  0  0  0
    3.3916   -3.7318   -2.9040 H   0  0  0  0  0  0  0  0  0  0  0  0
  1  2  1  0
  1 24  1  0
  1 25  1  0
  1 26  1  0
  3  2  1  6
  3 19  1  0
  3 20  1  0
  3  4  1  0
  4  5  1  0
  4 27  1  0
  4 28  1  0
  5  6  1  0
  6 17  1  0
  6  7  1  0
  6 29  1  1
  7  8  1  0
  8 16  1  0
  8  9  1  0
  8 30  1  1
  9 13  1  0
  9 10  1  0
  9 31  1  1
 10 11  1  0
 10 32  1  0
 10 33  1  0
 11 12  1  0
 11 20  1  0
 11 34  1  6
 12 16  1  0
 12 13  1  0
 12 35  1  6
 13 14  1  0
 13 36  1  6
 14 15  1  6
 14 16  1  0
 14 17  1  0
 15 37  1  0
 16 38  1  6
 17 18  1  1
 17 19  1  0
 18 39  1  0
 18 40  1  0
 18 41  1  0
 20 21  1  0
 20 42  1  1
 21 22  1  0
 21 43  1  0
 21 44  1  0
 22 23  1  0
 22 45  1  0
 22 46  1  0
 23 47  1  0
M  END
>  <i_m_ct_stereo_status>  (193) 
1

>  <s_m_source_file>  (193) 
/var/tmp/pbs.5076255.sched01/tmpn9kf4o8v/46f5dlbpu8.sdf

>  <i_m_source_file_index>  (193) 
28

>  <i_lp_mmshare_version>  (193) 
48012

>  <i_f3d_flags>  (193) 
0

>  <s_epik_input>  (193) 
W0NIM11PW0NAQF0xMltDSDJdT1tDQEhdM1tDQF0oTzEpKFtDSDNdKVtDQEBdNChbT0hdKVtDQEhdNVtDSF02W0NAQEhdKE8zKVtDQEBIXTRbQ0hdNVtDQEhdKFtDSDJdNilbQ0BIXTJbQ0gyXVtDSDJdW09IXQ==

>  <s_epik_cmdline>  (193) 
J2VwaWtfcHl0aG9uJywgJy1waHQnLCAnMi4wJywgJy1waCcsICc3LjAnLCAnLXRuJywgJzgnLCAnLW1hJywgJzIwMCcsICctaW1hZScsICc8aW5maWxlLm1hZT4nLCAnLW9tYWUnLCAnPG91dGZpbGUubWFlPic=

>  <r_lp_tautomer_probability>  (193) 
1

>  <r_epik_Ionization_Penalty>  (193) 
4.58435e-07

>  <r_epik_Ionization_Penalty_Charging>  (193) 
0

>  <r_epik_Ionization_Penalty_Neutral>  (193) 
4.58435e-07

>  <r_epik_State_Penalty>  (193) 
-0

>  <r_epik_Charging_Adjusted_Penalty>  (193) 
0

>  <i_epik_Tot_Q>  (193) 
0

>  <i_epik_Tot_abs_Q>  (193) 
0

>  <s_epik_Chemistry_Notes>  (193) 
This compound contains an acetal/aminal-like group ( X-CH(R)-Y where X, Y are N, S, or O) that may be acid/base labile, releasing an aldehyde.

>  <s_lp_Force_Field>  (193) 
OPLS3e

>  <r_lp_Energy>  (193) 
340.797

>  <b_lp_Chiralities_Consistent>  (193) 
1

>  <s_lp_Variant>  (193) 
51:0-1

>  <s_i_glide_gridfile>  (193) 
pfpi4k_grid

>  <i_i_glide_lignum>  (193) 
28

>  <i_i_glide_rotatable_bonds>  (193) 
5

>  <r_i_docking_score>  (193) 
-3.32346

>  <r_i_glide_ligand_efficiency>  (193) 
-0.144498

>  <r_i_glide_ligand_efficiency_sa>  (193) 
-0.410934

>  <r_i_glide_ligand_efficiency_ln>  (193) 
-0.803644

>  <r_i_glide_gscore>  (193) 
-3.32346

>  <r_i_glide_lipo>  (193) 
-0.681069

>  <r_i_glide_hbond>  (193) 
-0.0101436

>  <r_i_glide_metal>  (193) 
-0

>  <r_i_glide_rewards>  (193) 
-1.24692

>  <r_i_glide_evdw>  (193) 
-20.771

>  <r_i_glide_ecoul>  (193) 
-4.685

>  <r_i_glide_erotb>  (193) 
0.35597

>  <r_i_glide_esite>  (193) 
0

>  <r_i_glide_emodel>  (193) 
-26.9265

>  <r_i_glide_energy>  (193) 
-25.456

>  <r_i_glide_einternal>  (193) 
6.96094

>  <r_i_glide_intrahb_reward>  (193) 
-0

>  <i_i_glide_confnum>  (193) 
6

>  <i_i_glide_posenum>  (193) 
5

>  <r_i_glide_eff_state_penalty>  (193) 
0

>  <ligand_id>  (193) 
51

>  <original_smiles>  (193) 
COC12COC3OC4C5CC(C6C5C(O)(C46)C3(C)O1)C2CCO

>  <smiles>  (193) 
[H]OC([H])([H])C([H])([H])C1([H])C2(OC([H])([H])[H])OC3(C([H])([H])[H])C([H])(OC2([H])[H])OC2([H])C4([H])C([H])([H])C1([H])C1([H])C2([H])C3(O[H])C41[H]

$$$$
51:0:1
     RDKit          3D

 47 52  0  0  1  0  0  0  0  0999 V2000
    2.8983    0.3626    1.4045 C   0  0  0  0  0  0  0  0  0  0  0  0
    3.9428    0.1183    0.4558 O   0  0  0  0  0  0  0  0  0  0  0  0
    4.5460   -1.1418    0.4005 C   0  0  1  0  0  0  0  0  0  0  0  0
    5.6368   -0.9973    1.5320 C   0  0  0  0  0  0  0  0  0  0  0  0
    5.7883   -2.1086    2.4628 O   0  0  0  0  0  0  0  0  0  0  0  0
    5.3102   -3.4315    2.2814 C   0  0  2  0  0  0  0  0  0  0  0  0
    6.2805   -4.3984    1.8298 O   0  0  0  0  0  0  0  0  0  0  0  0
    6.5257   -4.6535    0.4161 C   0  0  2  0  0  0  0  0  0  0  0  0
    6.3067   -3.3568   -0.2072 C   0  0  1  0  0  0  0  0  0  0  0  0
    7.0103   -3.0081   -1.4826 C   0  0  0  0  0  0  0  0  0  0  0  0
    5.6610   -2.7785   -2.0296 C   0  0  1  0  0  0  0  0  0  0  0  0
    5.0451   -4.2623   -1.6757 C   0  0  2  0  0  0  0  0  0  0  0  0
    4.7375   -3.6456   -0.5297 C   0  0  1  0  0  0  0  0  0  0  0  0
    4.0699   -4.5674    0.3363 C   0  0  1  0  0  0  0  0  0  0  0  0
    2.8023   -5.0859   -0.0042 O   0  0  0  0  0  0  0  0  0  0  0  0
    5.3262   -5.1849   -0.3406 C   0  0  2  0  0  0  0  0  0  0  0  0
    3.9675   -3.4741    1.4753 C   0  0  1  0  0  0  0  0  0  0  0  0
    2.8336   -3.7551    2.4813 C   0  0  0  0  0  0  0  0  0  0  0  0
    3.6126   -2.1161    0.9442 O   0  0  0  0  0  0  0  0  0  0  0  0
    5.0547   -1.3080   -1.2980 C   0  0  1  0  0  0  0  0  0  0  0  0
    3.9271   -0.7204   -2.2014 C   0  0  0  0  0  0  0  0  0  0  0  0
    3.7665   -1.1813   -3.6728 C   0  0  0  0  0  0  0  0  0  0  0  0
    3.2310   -2.4890   -3.7916 O   0  0  0  0  0  0  0  0  0  0  0  0
    2.5680    1.3913    1.2814 H   0  0  0  0  0  0  0  0  0  0  0  0
    3.2303    0.2587    2.4370 H   0  0  0  0  0  0  0  0  0  0  0  0
    2.0275   -0.2750    1.2435 H   0  0  0  0  0  0  0  0  0  0  0  0
    6.5810   -0.6652    1.1103 H   0  0  0  0  0  0  0  0  0  0  0  0
    5.3691   -0.1745    2.1981 H   0  0  0  0  0  0  0  0  0  0  0  0
    5.1339   -3.7654    3.3041 H   0  0  0  0  0  0  0  0  0  0  0  0
    7.4749   -5.1171    0.1618 H   0  0  0  0  0  0  0  0  0  0  0  0
    6.7329   -2.6262    0.4278 H   0  0  0  0  0  0  0  0  0  0  0  0
    7.6517   -2.1307   -1.4556 H   0  0  0  0  0  0  0  0  0  0  0  0
    7.5202   -3.8271   -1.9838 H   0  0  0  0  0  0  0  0  0  0  0  0
    5.8144   -2.6683   -3.1083 H   0  0  0  0  0  0  0  0  0  0  0  0
    4.2180   -4.5652   -2.2734 H   0  0  0  0  0  0  0  0  0  0  0  0
    3.8510   -3.0961   -0.9226 H   0  0  0  0  0  0  0  0  0  0  0  0
    2.8718   -5.4203   -0.8938 H   0  0  0  0  0  0  0  0  0  0  0  0
    5.2553   -6.2640   -0.5010 H   0  0  0  0  0  0  0  0  0  0  0  0
    2.9376   -4.7353    2.9495 H   0  0  0  0  0  0  0  0  0  0  0  0
    1.8581   -3.7104    1.9966 H   0  0  0  0  0  0  0  0  0  0  0  0
    2.8335   -2.9969    3.2660 H   0  0  0  0  0  0  0  0  0  0  0  0
    5.8627   -0.5900   -1.3835 H   0  0  0  0  0  0  0  0  0  0  0  0
    2.9613   -0.7807   -1.7076 H   0  0  0  0  0  0  0  0  0  0  0  0
    4.1930    0.3313   -2.2890 H   0  0  0  0  0  0  0  0  0  0  0  0
    3.0640   -0.5189   -4.1857 H   0  0  0  0  0  0  0  0  0  0  0  0
    4.7095   -1.1029   -4.2119 H   0  0  0  0  0  0  0  0  0  0  0  0
    2.5610   -2.5942   -3.1428 H   0  0  0  0  0  0  0  0  0  0  0  0
  1  2  1  0
  1 24  1  0
  1 25  1  0
  1 26  1  0
  3  2  1  6
  3 19  1  0
  3 20  1  0
  3  4  1  0
  4  5  1  0
  4 27  1  0
  4 28  1  0
  5  6  1  0
  6 17  1  0
  6  7  1  0
  6 29  1  1
  7  8  1  0
  8 16  1  0
  8  9  1  0
  8 30  1  1
  9 13  1  0
  9 10  1  0
  9 31  1  1
 10 11  1  0
 10 32  1  0
 10 33  1  0
 11 12  1  0
 11 20  1  0
 11 34  1  6
 12 16  1  0
 12 13  1  0
 12 35  1  6
 13 14  1  0
 13 36  1  6
 14 15  1  6
 14 16  1  0
 14 17  1  0
 15 37  1  0
 16 38  1  6
 17 18  1  1
 17 19  1  0
 18 39  1  0
 18 40  1  0
 18 41  1  0
 20 21  1  0
 20 42  1  1
 21 22  1  0
 21 43  1  0
 21 44  1  0
 22 23  1  0
 22 45  1  0
 22 46  1  0
 23 47  1  0
M  END
>  <i_m_ct_stereo_status>  (194) 
1

>  <s_m_source_file>  (194) 
/var/tmp/pbs.5076255.sched01/tmpn9kf4o8v/46f5dlbpu8.sdf

>  <i_m_source_file_index>  (194) 
28

>  <i_lp_mmshare_version>  (194) 
48012

>  <i_f3d_flags>  (194) 
0

>  <s_epik_input>  (194) 
W0NIM11PW0NAQF0xMltDSDJdT1tDQEhdM1tDQF0oTzEpKFtDSDNdKVtDQEBdNChbT0hdKVtDQEhdNVtDSF02W0NAQEhdKE8zKVtDQEBIXTRbQ0hdNVtDQEhdKFtDSDJdNilbQ0BIXTJbQ0gyXVtDSDJdW09IXQ==

>  <s_epik_cmdline>  (194) 
J2VwaWtfcHl0aG9uJywgJy1waHQnLCAnMi4wJywgJy1waCcsICc3LjAnLCAnLXRuJywgJzgnLCAnLW1hJywgJzIwMCcsICctaW1hZScsICc8aW5maWxlLm1hZT4nLCAnLW9tYWUnLCAnPG91dGZpbGUubWFlPic=

>  <r_lp_tautomer_probability>  (194) 
1

>  <r_epik_Ionization_Penalty>  (194) 
4.58435e-07

>  <r_epik_Ionization_Penalty_Charging>  (194) 
0

>  <r_epik_Ionization_Penalty_Neutral>  (194) 
4.58435e-07

>  <r_epik_State_Penalty>  (194) 
-0

>  <r_epik_Charging_Adjusted_Penalty>  (194) 
0

>  <i_epik_Tot_Q>  (194) 
0

>  <i_epik_Tot_abs_Q>  (194) 
0

>  <s_epik_Chemistry_Notes>  (194) 
This compound contains an acetal/aminal-like group ( X-CH(R)-Y where X, Y are N, S, or O) that may be acid/base labile, releasing an aldehyde.

>  <s_lp_Force_Field>  (194) 
OPLS3e

>  <r_lp_Energy>  (194) 
340.797

>  <b_lp_Chiralities_Consistent>  (194) 
1

>  <s_lp_Variant>  (194) 
51:0-1

>  <s_i_glide_gridfile>  (194) 
pfpi4k_grid

>  <i_i_glide_lignum>  (194) 
28

>  <i_i_glide_rotatable_bonds>  (194) 
5

>  <r_i_docking_score>  (194) 
-3.27433

>  <r_i_glide_ligand_efficiency>  (194) 
-0.142362

>  <r_i_glide_ligand_efficiency_sa>  (194) 
-0.404859

>  <r_i_glide_ligand_efficiency_ln>  (194) 
-0.791762

>  <r_i_glide_gscore>  (194) 
-3.27433

>  <r_i_glide_lipo>  (194) 
-0.72493

>  <r_i_glide_hbond>  (194) 
0

>  <r_i_glide_metal>  (194) 
-0

>  <r_i_glide_rewards>  (194) 
-1.27761

>  <r_i_glide_evdw>  (194) 
-19.9368

>  <r_i_glide_ecoul>  (194) 
-4.20612

>  <r_i_glide_erotb>  (194) 
0.35597

>  <r_i_glide_esite>  (194) 
0

>  <r_i_glide_emodel>  (194) 
-24.8512

>  <r_i_glide_energy>  (194) 
-24.1429

>  <r_i_glide_einternal>  (194) 
6.95452

>  <r_i_glide_intrahb_reward>  (194) 
-0

>  <i_i_glide_confnum>  (194) 
4

>  <i_i_glide_posenum>  (194) 
28

>  <r_i_glide_eff_state_penalty>  (194) 
0

>  <ligand_id>  (194) 
51

>  <original_smiles>  (194) 
COC12COC3OC4C5CC(C6C5C(O)(C46)C3(C)O1)C2CCO

>  <smiles>  (194) 
[H]OC([H])([H])C([H])([H])C1([H])C2(OC([H])([H])[H])OC3(C([H])([H])[H])C([H])(OC2([H])[H])OC2([H])C4([H])C([H])([H])C1([H])C1([H])C2([H])C3(O[H])C41[H]

$$$$
51:0:2
     RDKit          3D

 47 52  0  0  1  0  0  0  0  0999 V2000
    3.3838    0.3089    1.5868 C   0  0  0  0  0  0  0  0  0  0  0  0
    2.9582   -1.0652    1.5581 O   0  0  0  0  0  0  0  0  0  0  0  0
    3.9090   -2.1038    1.5438 C   0  0  1  0  0  0  0  0  0  0  0  0
    4.6572   -1.8873    2.9257 C   0  0  0  0  0  0  0  0  0  0  0  0
    4.9326   -3.0455    3.7630 O   0  0  0  0  0  0  0  0  0  0  0  0
    4.8517   -4.4046    3.3800 C   0  0  2  0  0  0  0  0  0  0  0  0
    6.1070   -5.0430    3.0700 O   0  0  0  0  0  0  0  0  0  0  0  0
    6.6723   -5.0127    1.7266 C   0  0  2  0  0  0  0  0  0  0  0  0
    6.2474   -3.7335    1.1766 C   0  0  1  0  0  0  0  0  0  0  0  0
    7.0338   -3.0739    0.0894 C   0  0  0  0  0  0  0  0  0  0  0  0
    5.8017   -3.1306   -0.7272 C   0  0  1  0  0  0  0  0  0  0  0  0
    5.5172   -4.7534   -0.6018 C   0  0  2  0  0  0  0  0  0  0  0  0
    4.8944   -4.3583    0.5185 C   0  0  1  0  0  0  0  0  0  0  0  0
    4.3464   -5.5229    1.1342 C   0  0  1  0  0  0  0  0  0  0  0  0
    3.3513   -6.2784    0.4795 O   0  0  0  0  0  0  0  0  0  0  0  0
    5.8170   -5.7196    0.6930 C   0  0  2  0  0  0  0  0  0  0  0  0
    3.7413   -4.6445    2.3029 C   0  0  1  0  0  0  0  0  0  0  0  0
    2.5691   -5.3475    3.0212 C   0  0  0  0  0  0  0  0  0  0  0  0
    3.1559   -3.3316    1.8227 O   0  0  0  0  0  0  0  0  0  0  0  0
    4.7292   -1.9388   -0.0236 C   0  0  1  0  0  0  0  0  0  0  0  0
    3.6494   -1.5891   -1.1057 C   0  0  0  0  0  0  0  0  0  0  0  0
    4.1620   -1.0067   -2.4349 C   0  0  0  0  0  0  0  0  0  0  0  0
    4.5016   -2.0085   -3.3625 O   0  0  0  0  0  0  0  0  0  0  0  0
    2.4921    0.9356    1.6843 H   0  0  0  0  0  0  0  0  0  0  0  0
    3.9005    0.6005    0.6706 H   0  0  0  0  0  0  0  0  0  0  0  0
    4.0325    0.5404    2.4331 H   0  0  0  0  0  0  0  0  0  0  0  0
    5.5355   -1.2514    2.8123 H   0  0  0  0  0  0  0  0  0  0  0  0
    3.9939   -1.3291    3.5937 H   0  0  0  0  0  0  0  0  0  0  0  0
    4.5803   -4.9072    4.3096 H   0  0  0  0  0  0  0  0  0  0  0  0
    7.7466   -5.1880    1.6473 H   0  0  0  0  0  0  0  0  0  0  0  0
    6.3430   -3.0147    1.9532 H   0  0  0  0  0  0  0  0  0  0  0  0
    7.3866   -2.0682    0.3261 H   0  0  0  0  0  0  0  0  0  0  0  0
    7.8240   -3.6982   -0.3171 H   0  0  0  0  0  0  0  0  0  0  0  0
    6.1172   -2.8582   -1.7381 H   0  0  0  0  0  0  0  0  0  0  0  0
    4.8370   -5.1989   -1.3248 H   0  0  0  0  0  0  0  0  0  0  0  0
    3.9794   -3.9927    0.0080 H   0  0  0  0  0  0  0  0  0  0  0  0
    3.4906   -6.1658   -0.4625 H   0  0  0  0  0  0  0  0  0  0  0  0
    6.0641   -6.7576    0.4739 H   0  0  0  0  0  0  0  0  0  0  0  0
    2.8641   -6.3213    3.4178 H   0  0  0  0  0  0  0  0  0  0  0  0
    1.7281   -5.5029    2.3473 H   0  0  0  0  0  0  0  0  0  0  0  0
    2.2133   -4.7406    3.8564 H   0  0  0  0  0  0  0  0  0  0  0  0
    5.3502   -1.0509    0.0914 H   0  0  0  0  0  0  0  0  0  0  0  0
    2.9521   -2.4143   -1.2700 H   0  0  0  0  0  0  0  0  0  0  0  0
    3.0216   -0.7911   -0.7428 H   0  0  0  0  0  0  0  0  0  0  0  0
    3.3752   -0.3985   -2.8828 H   0  0  0  0  0  0  0  0  0  0  0  0
    5.0085   -0.3388   -2.2624 H   0  0  0  0  0  0  0  0  0  0  0  0
    3.8703   -2.7180   -3.2548 H   0  0  0  0  0  0  0  0  0  0  0  0
  1  2  1  0
  1 24  1  0
  1 25  1  0
  1 26  1  0
  3  2  1  6
  3 19  1  0
  3 20  1  0
  3  4  1  0
  4  5  1  0
  4 27  1  0
  4 28  1  0
  5  6  1  0
  6 17  1  0
  6  7  1  0
  6 29  1  1
  7  8  1  0
  8 16  1  0
  8  9  1  0
  8 30  1  1
  9 13  1  0
  9 10  1  0
  9 31  1  1
 10 11  1  0
 10 32  1  0
 10 33  1  0
 11 12  1  0
 11 20  1  0
 11 34  1  6
 12 16  1  0
 12 13  1  0
 12 35  1  6
 13 14  1  0
 13 36  1  6
 14 15  1  6
 14 16  1  0
 14 17  1  0
 15 37  1  0
 16 38  1  6
 17 18  1  1
 17 19  1  0
 18 39  1  0
 18 40  1  0
 18 41  1  0
 20 21  1  0
 20 42  1  1
 21 22  1  0
 21 43  1  0
 21 44  1  0
 22 23  1  0
 22 45  1  0
 22 46  1  0
 23 47  1  0
M  END
>  <i_m_ct_stereo_status>  (195) 
1

>  <s_m_source_file>  (195) 
/var/tmp/pbs.5076255.sched01/tmpn9kf4o8v/46f5dlbpu8.sdf

>  <i_m_source_file_index>  (195) 
28

>  <i_lp_mmshare_version>  (195) 
48012

>  <i_f3d_flags>  (195) 
0

>  <s_epik_input>  (195) 
W0NIM11PW0NAQF0xMltDSDJdT1tDQEhdM1tDQF0oTzEpKFtDSDNdKVtDQEBdNChbT0hdKVtDQEhdNVtDSF02W0NAQEhdKE8zKVtDQEBIXTRbQ0hdNVtDQEhdKFtDSDJdNilbQ0BIXTJbQ0gyXVtDSDJdW09IXQ==

>  <s_epik_cmdline>  (195) 
J2VwaWtfcHl0aG9uJywgJy1waHQnLCAnMi4wJywgJy1waCcsICc3LjAnLCAnLXRuJywgJzgnLCAnLW1hJywgJzIwMCcsICctaW1hZScsICc8aW5maWxlLm1hZT4nLCAnLW9tYWUnLCAnPG91dGZpbGUubWFlPic=

>  <r_lp_tautomer_probability>  (195) 
1

>  <r_epik_Ionization_Penalty>  (195) 
4.58435e-07

>  <r_epik_Ionization_Penalty_Charging>  (195) 
0

>  <r_epik_Ionization_Penalty_Neutral>  (195) 
4.58435e-07

>  <r_epik_State_Penalty>  (195) 
-0

>  <r_epik_Charging_Adjusted_Penalty>  (195) 
0

>  <i_epik_Tot_Q>  (195) 
0

>  <i_epik_Tot_abs_Q>  (195) 
0

>  <s_epik_Chemistry_Notes>  (195) 
This compound contains an acetal/aminal-like group ( X-CH(R)-Y where X, Y are N, S, or O) that may be acid/base labile, releasing an aldehyde.

>  <s_lp_Force_Field>  (195) 
OPLS3e

>  <r_lp_Energy>  (195) 
340.797

>  <b_lp_Chiralities_Consistent>  (195) 
1

>  <s_lp_Variant>  (195) 
51:0-1

>  <s_i_glide_gridfile>  (195) 
pfpi4k_grid

>  <i_i_glide_lignum>  (195) 
28

>  <i_i_glide_rotatable_bonds>  (195) 
5

>  <r_i_docking_score>  (195) 
-2.91508

>  <r_i_glide_ligand_efficiency>  (195) 
-0.126743

>  <r_i_glide_ligand_efficiency_sa>  (195) 
-0.360439

>  <r_i_glide_ligand_efficiency_ln>  (195) 
-0.704893

>  <r_i_glide_gscore>  (195) 
-2.91508

>  <r_i_glide_lipo>  (195) 
-0.620905

>  <r_i_glide_hbond>  (195) 
0

>  <r_i_glide_metal>  (195) 
-0

>  <r_i_glide_rewards>  (195) 
-1.2093

>  <r_i_glide_evdw>  (195) 
-18.7021

>  <r_i_glide_ecoul>  (195) 
-3.34093

>  <r_i_glide_erotb>  (195) 
0.35597

>  <r_i_glide_esite>  (195) 
-0.00460486

>  <r_i_glide_emodel>  (195) 
-24.2616

>  <r_i_glide_energy>  (195) 
-22.043

>  <r_i_glide_einternal>  (195) 
4.42137

>  <r_i_glide_intrahb_reward>  (195) 
-0

>  <i_i_glide_confnum>  (195) 
6

>  <i_i_glide_posenum>  (195) 
20

>  <r_i_glide_eff_state_penalty>  (195) 
0

>  <ligand_id>  (195) 
51

>  <original_smiles>  (195) 
COC12COC3OC4C5CC(C6C5C(O)(C46)C3(C)O1)C2CCO

>  <smiles>  (195) 
[H]OC([H])([H])C([H])([H])C1([H])C2(OC([H])([H])[H])OC3(C([H])([H])[H])C([H])(OC2([H])[H])OC2([H])C4([H])C([H])([H])C1([H])C1([H])C2([H])C3(O[H])C41[H]

$$$$
52:0:0
     RDKit          3D

 40 46  0  0  1  0  0  0  0  0999 V2000
    2.1933   -5.0014   -0.3196 O   0  0  0  0  0  0  0  0  0  0  0  0
    3.5383   -4.8638    0.1050 C   0  0  1  0  0  0  0  0  0  0  0  0
    3.4418   -4.8763    1.7979 C   0  0  0  0  0  0  0  0  0  0  0  0
    4.5272   -3.9917    2.7597 C   0  0  0  0  0  0  0  0  0  0  0  0
    5.3070   -2.7830    1.9068 C   0  0  2  0  0  0  0  0  0  0  0  0
    4.0535   -2.4323    1.2838 C   0  0  1  0  0  0  0  0  0  0  0  0
    4.2402   -1.0725    0.5856 C   0  0  0  0  0  0  0  0  0  0  0  0
    4.1889   -1.4329   -0.8619 C   0  0  1  0  0  0  0  0  0  0  0  0
    5.4821   -1.8569   -1.5531 C   0  0  2  0  0  0  0  0  0  0  0  0
    4.8577   -2.4212   -2.8348 C   0  0  0  0  0  0  0  0  0  0  0  0
    3.8701   -3.3731   -2.1455 C   0  0  1  0  0  0  0  0  0  0  0  0
    4.6217   -4.2327   -1.2254 C   0  0  1  0  0  0  0  0  0  0  0  0
    6.0080   -3.1354   -0.8705 C   0  0  2  0  0  0  0  0  0  0  0  0
    6.3900   -2.9890    0.7090 N   0  0  2  0  0  0  0  0  0  0  0  0
    6.9234   -4.2732    0.9974 C   0  0  0  0  0  0  0  0  0  0  0  0
    5.6340   -4.9791    0.6873 C   0  0  0  0  0  0  0  0  0  0  0  0
    4.1325   -3.7240    0.3532 C   0  0  1  0  0  0  0  0  0  0  0  0
    3.4938   -2.7810   -0.8557 C   0  0  1  0  0  0  0  0  0  0  0  0
    2.2372   -5.3184   -1.2255 H   0  0  0  0  0  0  0  0  0  0  0  0
    2.4424   -4.5247    2.0680 H   0  0  0  0  0  0  0  0  0  0  0  0
    3.4185   -5.9134    2.1399 H   0  0  0  0  0  0  0  0  0  0  0  0
    3.9561   -3.5548    3.5821 H   0  0  0  0  0  0  0  0  0  0  0  0
    5.2328   -4.6476    3.2741 H   0  0  0  0  0  0  0  0  0  0  0  0
    5.6739   -2.0340    2.6088 H   0  0  0  0  0  0  0  0  0  0  0  0
    3.1646   -2.3464    1.9193 H   0  0  0  0  0  0  0  0  0  0  0  0
    3.4091   -0.4140    0.8345 H   0  0  0  0  0  0  0  0  0  0  0  0
    5.1590   -0.5376    0.8368 H   0  0  0  0  0  0  0  0  0  0  0  0
    3.6484   -0.6792   -1.4409 H   0  0  0  0  0  0  0  0  0  0  0  0
    6.2069   -1.0613   -1.7097 H   0  0  0  0  0  0  0  0  0  0  0  0
    4.3410   -1.6568   -3.4206 H   0  0  0  0  0  0  0  0  0  0  0  0
    5.5675   -2.9340   -3.4886 H   0  0  0  0  0  0  0  0  0  0  0  0
    3.0861   -3.8536   -2.7329 H   0  0  0  0  0  0  0  0  0  0  0  0
    4.9777   -5.0589   -1.8469 H   0  0  0  0  0  0  0  0  0  0  0  0
    6.8842   -3.4616   -1.4274 H   0  0  0  0  0  0  0  0  0  0  0  0
    7.7533   -4.5570    0.3515 H   0  0  0  0  0  0  0  0  0  0  0  0
    7.2397   -4.3617    2.0363 H   0  0  0  0  0  0  0  0  0  0  0  0
    5.8873   -5.7303   -0.0754 H   0  0  0  0  0  0  0  0  0  0  0  0
    5.5573   -5.7463    1.4618 H   0  0  0  0  0  0  0  0  0  0  0  0
    2.4175   -2.6301   -0.7698 H   0  0  0  0  0  0  0  0  0  0  0  0
    7.1170   -2.2945    0.8076 H   0  0  0  0  0  0  0  0  0  0  0  0
  2  1  1  6
  1 19  1  0
  2 12  1  0
  2 17  1  0
  2  3  1  0
  3  4  1  0
  3 20  1  0
  3 21  1  0
  4  5  1  0
  4 22  1  0
  4 23  1  0
  5 14  1  0
  5  6  1  0
  5 24  1  1
  6 17  1  0
  6  7  1  0
  6 25  1  1
  7  8  1  0
  7 26  1  0
  7 27  1  0
  8 18  1  0
  8  9  1  0
  8 28  1  6
  9 13  1  0
  9 10  1  0
  9 29  1  6
 10 11  1  0
 10 30  1  0
 10 31  1  0
 11 18  1  0
 11 12  1  0
 11 32  1  6
 12 13  1  0
 12 33  1  6
 13 14  1  0
 13 34  1  6
 14 15  1  0
 14 40  1  6
 15 16  1  0
 15 35  1  0
 15 36  1  0
 17 16  1  6
 16 37  1  0
 16 38  1  0
 17 18  1  0
 18 39  1  1
M  CHG  1  14   1
M  END
>  <i_m_ct_stereo_status>  (196) 
1

>  <s_m_source_file>  (196) 
/var/tmp/pbs.5076255.sched01/tmpn9kf4o8v/46f5dlbpu8.sdf

>  <i_m_source_file_index>  (196) 
29

>  <i_lp_mmshare_version>  (196) 
48012

>  <i_f3d_flags>  (196) 
0

>  <s_epik_input>  (196) 
W09IXVtDQF0xKFtDQEBdMjM0KVtDQEhdNVtDQEhdNltDQEBIXTRbQ0BASF03W0NASF0oW0NIMl02KVtDQEhdNU4oW0NIMl1bQ0gyXTMpW0NASF0oW0NIMl1bQ0gyXTEpW0NASF0yW0NIMl03

>  <s_epik_cmdline>  (196) 
J2VwaWtfcHl0aG9uJywgJy1waHQnLCAnMi4wJywgJy1waCcsICc3LjAnLCAnLXRuJywgJzgnLCAnLW1hJywgJzIwMCcsICctaW1hZScsICc8aW5maWxlLm1hZT4nLCAnLW9tYWUnLCAnPG91dGZpbGUubWFlPic=

>  <r_lp_tautomer_probability>  (196) 
1

>  <r_epik_Ionization_Penalty>  (196) 
5.32144e-05

>  <r_epik_Ionization_Penalty_Charging>  (196) 
5.31699e-05

>  <r_epik_Ionization_Penalty_Neutral>  (196) 
4.45835e-08

>  <r_epik_State_Penalty>  (196) 
-0

>  <r_epik_Charging_Adjusted_Penalty>  (196) 
5.31699e-05

>  <i_epik_Tot_Q>  (196) 
1

>  <i_epik_Tot_abs_Q>  (196) 
1

>  <s_lp_Force_Field>  (196) 
OPLS3e

>  <r_lp_Energy>  (196) 
577.209

>  <b_lp_Chiralities_Consistent>  (196) 
1

>  <s_lp_Variant>  (196) 
52:0-1

>  <s_i_glide_gridfile>  (196) 
pfpi4k_grid

>  <i_i_glide_lignum>  (196) 
29

>  <i_i_glide_rotatable_bonds>  (196) 
1

>  <r_i_docking_score>  (196) 
-4.34694

>  <r_i_glide_ligand_efficiency>  (196) 
-0.241497

>  <r_i_glide_ligand_efficiency_sa>  (196) 
-0.6329

>  <r_i_glide_ligand_efficiency_ln>  (196) 
-1.11736

>  <r_i_glide_gscore>  (196) 
-4.34694

>  <r_i_glide_lipo>  (196) 
-0.490963

>  <r_i_glide_hbond>  (196) 
-0.32

>  <r_i_glide_metal>  (196) 
-0

>  <r_i_glide_rewards>  (196) 
-1.74305

>  <r_i_glide_evdw>  (196) 
-18.7281

>  <r_i_glide_ecoul>  (196) 
-5.71011

>  <r_i_glide_erotb>  (196) 
0

>  <r_i_glide_esite>  (196) 
0

>  <r_i_glide_emodel>  (196) 
-31.8406

>  <r_i_glide_energy>  (196) 
-24.4382

>  <r_i_glide_einternal>  (196) 
0.369549

>  <r_i_glide_intrahb_reward>  (196) 
-0

>  <i_i_glide_confnum>  (196) 
2

>  <i_i_glide_posenum>  (196) 
19

>  <r_i_glide_eff_state_penalty>  (196) 
0

>  <ligand_id>  (196) 
52

>  <original_smiles>  (196) 
OC12CCC3C4CC5C6CC7C1C6N3CCC42C57

>  <smiles>  (196) 
[H]OC12C([H])([H])C([H])([H])C3([H])C4([H])C([H])([H])C5([H])C6([H])C7([H])C([H])([H])C5([H])C([H])(C71[H])[N+]3([H])C([H])([H])C([H])([H])C642

$$$$
52:0:1
     RDKit          3D

 40 46  0  0  1  0  0  0  0  0999 V2000
    6.7973   -4.2590    0.0513 O   0  0  0  0  0  0  0  0  0  0  0  0
    6.0218   -3.1660    0.4926 C   0  0  1  0  0  0  0  0  0  0  0  0
    5.4118   -3.6254    2.0035 C   0  0  0  0  0  0  0  0  0  0  0  0
    3.9086   -3.0725    2.5661 C   0  0  0  0  0  0  0  0  0  0  0  0
    2.9310   -2.5120    1.3399 C   0  0  2  0  0  0  0  0  0  0  0  0
    3.3128   -3.6511    0.5353 C   0  0  1  0  0  0  0  0  0  0  0  0
    2.3570   -3.7132   -0.6662 C   0  0  0  0  0  0  0  0  0  0  0  0
    3.2251   -3.3168   -1.8127 C   0  0  1  0  0  0  0  0  0  0  0  0
    3.4003   -1.8480   -2.1420 C   0  0  2  0  0  0  0  0  0  0  0  0
    4.5809   -2.0047   -3.1062 C   0  0  0  0  0  0  0  0  0  0  0  0
    5.4905   -2.8037   -2.1544 C   0  0  1  0  0  0  0  0  0  0  0  0
    5.6105   -2.0641   -0.8936 C   0  0  1  0  0  0  0  0  0  0  0  0
    4.0535   -1.1608   -0.9360 C   0  0  2  0  0  0  0  0  0  0  0  0
    3.1910   -1.1886    0.4378 N   0  0  2  0  0  0  0  0  0  0  0  0
    3.9826   -0.3777    1.2933 C   0  0  0  0  0  0  0  0  0  0  0  0
    5.1597   -1.3138    1.2160 C   0  0  0  0  0  0  0  0  0  0  0  0
    4.7412   -3.0052    0.2585 C   0  0  1  0  0  0  0  0  0  0  0  0
    4.6192   -3.6042   -1.2835 C   0  0  1  0  0  0  0  0  0  0  0  0
    6.2700   -5.0439    0.1153 H   0  0  0  0  0  0  0  0  0  0  0  0
    5.3578   -4.7154    2.0207 H   0  0  0  0  0  0  0  0  0  0  0  0
    6.1727   -3.4223    2.7552 H   0  0  0  0  0  0  0  0  0  0  0  0
    3.4244   -3.9081    3.0715 H   0  0  0  0  0  0  0  0  0  0  0  0
    4.0275   -2.3399    3.3637 H   0  0  0  0  0  0  0  0  0  0  0  0
    1.8944   -2.5333    1.6725 H   0  0  0  0  0  0  0  0  0  0  0  0
    3.3015   -4.6385    1.0089 H   0  0  0  0  0  0  0  0  0  0  0  0
    1.9890   -4.7333   -0.7935 H   0  0  0  0  0  0  0  0  0  0  0  0
    1.4839   -3.0654   -0.6150 H   0  0  0  0  0  0  0  0  0  0  0  0
    2.9572   -3.8464   -2.7258 H   0  0  0  0  0  0  0  0  0  0  0  0
    2.5211   -1.3658   -2.5698 H   0  0  0  0  0  0  0  0  0  0  0  0
    4.3252   -2.5807   -3.9981 H   0  0  0  0  0  0  0  0  0  0  0  0
    5.0067   -1.0489   -3.4222 H   0  0  0  0  0  0  0  0  0  0  0  0
    6.3950   -3.2807   -2.5308 H   0  0  0  0  0  0  0  0  0  0  0  0
    6.4367   -1.3770   -1.0600 H   0  0  0  0  0  0  0  0  0  0  0  0
    4.2395   -0.1386   -1.2388 H   0  0  0  0  0  0  0  0  0  0  0  0
    4.1814    0.6146    0.8937 H   0  0  0  0  0  0  0  0  0  0  0  0
    3.5529   -0.2801    2.2854 H   0  0  0  0  0  0  0  0  0  0  0  0
    5.9996   -0.6942    0.8762 H   0  0  0  0  0  0  0  0  0  0  0  0
    5.5490   -1.3313    2.2351 H   0  0  0  0  0  0  0  0  0  0  0  0
    4.8066   -4.6758   -1.3616 H   0  0  0  0  0  0  0  0  0  0  0  0
    2.2937   -0.7632    0.2338 H   0  0  0  0  0  0  0  0  0  0  0  0
  2  1  1  6
  1 19  1  0
  2 12  1  0
  2 17  1  0
  2  3  1  0
  3  4  1  0
  3 20  1  0
  3 21  1  0
  4  5  1  0
  4 22  1  0
  4 23  1  0
  5 14  1  0
  5  6  1  0
  5 24  1  1
  6 17  1  0
  6  7  1  0
  6 25  1  1
  7  8  1  0
  7 26  1  0
  7 27  1  0
  8 18  1  0
  8  9  1  0
  8 28  1  6
  9 13  1  0
  9 10  1  0
  9 29  1  6
 10 11  1  0
 10 30  1  0
 10 31  1  0
 11 18  1  0
 11 12  1  0
 11 32  1  6
 12 13  1  0
 12 33  1  6
 13 14  1  0
 13 34  1  6
 14 15  1  0
 14 40  1  6
 15 16  1  0
 15 35  1  0
 15 36  1  0
 17 16  1  6
 16 37  1  0
 16 38  1  0
 17 18  1  0
 18 39  1  1
M  CHG  1  14   1
M  END
>  <i_m_ct_stereo_status>  (197) 
1

>  <s_m_source_file>  (197) 
/var/tmp/pbs.5076255.sched01/tmpn9kf4o8v/46f5dlbpu8.sdf

>  <i_m_source_file_index>  (197) 
29

>  <i_lp_mmshare_version>  (197) 
48012

>  <i_f3d_flags>  (197) 
0

>  <s_epik_input>  (197) 
W09IXVtDQF0xKFtDQEBdMjM0KVtDQEhdNVtDQEhdNltDQEBIXTRbQ0BASF03W0NASF0oW0NIMl02KVtDQEhdNU4oW0NIMl1bQ0gyXTMpW0NASF0oW0NIMl1bQ0gyXTEpW0NASF0yW0NIMl03

>  <s_epik_cmdline>  (197) 
J2VwaWtfcHl0aG9uJywgJy1waHQnLCAnMi4wJywgJy1waCcsICc3LjAnLCAnLXRuJywgJzgnLCAnLW1hJywgJzIwMCcsICctaW1hZScsICc8aW5maWxlLm1hZT4nLCAnLW9tYWUnLCAnPG91dGZpbGUubWFlPic=

>  <r_lp_tautomer_probability>  (197) 
1

>  <r_epik_Ionization_Penalty>  (197) 
5.32144e-05

>  <r_epik_Ionization_Penalty_Charging>  (197) 
5.31699e-05

>  <r_epik_Ionization_Penalty_Neutral>  (197) 
4.45835e-08

>  <r_epik_State_Penalty>  (197) 
-0

>  <r_epik_Charging_Adjusted_Penalty>  (197) 
5.31699e-05

>  <i_epik_Tot_Q>  (197) 
1

>  <i_epik_Tot_abs_Q>  (197) 
1

>  <s_lp_Force_Field>  (197) 
OPLS3e

>  <r_lp_Energy>  (197) 
577.209

>  <b_lp_Chiralities_Consistent>  (197) 
1

>  <s_lp_Variant>  (197) 
52:0-1

>  <s_i_glide_gridfile>  (197) 
pfpi4k_grid

>  <i_i_glide_lignum>  (197) 
29

>  <i_i_glide_rotatable_bonds>  (197) 
1

>  <r_i_docking_score>  (197) 
-4.17654

>  <r_i_glide_ligand_efficiency>  (197) 
-0.23203

>  <r_i_glide_ligand_efficiency_sa>  (197) 
-0.608091

>  <r_i_glide_ligand_efficiency_ln>  (197) 
-1.07356

>  <r_i_glide_gscore>  (197) 
-4.17654

>  <r_i_glide_lipo>  (197) 
-0.50198

>  <r_i_glide_hbond>  (197) 
-0.172815

>  <r_i_glide_metal>  (197) 
-0

>  <r_i_glide_rewards>  (197) 
-1.74305

>  <r_i_glide_evdw>  (197) 
-20.5157

>  <r_i_glide_ecoul>  (197) 
-4.30817

>  <r_i_glide_erotb>  (197) 
0

>  <r_i_glide_esite>  (197) 
-0.0866784

>  <r_i_glide_emodel>  (197) 
-32.1149

>  <r_i_glide_energy>  (197) 
-24.8239

>  <r_i_glide_einternal>  (197) 
0.00169793

>  <r_i_glide_intrahb_reward>  (197) 
-0

>  <i_i_glide_confnum>  (197) 
2

>  <i_i_glide_posenum>  (197) 
9

>  <r_i_glide_eff_state_penalty>  (197) 
0

>  <ligand_id>  (197) 
52

>  <original_smiles>  (197) 
OC12CCC3C4CC5C6CC7C1C6N3CCC42C57

>  <smiles>  (197) 
[H]OC12C([H])([H])C([H])([H])C3([H])C4([H])C([H])([H])C5([H])C6([H])C7([H])C([H])([H])C5([H])C([H])(C71[H])[N+]3([H])C([H])([H])C([H])([H])C642

$$$$
52:0:2
     RDKit          3D

 40 46  0  0  1  0  0  0  0  0999 V2000
    7.3863   -4.4538    0.5090 O   0  0  0  0  0  0  0  0  0  0  0  0
    6.2961   -3.9324   -0.2292 C   0  0  1  0  0  0  0  0  0  0  0  0
    6.7216   -2.3347   -0.5618 C   0  0  0  0  0  0  0  0  0  0  0  0
    5.5510   -1.1063   -0.6831 C   0  0  0  0  0  0  0  0  0  0  0  0
    4.1004   -1.5148    0.0241 C   0  0  2  0  0  0  0  0  0  0  0  0
    4.8315   -2.0553    1.1475 C   0  0  1  0  0  0  0  0  0  0  0  0
    3.8142   -2.2983    2.2689 C   0  0  0  0  0  0  0  0  0  0  0  0
    3.7452   -3.7892    2.3367 C   0  0  1  0  0  0  0  0  0  0  0  0
    2.7696   -4.5108    1.4167 C   0  0  2  0  0  0  0  0  0  0  0  0
    3.3110   -5.9364    1.6108 C   0  0  0  0  0  0  0  0  0  0  0  0
    4.7745   -5.6171    1.2563 C   0  0  1  0  0  0  0  0  0  0  0  0
    4.8069   -4.9596   -0.0529 C   0  0  1  0  0  0  0  0  0  0  0  0
    3.1584   -4.2127   -0.0473 C   0  0  2  0  0  0  0  0  0  0  0  0
    3.0902   -2.6623   -0.4919 N   0  0  2  0  0  0  0  0  0  0  0  0
    3.3839   -2.7451   -1.8723 C   0  0  0  0  0  0  0  0  0  0  0  0
    4.7520   -3.3194   -1.6306 C   0  0  0  0  0  0  0  0  0  0  0  0
    5.2520   -3.3273    0.2904 C   0  0  1  0  0  0  0  0  0  0  0  0
    5.0327   -4.2250    1.6625 C   0  0  1  0  0  0  0  0  0  0  0  0
    7.0722   -5.0917    1.1364 H   0  0  0  0  0  0  0  0  0  0  0  0
    7.4165   -2.0210    0.2222 H   0  0  0  0  0  0  0  0  0  0  0  0
    7.3646   -2.3265   -1.4431 H   0  0  0  0  0  0  0  0  0  0  0  0
    5.9689   -0.2323   -0.1890 H   0  0  0  0  0  0  0  0  0  0  0  0
    5.4290   -0.7706   -1.7136 H   0  0  0  0  0  0  0  0  0  0  0  0
    3.5578   -0.6025    0.2487 H   0  0  0  0  0  0  0  0  0  0  0  0
    5.6469   -1.4593    1.5717 H   0  0  0  0  0  0  0  0  0  0  0  0
    4.1965   -1.8994    3.2085 H   0  0  0  0  0  0  0  0  0  0  0  0
    2.8256   -1.8576    2.1133 H   0  0  0  0  0  0  0  0  0  0  0  0
    3.6614   -4.1411    3.3679 H   0  0  0  0  0  0  0  0  0  0  0  0
    1.7209   -4.3959    1.6867 H   0  0  0  0  0  0  0  0  0  0  0  0
    3.2101   -6.2922    2.6420 H   0  0  0  0  0  0  0  0  0  0  0  0
    2.8619   -6.6798    0.9469 H   0  0  0  0  0  0  0  0  0  0  0  0
    5.5546   -6.3512    1.4586 H   0  0  0  0  0  0  0  0  0  0  0  0
    4.8288   -5.7880   -0.7671 H   0  0  0  0  0  0  0  0  0  0  0  0
    2.4996   -4.8034   -0.6687 H   0  0  0  0  0  0  0  0  0  0  0  0
    2.7267   -3.4069   -2.4288 H   0  0  0  0  0  0  0  0  0  0  0  0
    3.3848   -1.7746   -2.3528 H   0  0  0  0  0  0  0  0  0  0  0  0
    4.7843   -4.2569   -2.2030 H   0  0  0  0  0  0  0  0  0  0  0  0
    5.3790   -2.8226   -2.3669 H   0  0  0  0  0  0  0  0  0  0  0  0
    5.8435   -4.1275    2.3831 H   0  0  0  0  0  0  0  0  0  0  0  0
    2.1547   -2.2925   -0.4105 H   0  0  0  0  0  0  0  0  0  0  0  0
  2  1  1  1
  1 19  1  0
  2 12  1  0
  2 17  1  0
  2  3  1  0
  3  4  1  0
  3 20  1  0
  3 21  1  0
  4  5  1  0
  4 22  1  0
  4 23  1  0
  5 14  1  0
  5  6  1  0
  5 24  1  1
  6 17  1  0
  6  7  1  0
  6 25  1  1
  7  8  1  0
  7 26  1  0
  7 27  1  0
  8 18  1  0
  8  9  1  0
  8 28  1  1
  9 13  1  0
  9 10  1  0
  9 29  1  1
 10 11  1  0
 10 30  1  0
 10 31  1  0
 11 18  1  0
 11 12  1  0
 11 32  1  6
 12 13  1  0
 12 33  1  6
 13 14  1  0
 13 34  1  6
 14 15  1  0
 14 40  1  6
 15 16  1  0
 15 35  1  0
 15 36  1  0
 17 16  1  6
 16 37  1  0
 16 38  1  0
 17 18  1  0
 18 39  1  1
M  CHG  1  14   1
M  END
>  <i_m_ct_stereo_status>  (198) 
1

>  <s_m_source_file>  (198) 
/var/tmp/pbs.5076255.sched01/tmpn9kf4o8v/46f5dlbpu8.sdf

>  <i_m_source_file_index>  (198) 
29

>  <i_lp_mmshare_version>  (198) 
48012

>  <i_f3d_flags>  (198) 
0

>  <s_epik_input>  (198) 
W09IXVtDQF0xKFtDQEBdMjM0KVtDQEhdNVtDQEhdNltDQEBIXTRbQ0BASF03W0NASF0oW0NIMl02KVtDQEhdNU4oW0NIMl1bQ0gyXTMpW0NASF0oW0NIMl1bQ0gyXTEpW0NASF0yW0NIMl03

>  <s_epik_cmdline>  (198) 
J2VwaWtfcHl0aG9uJywgJy1waHQnLCAnMi4wJywgJy1waCcsICc3LjAnLCAnLXRuJywgJzgnLCAnLW1hJywgJzIwMCcsICctaW1hZScsICc8aW5maWxlLm1hZT4nLCAnLW9tYWUnLCAnPG91dGZpbGUubWFlPic=

>  <r_lp_tautomer_probability>  (198) 
1

>  <r_epik_Ionization_Penalty>  (198) 
5.32144e-05

>  <r_epik_Ionization_Penalty_Charging>  (198) 
5.31699e-05

>  <r_epik_Ionization_Penalty_Neutral>  (198) 
4.45835e-08

>  <r_epik_State_Penalty>  (198) 
-0

>  <r_epik_Charging_Adjusted_Penalty>  (198) 
5.31699e-05

>  <i_epik_Tot_Q>  (198) 
1

>  <i_epik_Tot_abs_Q>  (198) 
1

>  <s_lp_Force_Field>  (198) 
OPLS3e

>  <r_lp_Energy>  (198) 
577.209

>  <b_lp_Chiralities_Consistent>  (198) 
1

>  <s_lp_Variant>  (198) 
52:0-1

>  <s_i_glide_gridfile>  (198) 
pfpi4k_grid

>  <i_i_glide_lignum>  (198) 
29

>  <i_i_glide_rotatable_bonds>  (198) 
1

>  <r_i_docking_score>  (198) 
-4.04689

>  <r_i_glide_ligand_efficiency>  (198) 
-0.224827

>  <r_i_glide_ligand_efficiency_sa>  (198) 
-0.589214

>  <r_i_glide_ligand_efficiency_ln>  (198) 
-1.04023

>  <r_i_glide_gscore>  (198) 
-4.04689

>  <r_i_glide_lipo>  (198) 
-0.29124

>  <r_i_glide_hbond>  (198) 
-0.2

>  <r_i_glide_metal>  (198) 
-0

>  <r_i_glide_rewards>  (198) 
-1.74305

>  <r_i_glide_evdw>  (198) 
-19.9375

>  <r_i_glide_ecoul>  (198) 
-5.11068

>  <r_i_glide_erotb>  (198) 
0

>  <r_i_glide_esite>  (198) 
-0.049118

>  <r_i_glide_emodel>  (198) 
-32.0055

>  <r_i_glide_energy>  (198) 
-25.0482

>  <r_i_glide_einternal>  (198) 
0.191788

>  <r_i_glide_intrahb_reward>  (198) 
-0

>  <i_i_glide_confnum>  (198) 
1

>  <i_i_glide_posenum>  (198) 
1

>  <r_i_glide_eff_state_penalty>  (198) 
0

>  <ligand_id>  (198) 
52

>  <original_smiles>  (198) 
OC12CCC3C4CC5C6CC7C1C6N3CCC42C57

>  <smiles>  (198) 
[H]OC12C([H])([H])C([H])([H])C3([H])C4([H])C([H])([H])C5([H])C6([H])C7([H])C([H])([H])C5([H])C([H])(C71[H])[N+]3([H])C([H])([H])C([H])([H])C642

$$$$
53:0:0
     RDKit          3D

 14 15  0  0  1  0  0  0  0  0999 V2000
    2.6558   -2.3810   -3.5205 C   0  0  0  0  0  0  0  0  0  0  0  0
    3.4518   -1.2139   -3.6259 C   0  0  0  0  0  0  0  0  0  0  0  0
    4.2199   -0.6829   -2.6762 N   0  0  0  0  0  0  0  0  0  0  0  0
    4.1570   -1.3936   -1.5159 N   0  0  0  0  0  0  0  0  0  0  0  0
    4.8338   -1.0945   -0.3459 C   0  0  0  0  0  0  0  0  0  0  0  0
    4.4891   -2.0580    0.5630 C   0  0  0  0  0  0  0  0  0  0  0  0
    3.6133   -2.9766   -0.0009 N   0  0  0  0  0  0  0  0  0  0  0  0
    3.4128   -2.5685   -1.2526 C   0  0  0  0  0  0  0  0  0  0  0  0
    2.6283   -3.0567   -2.3266 C   0  0  0  0  0  0  0  0  0  0  0  0
    2.0520   -2.7346   -4.3473 H   0  0  0  0  0  0  0  0  0  0  0  0
    3.4500   -0.6785   -4.5701 H   0  0  0  0  0  0  0  0  0  0  0  0
    5.4617   -0.2213   -0.2947 H   0  0  0  0  0  0  0  0  0  0  0  0
    4.8047   -2.1677    1.5934 H   0  0  0  0  0  0  0  0  0  0  0  0
    2.0275   -3.9497   -2.2014 H   0  0  0  0  0  0  0  0  0  0  0  0
  1  9  2  0
  1  2  1  0
  1 10  1  0
  2  3  2  0
  2 11  1  0
  3  4  1  0
  4  8  1  0
  4  5  1  0
  5  6  2  0
  5 12  1  0
  6  7  1  0
  6 13  1  0
  7  8  2  0
  8  9  1  0
  9 14  1  0
M  END
>  <i_m_ct_stereo_status>  (199) 
1

>  <s_m_source_file>  (199) 
/var/tmp/pbs.5076255.sched01/tmpn9kf4o8v/46f5dlbpu8.sdf

>  <i_m_source_file_index>  (199) 
30

>  <i_lp_mmshare_version>  (199) 
48012

>  <i_f3d_flags>  (199) 
0

>  <s_epik_input>  (199) 
bjFbY0hdW2NIXVtjSF1jKG4xMiluW2NIXVtjSF0y

>  <s_epik_cmdline>  (199) 
J2VwaWtfcHl0aG9uJywgJy1waHQnLCAnMi4wJywgJy1waCcsICc3LjAnLCAnLXRuJywgJzgnLCAnLW1hJywgJzIwMCcsICctaW1hZScsICc8aW5maWxlLm1hZT4nLCAnLW9tYWUnLCAnPG91dGZpbGUubWFlPic=

>  <r_lp_tautomer_probability>  (199) 
1

>  <r_epik_Ionization_Penalty>  (199) 
0.00304482

>  <r_epik_Ionization_Penalty_Charging>  (199) 
0

>  <r_epik_Ionization_Penalty_Neutral>  (199) 
0.00304482

>  <r_epik_State_Penalty>  (199) 
0.00214

>  <r_epik_Charging_Adjusted_Penalty>  (199) 
0.00214

>  <i_epik_Tot_Q>  (199) 
0

>  <i_epik_Tot_abs_Q>  (199) 
0

>  <s_lp_Force_Field>  (199) 
OPLS3e

>  <r_lp_Energy>  (199) 
13.0914

>  <b_lp_Chiralities_Consistent>  (199) 
1

>  <s_lp_Variant>  (199) 
53:0-1

>  <s_i_glide_gridfile>  (199) 
pfpi4k_grid

>  <i_i_glide_lignum>  (199) 
30

>  <i_i_glide_rotatable_bonds>  (199) 
0

>  <r_i_docking_score>  (199) 
-3.91486

>  <r_i_glide_ligand_efficiency>  (199) 
-0.434984

>  <r_i_glide_ligand_efficiency_sa>  (199) 
-0.904803

>  <r_i_glide_ligand_efficiency_ln>  (199) 
-1.22445

>  <r_i_glide_gscore>  (199) 
-3.91486

>  <r_i_glide_lipo>  (199) 
-0.483009

>  <r_i_glide_hbond>  (199) 
0

>  <r_i_glide_metal>  (199) 
-0

>  <r_i_glide_rewards>  (199) 
-2.25

>  <r_i_glide_evdw>  (199) 
-16.8221

>  <r_i_glide_ecoul>  (199) 
-1.68112

>  <r_i_glide_erotb>  (199) 
0

>  <r_i_glide_esite>  (199) 
-0.0885746

>  <r_i_glide_emodel>  (199) 
-23.3982

>  <r_i_glide_energy>  (199) 
-18.5032

>  <r_i_glide_einternal>  (199) 
0

>  <r_i_glide_intrahb_reward>  (199) 
-0

>  <i_i_glide_confnum>  (199) 
2

>  <i_i_glide_posenum>  (199) 
19

>  <r_i_glide_eff_state_penalty>  (199) 
0

>  <ligand_id>  (199) 
53

>  <original_smiles>  (199) 
c1cnn2ccnc2c1

>  <smiles>  (199) 
[H]c1nn2c([H])c([H])nc2c([H])c1[H]

$$$$
53:0:1
     RDKit          3D

 14 15  0  0  1  0  0  0  0  0999 V2000
   -1.0747    1.7931    3.2049 C   0  0  0  0  0  0  0  0  0  0  0  0
   -1.4551    3.1480    3.3649 C   0  0  0  0  0  0  0  0  0  0  0  0
   -1.8932    3.7258    4.4844 N   0  0  0  0  0  0  0  0  0  0  0  0
   -1.9458    2.8461    5.5230 N   0  0  0  0  0  0  0  0  0  0  0  0
   -2.3554    3.1420    6.8120 C   0  0  0  0  0  0  0  0  0  0  0  0
   -2.2527    1.9847    7.5326 C   0  0  0  0  0  0  0  0  0  0  0  0
   -1.8044    0.9394    6.7331 N   0  0  0  0  0  0  0  0  0  0  0  0
   -1.6068    1.4701    5.5234 C   0  0  0  0  0  0  0  0  0  0  0  0
   -1.1489    0.9457    4.2859 C   0  0  0  0  0  0  0  0  0  0  0  0
   -0.7341    1.4349    2.2372 H   0  0  0  0  0  0  0  0  0  0  0  0
   -1.3855    3.8019    2.4972 H   0  0  0  0  0  0  0  0  0  0  0  0
   -2.6666    4.1415    7.0746 H   0  0  0  0  0  0  0  0  0  0  0  0
   -2.4804    1.8157    8.5757 H   0  0  0  0  0  0  0  0  0  0  0  0
   -0.8691   -0.0981    4.2024 H   0  0  0  0  0  0  0  0  0  0  0  0
  1  9  2  0
  1  2  1  0
  1 10  1  0
  2  3  2  0
  2 11  1  0
  3  4  1  0
  4  8  1  0
  4  5  1  0
  5  6  2  0
  5 12  1  0
  6  7  1  0
  6 13  1  0
  7  8  2  0
  8  9  1  0
  9 14  1  0
M  END
>  <i_m_ct_stereo_status>  (200) 
1

>  <s_m_source_file>  (200) 
/var/tmp/pbs.5076255.sched01/tmpn9kf4o8v/46f5dlbpu8.sdf

>  <i_m_source_file_index>  (200) 
30

>  <i_lp_mmshare_version>  (200) 
48012

>  <i_f3d_flags>  (200) 
0

>  <s_epik_input>  (200) 
bjFbY0hdW2NIXVtjSF1jKG4xMiluW2NIXVtjSF0y

>  <s_epik_cmdline>  (200) 
J2VwaWtfcHl0aG9uJywgJy1waHQnLCAnMi4wJywgJy1waCcsICc3LjAnLCAnLXRuJywgJzgnLCAnLW1hJywgJzIwMCcsICctaW1hZScsICc8aW5maWxlLm1hZT4nLCAnLW9tYWUnLCAnPG91dGZpbGUubWFlPic=

>  <r_lp_tautomer_probability>  (200) 
1

>  <r_epik_Ionization_Penalty>  (200) 
0.00304482

>  <r_epik_Ionization_Penalty_Charging>  (200) 
0

>  <r_epik_Ionization_Penalty_Neutral>  (200) 
0.00304482

>  <r_epik_State_Penalty>  (200) 
0.00214

>  <r_epik_Charging_Adjusted_Penalty>  (200) 
0.00214

>  <i_epik_Tot_Q>  (200) 
0

>  <i_epik_Tot_abs_Q>  (200) 
0

>  <s_lp_Force_Field>  (200) 
OPLS3e

>  <r_lp_Energy>  (200) 
13.0914

>  <b_lp_Chiralities_Consistent>  (200) 
1

>  <s_lp_Variant>  (200) 
53:0-1

>  <s_i_glide_gridfile>  (200) 
pfpi4k_grid

>  <i_i_glide_lignum>  (200) 
30

>  <i_i_glide_rotatable_bonds>  (200) 
0

>  <r_i_docking_score>  (200) 
-3.85973

>  <r_i_glide_ligand_efficiency>  (200) 
-0.428858

>  <r_i_glide_ligand_efficiency_sa>  (200) 
-0.892061

>  <r_i_glide_ligand_efficiency_ln>  (200) 
-1.20721

>  <r_i_glide_gscore>  (200) 
-3.85973

>  <r_i_glide_lipo>  (200) 
-0.109858

>  <r_i_glide_hbond>  (200) 
-0.151913

>  <r_i_glide_metal>  (200) 
-0

>  <r_i_glide_rewards>  (200) 
-2.29825

>  <r_i_glide_evdw>  (200) 
-12.428

>  <r_i_glide_ecoul>  (200) 
-4.36498

>  <r_i_glide_erotb>  (200) 
0

>  <r_i_glide_esite>  (200) 
-0.0235586

>  <r_i_glide_emodel>  (200) 
-21.6212

>  <r_i_glide_energy>  (200) 
-16.793

>  <r_i_glide_einternal>  (200) 
0

>  <r_i_glide_intrahb_reward>  (200) 
-0

>  <i_i_glide_confnum>  (200) 
2

>  <i_i_glide_posenum>  (200) 
17

>  <r_i_glide_eff_state_penalty>  (200) 
0

>  <ligand_id>  (200) 
53

>  <original_smiles>  (200) 
c1cnn2ccnc2c1

>  <smiles>  (200) 
[H]c1nn2c([H])c([H])nc2c([H])c1[H]

$$$$
53:0:2
     RDKit          3D

 14 15  0  0  1  0  0  0  0  0999 V2000
    2.9946   -2.0828   -3.5933 C   0  0  0  0  0  0  0  0  0  0  0  0
    3.9135   -1.1268   -3.1023 C   0  0  0  0  0  0  0  0  0  0  0  0
    4.4253   -1.0674   -1.8736 N   0  0  0  0  0  0  0  0  0  0  0  0
    3.9233   -2.0444   -1.0684 N   0  0  0  0  0  0  0  0  0  0  0  0
    4.2498   -2.2368    0.2617 C   0  0  0  0  0  0  0  0  0  0  0  0
    3.5339   -3.3248    0.6859 C   0  0  0  0  0  0  0  0  0  0  0  0
    2.7497   -3.8348   -0.3412 N   0  0  0  0  0  0  0  0  0  0  0  0
    2.9976   -3.0615   -1.4020 C   0  0  0  0  0  0  0  0  0  0  0  0
    2.5318   -3.0561   -2.7422 C   0  0  0  0  0  0  0  0  0  0  0  0
    2.6260   -2.0380   -4.6120 H   0  0  0  0  0  0  0  0  0  0  0  0
    4.2530   -0.3517   -3.7818 H   0  0  0  0  0  0  0  0  0  0  0  0
    4.9470   -1.5744    0.7488 H   0  0  0  0  0  0  0  0  0  0  0  0
    3.5180   -3.7921    1.6621 H   0  0  0  0  0  0  0  0  0  0  0  0
    1.8270   -3.8136   -3.0692 H   0  0  0  0  0  0  0  0  0  0  0  0
  1  9  2  0
  1  2  1  0
  1 10  1  0
  2  3  2  0
  2 11  1  0
  3  4  1  0
  4  8  1  0
  4  5  1  0
  5  6  2  0
  5 12  1  0
  6  7  1  0
  6 13  1  0
  7  8  2  0
  8  9  1  0
  9 14  1  0
M  END
>  <i_m_ct_stereo_status>  (201) 
1

>  <s_m_source_file>  (201) 
/var/tmp/pbs.5076255.sched01/tmpn9kf4o8v/46f5dlbpu8.sdf

>  <i_m_source_file_index>  (201) 
30

>  <i_lp_mmshare_version>  (201) 
48012

>  <i_f3d_flags>  (201) 
0

>  <s_epik_input>  (201) 
bjFbY0hdW2NIXVtjSF1jKG4xMiluW2NIXVtjSF0y

>  <s_epik_cmdline>  (201) 
J2VwaWtfcHl0aG9uJywgJy1waHQnLCAnMi4wJywgJy1waCcsICc3LjAnLCAnLXRuJywgJzgnLCAnLW1hJywgJzIwMCcsICctaW1hZScsICc8aW5maWxlLm1hZT4nLCAnLW9tYWUnLCAnPG91dGZpbGUubWFlPic=

>  <r_lp_tautomer_probability>  (201) 
1

>  <r_epik_Ionization_Penalty>  (201) 
0.00304482

>  <r_epik_Ionization_Penalty_Charging>  (201) 
0

>  <r_epik_Ionization_Penalty_Neutral>  (201) 
0.00304482

>  <r_epik_State_Penalty>  (201) 
0.00214

>  <r_epik_Charging_Adjusted_Penalty>  (201) 
0.00214

>  <i_epik_Tot_Q>  (201) 
0

>  <i_epik_Tot_abs_Q>  (201) 
0

>  <s_lp_Force_Field>  (201) 
OPLS3e

>  <r_lp_Energy>  (201) 
13.0914

>  <b_lp_Chiralities_Consistent>  (201) 
1

>  <s_lp_Variant>  (201) 
53:0-1

>  <s_i_glide_gridfile>  (201) 
pfpi4k_grid

>  <i_i_glide_lignum>  (201) 
30

>  <i_i_glide_rotatable_bonds>  (201) 
0

>  <r_i_docking_score>  (201) 
-3.65439

>  <r_i_glide_ligand_efficiency>  (201) 
-0.406043

>  <r_i_glide_ligand_efficiency_sa>  (201) 
-0.844604

>  <r_i_glide_ligand_efficiency_ln>  (201) 
-1.14299

>  <r_i_glide_gscore>  (201) 
-3.65439

>  <r_i_glide_lipo>  (201) 
-0.361239

>  <r_i_glide_hbond>  (201) 
0

>  <r_i_glide_metal>  (201) 
-0

>  <r_i_glide_rewards>  (201) 
-2.26252

>  <r_i_glide_evdw>  (201) 
-15.5884

>  <r_i_glide_ecoul>  (201) 
-1.38611

>  <r_i_glide_erotb>  (201) 
0

>  <r_i_glide_esite>  (201) 
-0.0432919

>  <r_i_glide_emodel>  (201) 
-21.5429

>  <r_i_glide_energy>  (201) 
-16.9745

>  <r_i_glide_einternal>  (201) 
0

>  <r_i_glide_intrahb_reward>  (201) 
-0

>  <i_i_glide_confnum>  (201) 
2

>  <i_i_glide_posenum>  (201) 
23

>  <r_i_glide_eff_state_penalty>  (201) 
0

>  <ligand_id>  (201) 
53

>  <original_smiles>  (201) 
c1cnn2ccnc2c1

>  <smiles>  (201) 
[H]c1nn2c([H])c([H])nc2c([H])c1[H]

$$$$
55:0:0
     RDKit          3D

 28 30  0  0  1  0  0  0  0  0999 V2000
    2.2799   -3.1826   -3.7580 C   0  0  0  0  0  0  0  0  0  0  0  0
    3.1290   -2.8408   -2.5945 N   0  0  2  0  0  0  0  0  0  0  0  0
    3.4997   -1.4186   -2.5259 C   0  0  0  0  0  0  0  0  0  0  0  0
    4.9000   -1.3988   -1.9196 C   0  0  1  0  0  0  0  0  0  0  0  0
    4.9467   -1.4184   -0.4165 C   0  0  0  0  0  0  0  0  0  0  0  0
    4.3306   -0.6788    0.5564 C   0  0  0  0  0  0  0  0  0  0  0  0
    4.9161   -1.1650    1.7655 C   0  0  0  0  0  0  0  0  0  0  0  0
    5.8027   -2.1237    1.5579 N   0  0  0  0  0  0  0  0  0  0  0  0
    5.8132   -2.2739    0.2242 N   0  0  0  0  0  0  0  0  0  0  0  0
    6.6306   -3.2811   -0.4113 C   0  0  0  0  0  0  0  0  0  0  0  0
    6.7362   -3.0145   -1.9310 C   0  0  0  0  0  0  0  0  0  0  0  0
    5.4566   -2.6062   -2.5292 N   0  0  0  0  0  0  0  0  0  0  0  0
    4.3940   -3.6116   -2.5305 C   0  0  0  0  0  0  0  0  0  0  0  0
    2.7841   -2.9992   -4.7105 H   0  0  0  0  0  0  0  0  0  0  0  0
    1.3523   -2.6096   -3.7495 H   0  0  0  0  0  0  0  0  0  0  0  0
    2.0209   -4.2384   -3.7220 H   0  0  0  0  0  0  0  0  0  0  0  0
    3.5632   -1.0048   -3.5344 H   0  0  0  0  0  0  0  0  0  0  0  0
    2.7753   -0.8254   -1.9649 H   0  0  0  0  0  0  0  0  0  0  0  0
    5.4440   -0.5226   -2.2759 H   0  0  0  0  0  0  0  0  0  0  0  0
    3.5963    0.1025    0.4261 H   0  0  0  0  0  0  0  0  0  0  0  0
    4.7300   -0.8624    2.7864 H   0  0  0  0  0  0  0  0  0  0  0  0
    7.6237   -3.2722    0.0361 H   0  0  0  0  0  0  0  0  0  0  0  0
    6.1912   -4.2599   -0.2128 H   0  0  0  0  0  0  0  0  0  0  0  0
    7.4540   -2.2163   -2.1028 H   0  0  0  0  0  0  0  0  0  0  0  0
    7.1561   -3.8514   -2.4710 H   0  0  0  0  0  0  0  0  0  0  0  0
    4.3860   -4.2251   -1.6296 H   0  0  0  0  0  0  0  0  0  0  0  0
    4.5188   -4.2725   -3.3881 H   0  0  0  0  0  0  0  0  0  0  0  0
    2.6043   -3.0459   -1.7551 H   0  0  0  0  0  0  0  0  0  0  0  0
  1  2  1  0
  1 14  1  0
  1 15  1  0
  1 16  1  0
  2 13  1  0
  2  3  1  0
  2 28  1  1
  3  4  1  0
  3 17  1  0
  3 18  1  0
  4 12  1  0
  4  5  1  0
  4 19  1  6
  5  9  1  0
  5  6  2  0
  6  7  1  0
  6 20  1  0
  7  8  2  0
  7 21  1  0
  8  9  1  0
  9 10  1  0
 10 11  1  0
 10 22  1  0
 10 23  1  0
 11 12  1  0
 11 24  1  0
 11 25  1  0
 12 13  1  0
 13 26  1  0
 13 27  1  0
M  CHG  1   2   1
M  END
>  <i_m_ct_stereo_status>  (202) 
1

>  <s_m_source_file>  (202) 
/var/tmp/pbs.5076255.sched01/tmpn9kf4o8v/46f5dlbpu8.sdf

>  <i_m_source_file_index>  (202) 
32

>  <i_lp_mmshare_version>  (202) 
48012

>  <i_f3d_flags>  (202) 
0

>  <s_epik_input>  (202) 
W0NIM11OKFtDSDJdMSlbQ0gyXU4yW0NIMl1bQ0gyXW4oYzNbQ0BIXTEyKW5bY0hdW2NIXTM=

>  <s_epik_cmdline>  (202) 
J2VwaWtfcHl0aG9uJywgJy1waHQnLCAnMi4wJywgJy1waCcsICc3LjAnLCAnLXRuJywgJzgnLCAnLW1hJywgJzIwMCcsICctaW1hZScsICc8aW5maWxlLm1hZT4nLCAnLW9tYWUnLCAnPG91dGZpbGUubWFlPic=

>  <r_lp_tautomer_probability>  (202) 
1

>  <r_epik_Ionization_Penalty>  (202) 
0.0402055

>  <r_epik_Ionization_Penalty_Charging>  (202) 
0.00520656

>  <r_epik_Ionization_Penalty_Neutral>  (202) 
0.034999

>  <r_epik_State_Penalty>  (202) 
0.0470988

>  <r_epik_Charging_Adjusted_Penalty>  (202) 
0.0523054

>  <i_epik_Tot_Q>  (202) 
1

>  <i_epik_Tot_abs_Q>  (202) 
1

>  <s_epik_Chemistry_Notes>  (202) 
This compound contains an acetal/aminal-like group ( X-CH(R)-Y where X, Y are N, S, or O) that may be acid/base labile, releasing an aldehyde.

>  <s_lp_Force_Field>  (202) 
OPLS3e

>  <r_lp_Energy>  (202) 
20.2399

>  <b_lp_Chiralities_Consistent>  (202) 
1

>  <s_lp_Variant>  (202) 
55:0-1

>  <s_i_glide_gridfile>  (202) 
pfpi4k_grid

>  <i_i_glide_lignum>  (202) 
32

>  <i_i_glide_rotatable_bonds>  (202) 
0

>  <r_i_docking_score>  (202) 
-4.31726

>  <r_i_glide_ligand_efficiency>  (202) 
-0.332097

>  <r_i_glide_ligand_efficiency_sa>  (202) 
-0.780871

>  <r_i_glide_ligand_efficiency_ln>  (202) 
-1.21103

>  <r_i_glide_gscore>  (202) 
-4.31726

>  <r_i_glide_lipo>  (202) 
-0.478448

>  <r_i_glide_hbond>  (202) 
0

>  <r_i_glide_metal>  (202) 
-0

>  <r_i_glide_rewards>  (202) 
-2.23077

>  <r_i_glide_evdw>  (202) 
-18.1905

>  <r_i_glide_ecoul>  (202) 
-4.23327

>  <r_i_glide_erotb>  (202) 
0

>  <r_i_glide_esite>  (202) 
-0.0635297

>  <r_i_glide_emodel>  (202) 
-29.3404

>  <r_i_glide_energy>  (202) 
-22.4237

>  <r_i_glide_einternal>  (202) 
0

>  <r_i_glide_intrahb_reward>  (202) 
-0

>  <i_i_glide_confnum>  (202) 
2

>  <i_i_glide_posenum>  (202) 
9

>  <r_i_glide_eff_state_penalty>  (202) 
0

>  <ligand_id>  (202) 
55

>  <original_smiles>  (202) 
CN1CC2c3ccnn3CCN2C1

>  <smiles>  (202) 
[H]c1nn2c(c1[H])C1([H])N(C([H])([H])C2([H])[H])C([H])([H])[N+]([H])(C([H])([H])[H])C1([H])[H]

$$$$
55:0:1
     RDKit          3D

 28 30  0  0  1  0  0  0  0  0999 V2000
    2.5724    0.0739    1.7744 C   0  0  0  0  0  0  0  0  0  0  0  0
    1.5619    0.8254    2.5591 N   0  0  2  0  0  0  0  0  0  0  0  0
    1.1634    2.1064    1.9558 C   0  0  0  0  0  0  0  0  0  0  0  0
    0.8674    3.0386    3.1292 C   0  0  1  0  0  0  0  0  0  0  0  0
   -0.5274    2.9380    3.6836 C   0  0  0  0  0  0  0  0  0  0  0  0
   -1.7686    2.9789    3.1220 C   0  0  0  0  0  0  0  0  0  0  0  0
   -2.6581    2.9337    4.2302 C   0  0  0  0  0  0  0  0  0  0  0  0
   -2.0246    2.8731    5.3907 N   0  0  0  0  0  0  0  0  0  0  0  0
   -0.7229    2.8655    5.0388 N   0  0  0  0  0  0  0  0  0  0  0  0
    0.3193    2.7460    6.0239 C   0  0  0  0  0  0  0  0  0  0  0  0
    1.6921    3.1259    5.4194 C   0  0  0  0  0  0  0  0  0  0  0  0
    1.8963    2.5871    4.0694 N   0  0  0  0  0  0  0  0  0  0  0  0
    1.9679    1.1331    3.9477 C   0  0  0  0  0  0  0  0  0  0  0  0
    3.5173    0.6186    1.6924 H   0  0  0  0  0  0  0  0  0  0  0  0
    2.2104   -0.1222    0.7638 H   0  0  0  0  0  0  0  0  0  0  0  0
    2.7842   -0.8914    2.2362 H   0  0  0  0  0  0  0  0  0  0  0  0
    2.0017    2.5224    1.4039 H   0  0  0  0  0  0  0  0  0  0  0  0
    0.3275    1.9930    1.2646 H   0  0  0  0  0  0  0  0  0  0  0  0
    1.0693    4.0773    2.8617 H   0  0  0  0  0  0  0  0  0  0  0  0
   -1.9993    3.0584    2.0786 H   0  0  0  0  0  0  0  0  0  0  0  0
   -3.7371    2.9488    4.2261 H   0  0  0  0  0  0  0  0  0  0  0  0
    0.0856    3.4008    6.8592 H   0  0  0  0  0  0  0  0  0  0  0  0
    0.3205    1.7200    6.3910 H   0  0  0  0  0  0  0  0  0  0  0  0
    1.7527    4.2115    5.3378 H   0  0  0  0  0  0  0  0  0  0  0  0
    2.5054    2.8256    6.0798 H   0  0  0  0  0  0  0  0  0  0  0  0
    1.2888    0.6181    4.6277 H   0  0  0  0  0  0  0  0  0  0  0  0
    2.9823    0.7959    4.1651 H   0  0  0  0  0  0  0  0  0  0  0  0
    0.7257    0.2516    2.5998 H   0  0  0  0  0  0  0  0  0  0  0  0
  1  2  1  0
  1 14  1  0
  1 15  1  0
  1 16  1  0
  2 13  1  0
  2  3  1  0
  2 28  1  1
  3  4  1  0
  3 17  1  0
  3 18  1  0
  4 12  1  0
  4  5  1  0
  4 19  1  6
  5  9  1  0
  5  6  2  0
  6  7  1  0
  6 20  1  0
  7  8  2  0
  7 21  1  0
  8  9  1  0
  9 10  1  0
 10 11  1  0
 10 22  1  0
 10 23  1  0
 11 12  1  0
 11 24  1  0
 11 25  1  0
 12 13  1  0
 13 26  1  0
 13 27  1  0
M  CHG  1   2   1
M  END
>  <i_m_ct_stereo_status>  (203) 
1

>  <s_m_source_file>  (203) 
/var/tmp/pbs.5076255.sched01/tmpn9kf4o8v/46f5dlbpu8.sdf

>  <i_m_source_file_index>  (203) 
32

>  <i_lp_mmshare_version>  (203) 
48012

>  <i_f3d_flags>  (203) 
0

>  <s_epik_input>  (203) 
W0NIM11OKFtDSDJdMSlbQ0gyXU4yW0NIMl1bQ0gyXW4oYzNbQ0BIXTEyKW5bY0hdW2NIXTM=

>  <s_epik_cmdline>  (203) 
J2VwaWtfcHl0aG9uJywgJy1waHQnLCAnMi4wJywgJy1waCcsICc3LjAnLCAnLXRuJywgJzgnLCAnLW1hJywgJzIwMCcsICctaW1hZScsICc8aW5maWxlLm1hZT4nLCAnLW9tYWUnLCAnPG91dGZpbGUubWFlPic=

>  <r_lp_tautomer_probability>  (203) 
1

>  <r_epik_Ionization_Penalty>  (203) 
0.0402055

>  <r_epik_Ionization_Penalty_Charging>  (203) 
0.00520656

>  <r_epik_Ionization_Penalty_Neutral>  (203) 
0.034999

>  <r_epik_State_Penalty>  (203) 
0.0470988

>  <r_epik_Charging_Adjusted_Penalty>  (203) 
0.0523054

>  <i_epik_Tot_Q>  (203) 
1

>  <i_epik_Tot_abs_Q>  (203) 
1

>  <s_epik_Chemistry_Notes>  (203) 
This compound contains an acetal/aminal-like group ( X-CH(R)-Y where X, Y are N, S, or O) that may be acid/base labile, releasing an aldehyde.

>  <s_lp_Force_Field>  (203) 
OPLS3e

>  <r_lp_Energy>  (203) 
20.2399

>  <b_lp_Chiralities_Consistent>  (203) 
1

>  <s_lp_Variant>  (203) 
55:0-1

>  <s_i_glide_gridfile>  (203) 
pfpi4k_grid

>  <i_i_glide_lignum>  (203) 
32

>  <i_i_glide_rotatable_bonds>  (203) 
0

>  <r_i_docking_score>  (203) 
-3.55029

>  <r_i_glide_ligand_efficiency>  (203) 
-0.273099

>  <r_i_glide_ligand_efficiency_sa>  (203) 
-0.642148

>  <r_i_glide_ligand_efficiency_ln>  (203) 
-0.995889

>  <r_i_glide_gscore>  (203) 
-3.55029

>  <r_i_glide_lipo>  (203) 
0

>  <r_i_glide_hbond>  (203) 
0

>  <r_i_glide_metal>  (203) 
-0

>  <r_i_glide_rewards>  (203) 
-2.18698

>  <r_i_glide_evdw>  (203) 
-12.3397

>  <r_i_glide_ecoul>  (203) 
-4.71653

>  <r_i_glide_erotb>  (203) 
0

>  <r_i_glide_esite>  (203) 
-0.0388413

>  <r_i_glide_emodel>  (203) 
-22.7251

>  <r_i_glide_energy>  (203) 
-17.0563

>  <r_i_glide_einternal>  (203) 
0

>  <r_i_glide_intrahb_reward>  (203) 
-0

>  <i_i_glide_confnum>  (203) 
2

>  <i_i_glide_posenum>  (203) 
25

>  <r_i_glide_eff_state_penalty>  (203) 
0

>  <ligand_id>  (203) 
55

>  <original_smiles>  (203) 
CN1CC2c3ccnn3CCN2C1

>  <smiles>  (203) 
[H]c1nn2c(c1[H])C1([H])N(C([H])([H])C2([H])[H])C([H])([H])[N+]([H])(C([H])([H])[H])C1([H])[H]

$$$$
55:0:2
     RDKit          3D

 28 30  0  0  1  0  0  0  0  0999 V2000
    3.4553    5.3135    3.5459 C   0  0  0  0  0  0  0  0  0  0  0  0
    2.0774    4.8444    3.8067 N   0  0  2  0  0  0  0  0  0  0  0  0
    1.0471    5.8543    3.5190 C   0  0  0  0  0  0  0  0  0  0  0  0
   -0.0409    5.5922    4.5524 C   0  0  1  0  0  0  0  0  0  0  0  0
   -1.0404    4.5364    4.1718 C   0  0  0  0  0  0  0  0  0  0  0  0
   -1.8021    4.3228    3.0591 C   0  0  0  0  0  0  0  0  0  0  0  0
   -2.6056    3.1948    3.4047 C   0  0  0  0  0  0  0  0  0  0  0  0
   -2.3794    2.7699    4.6372 N   0  0  0  0  0  0  0  0  0  0  0  0
   -1.4148    3.5853    5.0914 N   0  0  0  0  0  0  0  0  0  0  0  0
   -0.8277    3.4021    6.3997 C   0  0  0  0  0  0  0  0  0  0  0  0
   -0.0322    4.6606    6.8158 C   0  0  0  0  0  0  0  0  0  0  0  0
    0.7644    5.2257    5.7162 N   0  0  0  0  0  0  0  0  0  0  0  0
    1.8588    4.3987    5.2057 C   0  0  0  0  0  0  0  0  0  0  0  0
    3.7312    6.1649    4.1767 H   0  0  0  0  0  0  0  0  0  0  0  0
    3.5736    5.6167    2.4990 H   0  0  0  0  0  0  0  0  0  0  0  0
    4.1520    4.5048    3.7598 H   0  0  0  0  0  0  0  0  0  0  0  0
    1.4450    6.8526    3.6908 H   0  0  0  0  0  0  0  0  0  0  0  0
    0.6933    5.8043    2.4875 H   0  0  0  0  0  0  0  0  0  0  0  0
   -0.5684    6.5160    4.7814 H   0  0  0  0  0  0  0  0  0  0  0  0
   -1.7768    4.8860    2.1341 H   0  0  0  0  0  0  0  0  0  0  0  0
   -3.3480    2.6729    2.8175 H   0  0  0  0  0  0  0  0  0  0  0  0
   -1.6193    3.1974    7.1191 H   0  0  0  0  0  0  0  0  0  0  0  0
   -0.1823    2.5239    6.3670 H   0  0  0  0  0  0  0  0  0  0  0  0
   -0.7403    5.4325    7.1264 H   0  0  0  0  0  0  0  0  0  0  0  0
    0.5932    4.4576    7.6873 H   0  0  0  0  0  0  0  0  0  0  0  0
    1.6146    3.3373    5.1950 H   0  0  0  0  0  0  0  0  0  0  0  0
    2.7413    4.5356    5.8309 H   0  0  0  0  0  0  0  0  0  0  0  0
    1.8965    4.0601    3.1966 H   0  0  0  0  0  0  0  0  0  0  0  0
  1  2  1  0
  1 14  1  0
  1 15  1  0
  1 16  1  0
  2 13  1  0
  2  3  1  0
  2 28  1  6
  3  4  1  0
  3 17  1  0
  3 18  1  0
  4 12  1  0
  4  5  1  0
  4 19  1  1
  5  9  1  0
  5  6  2  0
  6  7  1  0
  6 20  1  0
  7  8  2  0
  7 21  1  0
  8  9  1  0
  9 10  1  0
 10 11  1  0
 10 22  1  0
 10 23  1  0
 11 12  1  0
 11 24  1  0
 11 25  1  0
 12 13  1  0
 13 26  1  0
 13 27  1  0
M  CHG  1   2   1
M  END
>  <i_m_ct_stereo_status>  (204) 
1

>  <s_m_source_file>  (204) 
/var/tmp/pbs.5076255.sched01/tmpn9kf4o8v/46f5dlbpu8.sdf

>  <i_m_source_file_index>  (204) 
32

>  <i_lp_mmshare_version>  (204) 
48012

>  <i_f3d_flags>  (204) 
0

>  <s_epik_input>  (204) 
W0NIM11OKFtDSDJdMSlbQ0gyXU4yW0NIMl1bQ0gyXW4oYzNbQ0BIXTEyKW5bY0hdW2NIXTM=

>  <s_epik_cmdline>  (204) 
J2VwaWtfcHl0aG9uJywgJy1waHQnLCAnMi4wJywgJy1waCcsICc3LjAnLCAnLXRuJywgJzgnLCAnLW1hJywgJzIwMCcsICctaW1hZScsICc8aW5maWxlLm1hZT4nLCAnLW9tYWUnLCAnPG91dGZpbGUubWFlPic=

>  <r_lp_tautomer_probability>  (204) 
1

>  <r_epik_Ionization_Penalty>  (204) 
0.0402055

>  <r_epik_Ionization_Penalty_Charging>  (204) 
0.00520656

>  <r_epik_Ionization_Penalty_Neutral>  (204) 
0.034999

>  <r_epik_State_Penalty>  (204) 
0.0470988

>  <r_epik_Charging_Adjusted_Penalty>  (204) 
0.0523054

>  <i_epik_Tot_Q>  (204) 
1

>  <i_epik_Tot_abs_Q>  (204) 
1

>  <s_epik_Chemistry_Notes>  (204) 
This compound contains an acetal/aminal-like group ( X-CH(R)-Y where X, Y are N, S, or O) that may be acid/base labile, releasing an aldehyde.

>  <s_lp_Force_Field>  (204) 
OPLS3e

>  <r_lp_Energy>  (204) 
20.2399

>  <b_lp_Chiralities_Consistent>  (204) 
1

>  <s_lp_Variant>  (204) 
55:0-1

>  <s_i_glide_gridfile>  (204) 
pfpi4k_grid

>  <i_i_glide_lignum>  (204) 
32

>  <i_i_glide_rotatable_bonds>  (204) 
0

>  <r_i_docking_score>  (204) 
-3.25351

>  <r_i_glide_ligand_efficiency>  (204) 
-0.25027

>  <r_i_glide_ligand_efficiency_sa>  (204) 
-0.588468

>  <r_i_glide_ligand_efficiency_ln>  (204) 
-0.912637

>  <r_i_glide_gscore>  (204) 
-3.25351

>  <r_i_glide_lipo>  (204) 
-0.0651848

>  <r_i_glide_hbond>  (204) 
0

>  <r_i_glide_metal>  (204) 
-0

>  <r_i_glide_rewards>  (204) 
-2.18698

>  <r_i_glide_evdw>  (204) 
-11.1447

>  <r_i_glide_ecoul>  (204) 
-2.5481

>  <r_i_glide_erotb>  (204) 
0

>  <r_i_glide_esite>  (204) 
-0.0618863

>  <r_i_glide_emodel>  (204) 
-18.8846

>  <r_i_glide_energy>  (204) 
-13.6928

>  <r_i_glide_einternal>  (204) 
0

>  <r_i_glide_intrahb_reward>  (204) 
-0

>  <i_i_glide_confnum>  (204) 
1

>  <i_i_glide_posenum>  (204) 
21

>  <r_i_glide_eff_state_penalty>  (204) 
0

>  <ligand_id>  (204) 
55

>  <original_smiles>  (204) 
CN1CC2c3ccnn3CCN2C1

>  <smiles>  (204) 
[H]c1nn2c(c1[H])C1([H])N(C([H])([H])C2([H])[H])C([H])([H])[N+]([H])(C([H])([H])[H])C1([H])[H]

$$$$
55:1:0
     RDKit          3D

 29 31  0  0  1  0  0  0  0  0999 V2000
    2.1974   -2.6781   -3.6642 C   0  0  0  0  0  0  0  0  0  0  0  0
    2.6338   -2.5404   -2.2543 N   0  0  2  0  0  0  0  0  0  0  0  0
    4.0966   -2.4198   -2.0851 C   0  0  0  0  0  0  0  0  0  0  0  0
    4.3476   -2.8785   -0.6520 C   0  0  1  0  0  0  0  0  0  0  0  0
    4.1292   -1.8055    0.3843 C   0  0  0  0  0  0  0  0  0  0  0  0
    4.5615   -0.5152    0.4941 C   0  0  0  0  0  0  0  0  0  0  0  0
    3.9940   -0.0693    1.7249 C   0  0  0  0  0  0  0  0  0  0  0  0
    3.2726   -0.9941    2.3276 N   0  0  0  0  0  0  0  0  0  0  0  0
    3.3611   -2.0497    1.5032 N   0  0  0  0  0  0  0  0  0  0  0  0
    2.6174   -3.2505    1.7922 C   0  0  0  0  0  0  0  0  0  0  0  0
    3.1075   -4.4031    0.8941 C   0  0  0  0  0  0  0  0  0  0  0  0
    3.3657   -3.9792   -0.5113 N   0  0  1  0  0  0  0  0  0  0  0  0
    2.1890   -3.6188   -1.3415 C   0  0  0  0  0  0  0  0  0  0  0  0
    2.5524   -3.6078   -4.1166 H   0  0  0  0  0  0  0  0  0  0  0  0
    2.5736   -1.8420   -4.2595 H   0  0  0  0  0  0  0  0  0  0  0  0
    1.1090   -2.6572   -3.7419 H   0  0  0  0  0  0  0  0  0  0  0  0
    4.5765   -3.1363   -2.7567 H   0  0  0  0  0  0  0  0  0  0  0  0
    4.4818   -1.4204   -2.3102 H   0  0  0  0  0  0  0  0  0  0  0  0
    5.3591   -3.2739   -0.5452 H   0  0  0  0  0  0  0  0  0  0  0  0
    5.1885    0.0319   -0.1954 H   0  0  0  0  0  0  0  0  0  0  0  0
    4.0678    0.8943    2.2052 H   0  0  0  0  0  0  0  0  0  0  0  0
    2.7268   -3.5009    2.8487 H   0  0  0  0  0  0  0  0  0  0  0  0
    1.5667   -3.0186    1.6306 H   0  0  0  0  0  0  0  0  0  0  0  0
    4.0584   -4.7578    1.2989 H   0  0  0  0  0  0  0  0  0  0  0  0
    2.4264   -5.2559    0.9371 H   0  0  0  0  0  0  0  0  0  0  0  0
    1.3959   -3.2145   -0.7260 H   0  0  0  0  0  0  0  0  0  0  0  0
    1.7977   -4.4796   -1.8771 H   0  0  0  0  0  0  0  0  0  0  0  0
    2.2069   -1.6976   -1.8723 H   0  0  0  0  0  0  0  0  0  0  0  0
    3.7701   -4.7791   -0.9787 H   0  0  0  0  0  0  0  0  0  0  0  0
  1  2  1  0
  1 14  1  0
  1 15  1  0
  1 16  1  0
  2 13  1  0
  2  3  1  0
  2 28  1  1
  3  4  1  0
  3 17  1  0
  3 18  1  0
  4 12  1  0
  4  5  1  0
  4 19  1  6
  5  9  1  0
  5  6  2  0
  6  7  1  0
  6 20  1  0
  7  8  2  0
  7 21  1  0
  8  9  1  0
  9 10  1  0
 10 11  1  0
 10 22  1  0
 10 23  1  0
 11 12  1  0
 11 24  1  0
 11 25  1  0
 12 13  1  0
 12 29  1  6
 13 26  1  0
 13 27  1  0
M  CHG  2   2   1  12   1
M  END
>  <i_m_ct_stereo_status>  (205) 
1

>  <s_m_source_file>  (205) 
/var/tmp/pbs.5076255.sched01/tmpn9kf4o8v/46f5dlbpu8.sdf

>  <i_m_source_file_index>  (205) 
33

>  <i_lp_mmshare_version>  (205) 
48012

>  <i_f3d_flags>  (205) 
0

>  <s_epik_input>  (205) 
W0NIM11OKFtDSDJdMSlbQ0gyXU4yW0NIMl1bQ0gyXW4oYzNbQ0BIXTEyKW5bY0hdW2NIXTM=

>  <s_epik_cmdline>  (205) 
J2VwaWtfcHl0aG9uJywgJy1waHQnLCAnMi4wJywgJy1waCcsICc3LjAnLCAnLXRuJywgJzgnLCAnLW1hJywgJzIwMCcsICctaW1hZScsICc8aW5maWxlLm1hZT4nLCAnLW9tYWUnLCAnPG91dGZpbGUubWFlPic=

>  <r_lp_tautomer_probability>  (205) 
1

>  <r_epik_Ionization_Penalty>  (205) 
1.99491

>  <r_epik_Ionization_Penalty_Charging>  (205) 
1.99491

>  <r_epik_Ionization_Penalty_Neutral>  (205) 
3.89842e-10

>  <r_epik_State_Penalty>  (205) 
1.81774

>  <r_epik_Charging_Adjusted_Penalty>  (205) 
3.81266

>  <i_epik_Tot_Q>  (205) 
2

>  <i_epik_Tot_abs_Q>  (205) 
2

>  <s_epik_Chemistry_Notes>  (205) 
This compound contains an acetal/aminal-like group ( X-CH(R)-Y where X, Y are N, S, or O) that may be acid/base labile, releasing an aldehyde.

>  <s_lp_Force_Field>  (205) 
OPLS3e

>  <r_lp_Energy>  (205) 
22.7111

>  <b_lp_Chiralities_Consistent>  (205) 
1

>  <s_lp_Variant>  (205) 
55:0-2

>  <s_i_glide_gridfile>  (205) 
pfpi4k_grid

>  <i_i_glide_lignum>  (205) 
33

>  <i_i_glide_rotatable_bonds>  (205) 
0

>  <r_i_docking_score>  (205) 
-4.81869

>  <r_i_glide_ligand_efficiency>  (205) 
-0.370668

>  <r_i_glide_ligand_efficiency_sa>  (205) 
-0.871565

>  <r_i_glide_ligand_efficiency_ln>  (205) 
-1.35168

>  <r_i_glide_gscore>  (205) 
-4.81869

>  <r_i_glide_lipo>  (205) 
-0.450537

>  <r_i_glide_hbond>  (205) 
-0.17926

>  <r_i_glide_metal>  (205) 
-0

>  <r_i_glide_rewards>  (205) 
-2.18011

>  <r_i_glide_evdw>  (205) 
-11.3039

>  <r_i_glide_ecoul>  (205) 
-9.06155

>  <r_i_glide_erotb>  (205) 
0

>  <r_i_glide_esite>  (205) 
-0.0843476

>  <r_i_glide_emodel>  (205) 
-30.0096

>  <r_i_glide_energy>  (205) 
-20.3655

>  <r_i_glide_einternal>  (205) 
0

>  <r_i_glide_intrahb_reward>  (205) 
-0

>  <i_i_glide_confnum>  (205) 
1

>  <i_i_glide_posenum>  (205) 
25

>  <r_i_glide_eff_state_penalty>  (205) 
0

>  <ligand_id>  (205) 
55

>  <original_smiles>  (205) 
CN1CC2c3ccnn3CCN2C1

>  <smiles>  (205) 
[H]c1nn2c(c1[H])C1([H])C([H])([H])[N+]([H])(C([H])([H])[H])C([H])([H])[N+]1([H])C([H])([H])C2([H])[H]

$$$$
55:1:1
     RDKit          3D

 29 31  0  0  1  0  0  0  0  0999 V2000
    2.8822    0.0711    1.8700 C   0  0  0  0  0  0  0  0  0  0  0  0
    3.2793   -0.8062    0.7415 N   0  0  2  0  0  0  0  0  0  0  0  0
    2.7806   -2.1886    0.8477 C   0  0  0  0  0  0  0  0  0  0  0  0
    3.7194   -2.9958   -0.0413 C   0  0  1  0  0  0  0  0  0  0  0  0
    3.3875   -2.9547   -1.5146 C   0  0  0  0  0  0  0  0  0  0  0  0
    2.2325   -3.1481   -2.2183 C   0  0  0  0  0  0  0  0  0  0  0  0
    2.6233   -2.9968   -3.5783 C   0  0  0  0  0  0  0  0  0  0  0  0
    3.9057   -2.6988   -3.7174 N   0  0  0  0  0  0  0  0  0  0  0  0
    4.3645   -2.6868   -2.4512 N   0  0  0  0  0  0  0  0  0  0  0  0
    5.7336   -2.3193   -2.1716 C   0  0  0  0  0  0  0  0  0  0  0  0
    6.0996   -2.6847   -0.7228 C   0  0  0  0  0  0  0  0  0  0  0  0
    5.0181   -2.3422    0.2407 N   0  0  1  0  0  0  0  0  0  0  0  0
    4.7423   -0.8983    0.4856 C   0  0  0  0  0  0  0  0  0  0  0  0
    3.3040   -0.2732    2.8163 H   0  0  0  0  0  0  0  0  0  0  0  0
    1.7945    0.0821    1.9719 H   0  0  0  0  0  0  0  0  0  0  0  0
    3.2056    1.1002    1.7020 H   0  0  0  0  0  0  0  0  0  0  0  0
    2.8846   -2.5192    1.8819 H   0  0  0  0  0  0  0  0  0  0  0  0
    1.7340   -2.2808    0.5771 H   0  0  0  0  0  0  0  0  0  0  0  0
    3.7504   -4.0356    0.2866 H   0  0  0  0  0  0  0  0  0  0  0  0
    1.2499   -3.3828   -1.8351 H   0  0  0  0  0  0  0  0  0  0  0  0
    2.0115   -3.0799   -4.4619 H   0  0  0  0  0  0  0  0  0  0  0  0
    6.3977   -2.8177   -2.8788 H   0  0  0  0  0  0  0  0  0  0  0  0
    5.8123   -1.2424   -2.3213 H   0  0  0  0  0  0  0  0  0  0  0  0
    6.2517   -3.7650   -0.6658 H   0  0  0  0  0  0  0  0  0  0  0  0
    7.0485   -2.2334   -0.4248 H   0  0  0  0  0  0  0  0  0  0  0  0
    4.9949   -0.2679   -0.3669 H   0  0  0  0  0  0  0  0  0  0  0  0
    5.3228   -0.5583    1.3435 H   0  0  0  0  0  0  0  0  0  0  0  0
    2.8294   -0.4379   -0.0908 H   0  0  0  0  0  0  0  0  0  0  0  0
    5.3139   -2.7131    1.1328 H   0  0  0  0  0  0  0  0  0  0  0  0
  1  2  1  0
  1 14  1  0
  1 15  1  0
  1 16  1  0
  2 13  1  0
  2  3  1  0
  2 28  1  6
  3  4  1  0
  3 17  1  0
  3 18  1  0
  4 12  1  0
  4  5  1  0
  4 19  1  1
  5  9  1  0
  5  6  2  0
  6  7  1  0
  6 20  1  0
  7  8  2  0
  7 21  1  0
  8  9  1  0
  9 10  1  0
 10 11  1  0
 10 22  1  0
 10 23  1  0
 11 12  1  0
 11 24  1  0
 11 25  1  0
 12 13  1  0
 12 29  1  1
 13 26  1  0
 13 27  1  0
M  CHG  2   2   1  12   1
M  END
>  <i_m_ct_stereo_status>  (206) 
1

>  <s_m_source_file>  (206) 
/var/tmp/pbs.5076255.sched01/tmpn9kf4o8v/46f5dlbpu8.sdf

>  <i_m_source_file_index>  (206) 
33

>  <i_lp_mmshare_version>  (206) 
48012

>  <i_f3d_flags>  (206) 
0

>  <s_epik_input>  (206) 
W0NIM11OKFtDSDJdMSlbQ0gyXU4yW0NIMl1bQ0gyXW4oYzNbQ0BIXTEyKW5bY0hdW2NIXTM=

>  <s_epik_cmdline>  (206) 
J2VwaWtfcHl0aG9uJywgJy1waHQnLCAnMi4wJywgJy1waCcsICc3LjAnLCAnLXRuJywgJzgnLCAnLW1hJywgJzIwMCcsICctaW1hZScsICc8aW5maWxlLm1hZT4nLCAnLW9tYWUnLCAnPG91dGZpbGUubWFlPic=

>  <r_lp_tautomer_probability>  (206) 
1

>  <r_epik_Ionization_Penalty>  (206) 
1.99491

>  <r_epik_Ionization_Penalty_Charging>  (206) 
1.99491

>  <r_epik_Ionization_Penalty_Neutral>  (206) 
3.89842e-10

>  <r_epik_State_Penalty>  (206) 
1.81774

>  <r_epik_Charging_Adjusted_Penalty>  (206) 
3.81266

>  <i_epik_Tot_Q>  (206) 
2

>  <i_epik_Tot_abs_Q>  (206) 
2

>  <s_epik_Chemistry_Notes>  (206) 
This compound contains an acetal/aminal-like group ( X-CH(R)-Y where X, Y are N, S, or O) that may be acid/base labile, releasing an aldehyde.

>  <s_lp_Force_Field>  (206) 
OPLS3e

>  <r_lp_Energy>  (206) 
22.7111

>  <b_lp_Chiralities_Consistent>  (206) 
1

>  <s_lp_Variant>  (206) 
55:0-2

>  <s_i_glide_gridfile>  (206) 
pfpi4k_grid

>  <i_i_glide_lignum>  (206) 
33

>  <i_i_glide_rotatable_bonds>  (206) 
0

>  <r_i_docking_score>  (206) 
-4.7263

>  <r_i_glide_ligand_efficiency>  (206) 
-0.363562

>  <r_i_glide_ligand_efficiency_sa>  (206) 
-0.854856

>  <r_i_glide_ligand_efficiency_ln>  (206) 
-1.32577

>  <r_i_glide_gscore>  (206) 
-4.7263

>  <r_i_glide_lipo>  (206) 
-0.356747

>  <r_i_glide_hbond>  (206) 
-0.0380111

>  <r_i_glide_metal>  (206) 
-0

>  <r_i_glide_rewards>  (206) 
-2.36346

>  <r_i_glide_evdw>  (206) 
-17.0719

>  <r_i_glide_ecoul>  (206) 
-7.0393

>  <r_i_glide_erotb>  (206) 
0

>  <r_i_glide_esite>  (206) 
-0.0585963

>  <r_i_glide_emodel>  (206) 
-33.5502

>  <r_i_glide_energy>  (206) 
-24.1112

>  <r_i_glide_einternal>  (206) 
0

>  <r_i_glide_intrahb_reward>  (206) 
-0

>  <i_i_glide_confnum>  (206) 
1

>  <i_i_glide_posenum>  (206) 
3

>  <r_i_glide_eff_state_penalty>  (206) 
0

>  <ligand_id>  (206) 
55

>  <original_smiles>  (206) 
CN1CC2c3ccnn3CCN2C1

>  <smiles>  (206) 
[H]c1nn2c(c1[H])C1([H])C([H])([H])[N+]([H])(C([H])([H])[H])C([H])([H])[N+]1([H])C([H])([H])C2([H])[H]

$$$$
55:1:2
     RDKit          3D

 29 31  0  0  1  0  0  0  0  0999 V2000
    2.4239   -1.1199    2.3503 C   0  0  0  0  0  0  0  0  0  0  0  0
    3.0615   -1.5719    1.0883 N   0  0  2  0  0  0  0  0  0  0  0  0
    2.5709   -2.8659    0.5919 C   0  0  0  0  0  0  0  0  0  0  0  0
    3.6791   -3.3869   -0.3049 C   0  0  1  0  0  0  0  0  0  0  0  0
    3.6511   -2.8187   -1.7021 C   0  0  0  0  0  0  0  0  0  0  0  0
    2.6654   -2.6900   -2.6448 C   0  0  0  0  0  0  0  0  0  0  0  0
    3.3284   -2.0814   -3.7498 C   0  0  0  0  0  0  0  0  0  0  0  0
    4.6107   -1.8477   -3.5103 N   0  0  0  0  0  0  0  0  0  0  0  0
    4.8000   -2.3060   -2.2616 N   0  0  0  0  0  0  0  0  0  0  0  0
    6.0832   -2.1487   -1.6084 C   0  0  0  0  0  0  0  0  0  0  0  0
    6.1460   -3.0121   -0.3375 C   0  0  0  0  0  0  0  0  0  0  0  0
    4.8808   -2.9559    0.4436 N   0  0  1  0  0  0  0  0  0  0  0  0
    4.5448   -1.6714    1.1218 C   0  0  0  0  0  0  0  0  0  0  0  0
    2.6377   -1.7988    3.1791 H   0  0  0  0  0  0  0  0  0  0  0  0
    1.3394   -1.0769    2.2328 H   0  0  0  0  0  0  0  0  0  0  0  0
    2.7643   -0.1212    2.6300 H   0  0  0  0  0  0  0  0  0  0  0  0
    2.4400   -3.5396    1.4416 H   0  0  0  0  0  0  0  0  0  0  0  0
    1.6287   -2.7645    0.0715 H   0  0  0  0  0  0  0  0  0  0  0  0
    3.6451   -4.4755   -0.3622 H   0  0  0  0  0  0  0  0  0  0  0  0
    1.6273   -2.9796   -2.5615 H   0  0  0  0  0  0  0  0  0  0  0  0
    2.9326   -1.7942   -4.7081 H   0  0  0  0  0  0  0  0  0  0  0  0
    6.8860   -2.4160   -2.2966 H   0  0  0  0  0  0  0  0  0  0  0  0
    6.1992   -1.0970   -1.3446 H   0  0  0  0  0  0  0  0  0  0  0  0
    6.2885   -4.0512   -0.6332 H   0  0  0  0  0  0  0  0  0  0  0  0
    7.0052   -2.7552    0.2846 H   0  0  0  0  0  0  0  0  0  0  0  0
    4.9726   -0.8031    0.6214 H   0  0  0  0  0  0  0  0  0  0  0  0
    4.9238   -1.6921    2.1446 H   0  0  0  0  0  0  0  0  0  0  0  0
    2.8008   -0.8969    0.3712 H   0  0  0  0  0  0  0  0  0  0  0  0
    4.9859   -3.6320    1.1907 H   0  0  0  0  0  0  0  0  0  0  0  0
  1  2  1  0
  1 14  1  0
  1 15  1  0
  1 16  1  0
  2 13  1  0
  2  3  1  0
  2 28  1  6
  3  4  1  0
  3 17  1  0
  3 18  1  0
  4 12  1  0
  4  5  1  0
  4 19  1  6
  5  9  1  0
  5  6  2  0
  6  7  1  0
  6 20  1  0
  7  8  2  0
  7 21  1  0
  8  9  1  0
  9 10  1  0
 10 11  1  0
 10 22  1  0
 10 23  1  0
 11 12  1  0
 11 24  1  0
 11 25  1  0
 12 13  1  0
 12 29  1  1
 13 26  1  0
 13 27  1  0
M  CHG  2   2   1  12   1
M  END
>  <i_m_ct_stereo_status>  (207) 
1

>  <s_m_source_file>  (207) 
/var/tmp/pbs.5076255.sched01/tmpn9kf4o8v/46f5dlbpu8.sdf

>  <i_m_source_file_index>  (207) 
33

>  <i_lp_mmshare_version>  (207) 
48012

>  <i_f3d_flags>  (207) 
0

>  <s_epik_input>  (207) 
W0NIM11OKFtDSDJdMSlbQ0gyXU4yW0NIMl1bQ0gyXW4oYzNbQ0BIXTEyKW5bY0hdW2NIXTM=

>  <s_epik_cmdline>  (207) 
J2VwaWtfcHl0aG9uJywgJy1waHQnLCAnMi4wJywgJy1waCcsICc3LjAnLCAnLXRuJywgJzgnLCAnLW1hJywgJzIwMCcsICctaW1hZScsICc8aW5maWxlLm1hZT4nLCAnLW9tYWUnLCAnPG91dGZpbGUubWFlPic=

>  <r_lp_tautomer_probability>  (207) 
1

>  <r_epik_Ionization_Penalty>  (207) 
1.99491

>  <r_epik_Ionization_Penalty_Charging>  (207) 
1.99491

>  <r_epik_Ionization_Penalty_Neutral>  (207) 
3.89842e-10

>  <r_epik_State_Penalty>  (207) 
1.81774

>  <r_epik_Charging_Adjusted_Penalty>  (207) 
3.81266

>  <i_epik_Tot_Q>  (207) 
2

>  <i_epik_Tot_abs_Q>  (207) 
2

>  <s_epik_Chemistry_Notes>  (207) 
This compound contains an acetal/aminal-like group ( X-CH(R)-Y where X, Y are N, S, or O) that may be acid/base labile, releasing an aldehyde.

>  <s_lp_Force_Field>  (207) 
OPLS3e

>  <r_lp_Energy>  (207) 
22.7111

>  <b_lp_Chiralities_Consistent>  (207) 
1

>  <s_lp_Variant>  (207) 
55:0-2

>  <s_i_glide_gridfile>  (207) 
pfpi4k_grid

>  <i_i_glide_lignum>  (207) 
33

>  <i_i_glide_rotatable_bonds>  (207) 
0

>  <r_i_docking_score>  (207) 
-4.37412

>  <r_i_glide_ligand_efficiency>  (207) 
-0.336471

>  <r_i_glide_ligand_efficiency_sa>  (207) 
-0.791155

>  <r_i_glide_ligand_efficiency_ln>  (207) 
-1.22698

>  <r_i_glide_gscore>  (207) 
-4.37412

>  <r_i_glide_lipo>  (207) 
-0.259699

>  <r_i_glide_hbond>  (207) 
-0.0111277

>  <r_i_glide_metal>  (207) 
-0

>  <r_i_glide_rewards>  (207) 
-2.287

>  <r_i_glide_evdw>  (207) 
-15.495

>  <r_i_glide_ecoul>  (207) 
-6.61763

>  <r_i_glide_erotb>  (207) 
0

>  <r_i_glide_esite>  (207) 
-0.048897

>  <r_i_glide_emodel>  (207) 
-30.8616

>  <r_i_glide_energy>  (207) 
-22.1126

>  <r_i_glide_einternal>  (207) 
0

>  <r_i_glide_intrahb_reward>  (207) 
-0

>  <i_i_glide_confnum>  (207) 
2

>  <i_i_glide_posenum>  (207) 
23

>  <r_i_glide_eff_state_penalty>  (207) 
0

>  <ligand_id>  (207) 
55

>  <original_smiles>  (207) 
CN1CC2c3ccnn3CCN2C1

>  <smiles>  (207) 
[H]c1nn2c(c1[H])C1([H])C([H])([H])[N+]([H])(C([H])([H])[H])C([H])([H])[N+]1([H])C([H])([H])C2([H])[H]

$$$$
55:2:0
     RDKit          3D

 28 30  0  0  1  0  0  0  0  0999 V2000
    5.8011   -4.0011    0.3155 C   0  0  0  0  0  0  0  0  0  0  0  0
    4.7358   -3.0442    0.0365 N   0  0  0  0  0  0  0  0  0  0  0  0
    5.1261   -2.1113   -1.0113 C   0  0  0  0  0  0  0  0  0  0  0  0
    3.7795   -1.5369   -1.4575 C   0  0  1  0  0  0  0  0  0  0  0  0
    3.8374   -0.9292   -2.8216 C   0  0  0  0  0  0  0  0  0  0  0  0
    4.0389    0.3143   -3.3341 C   0  0  0  0  0  0  0  0  0  0  0  0
    3.8191    0.1858   -4.7257 C   0  0  0  0  0  0  0  0  0  0  0  0
    3.6696   -1.0644   -5.0696 N   0  0  0  0  0  0  0  0  0  0  0  0
    3.5940   -1.7259   -3.8981 N   0  0  0  0  0  0  0  0  0  0  0  0
    3.2380   -3.1183   -3.7827 C   0  0  0  0  0  0  0  0  0  0  0  0
    2.2694   -3.2424   -2.5846 C   0  0  0  0  0  0  0  0  0  0  0  0
    2.8556   -2.6906   -1.3301 N   0  0  1  0  0  0  0  0  0  0  0  0
    3.5508   -3.7043   -0.5062 C   0  0  0  0  0  0  0  0  0  0  0  0
    6.6865   -3.4793    0.6742 H   0  0  0  0  0  0  0  0  0  0  0  0
    6.0826   -4.5735   -0.5690 H   0  0  0  0  0  0  0  0  0  0  0  0
    5.4922   -4.7045    1.0874 H   0  0  0  0  0  0  0  0  0  0  0  0
    5.7955   -1.3347   -0.6385 H   0  0  0  0  0  0  0  0  0  0  0  0
    5.5949   -2.6429   -1.8473 H   0  0  0  0  0  0  0  0  0  0  0  0
    3.4599   -0.7824   -0.7359 H   0  0  0  0  0  0  0  0  0  0  0  0
    4.2177    1.2202   -2.7969 H   0  0  0  0  0  0  0  0  0  0  0  0
    3.8644    0.9255   -5.5079 H   0  0  0  0  0  0  0  0  0  0  0  0
    2.7807   -3.4634   -4.7088 H   0  0  0  0  0  0  0  0  0  0  0  0
    4.1592   -3.6818   -3.5809 H   0  0  0  0  0  0  0  0  0  0  0  0
    1.3943   -2.6419   -2.8224 H   0  0  0  0  0  0  0  0  0  0  0  0
    1.8870   -4.2449   -2.4378 H   0  0  0  0  0  0  0  0  0  0  0  0
    3.8312   -4.5613   -1.1234 H   0  0  0  0  0  0  0  0  0  0  0  0
    2.9097   -4.0626    0.3006 H   0  0  0  0  0  0  0  0  0  0  0  0
    2.0684   -2.3010   -0.8136 H   0  0  0  0  0  0  0  0  0  0  0  0
  1  2  1  0
  1 14  1  0
  1 15  1  0
  1 16  1  0
  2 13  1  0
  2  3  1  0
  3  4  1  0
  3 17  1  0
  3 18  1  0
  4 12  1  0
  4  5  1  0
  4 19  1  1
  5  9  1  0
  5  6  2  0
  6  7  1  0
  6 20  1  0
  7  8  2  0
  7 21  1  0
  8  9  1  0
  9 10  1  0
 10 11  1  0
 10 22  1  0
 10 23  1  0
 11 12  1  0
 11 24  1  0
 11 25  1  0
 12 13  1  0
 12 28  1  1
 13 26  1  0
 13 27  1  0
M  CHG  1  12   1
M  END
>  <i_m_ct_stereo_status>  (208) 
1

>  <s_m_source_file>  (208) 
/var/tmp/pbs.5076255.sched01/tmpn9kf4o8v/46f5dlbpu8.sdf

>  <i_m_source_file_index>  (208) 
34

>  <i_lp_mmshare_version>  (208) 
48012

>  <i_f3d_flags>  (208) 
0

>  <s_epik_input>  (208) 
W0NIM11OKFtDSDJdMSlbQ0gyXU4yW0NIMl1bQ0gyXW4oYzNbQ0BIXTEyKW5bY0hdW2NIXTM=

>  <s_epik_cmdline>  (208) 
J2VwaWtfcHl0aG9uJywgJy1waHQnLCAnMi4wJywgJy1waCcsICc3LjAnLCAnLXRuJywgJzgnLCAnLW1hJywgJzIwMCcsICctaW1hZScsICc8aW5maWxlLm1hZT4nLCAnLW9tYWUnLCAnPG91dGZpbGUubWFlPic=

>  <r_epik_Ionization_Penalty>  (208) 
0.810643

>  <r_epik_Ionization_Penalty_Charging>  (208) 
0.264691

>  <r_epik_Ionization_Penalty_Neutral>  (208) 
0.545952

>  <r_epik_State_Penalty>  (208) 
2.07953

>  <r_epik_Charging_Adjusted_Penalty>  (208) 
2.34422

>  <i_epik_Tot_Q>  (208) 
1

>  <i_epik_Tot_abs_Q>  (208) 
1

>  <s_epik_Chemistry_Notes>  (208) 
This compound contains an acetal/aminal-like group ( X-CH(R)-Y where X, Y are N, S, or O) that may be acid/base labile, releasing an aldehyde.

>  <s_lp_Force_Field>  (208) 
OPLS3e

>  <r_lp_Energy>  (208) 
12.5983

>  <b_lp_Chiralities_Consistent>  (208) 
1

>  <s_lp_Variant>  (208) 
55:0-3

>  <s_i_glide_gridfile>  (208) 
pfpi4k_grid

>  <i_i_glide_lignum>  (208) 
34

>  <i_i_glide_rotatable_bonds>  (208) 
0

>  <r_i_docking_score>  (208) 
-5.26055

>  <r_i_glide_ligand_efficiency>  (208) 
-0.404658

>  <r_i_glide_ligand_efficiency_sa>  (208) 
-0.951486

>  <r_i_glide_ligand_efficiency_ln>  (208) 
-1.47563

>  <r_i_glide_gscore>  (208) 
-5.26055

>  <r_i_glide_lipo>  (208) 
-0.636405

>  <r_i_glide_hbond>  (208) 
-0.501076

>  <r_i_glide_metal>  (208) 
-0

>  <r_i_glide_rewards>  (208) 
-2.31938

>  <r_i_glide_evdw>  (208) 
-9.10234

>  <r_i_glide_ecoul>  (208) 
-8.69238

>  <r_i_glide_erotb>  (208) 
0

>  <r_i_glide_esite>  (208) 
-0.0447209

>  <r_i_glide_emodel>  (208) 
-25.7079

>  <r_i_glide_energy>  (208) 
-17.7947

>  <r_i_glide_einternal>  (208) 
0

>  <r_i_glide_intrahb_reward>  (208) 
-0

>  <i_i_glide_confnum>  (208) 
1

>  <i_i_glide_posenum>  (208) 
4

>  <r_i_glide_eff_state_penalty>  (208) 
0

>  <ligand_id>  (208) 
55

>  <original_smiles>  (208) 
CN1CC2c3ccnn3CCN2C1

>  <smiles>  (208) 
[H]c1nn2c(c1[H])C1([H])C([H])([H])N(C([H])([H])[H])C([H])([H])[N+]1([H])C([H])([H])C2([H])[H]

$$$$
55:2:1
     RDKit          3D

 28 30  0  0  1  0  0  0  0  0999 V2000
    3.0446   -1.7751   -3.8150 C   0  0  0  0  0  0  0  0  0  0  0  0
    4.1476   -2.1342   -2.9309 N   0  0  0  0  0  0  0  0  0  0  0  0
    4.1372   -1.3162   -1.7244 C   0  0  0  0  0  0  0  0  0  0  0  0
    5.0218   -2.1262   -0.7773 C   0  0  1  0  0  0  0  0  0  0  0  0
    4.8211   -1.7782    0.6689 C   0  0  0  0  0  0  0  0  0  0  0  0
    5.4218   -0.9433    1.5683 C   0  0  0  0  0  0  0  0  0  0  0  0
    4.7136   -1.1959    2.7838 C   0  0  0  0  0  0  0  0  0  0  0  0
    3.7718   -2.1145    2.6555 N   0  0  0  0  0  0  0  0  0  0  0  0
    3.8540   -2.4593    1.3576 N   0  0  0  0  0  0  0  0  0  0  0  0
    3.0524   -3.5046    0.7723 C   0  0  0  0  0  0  0  0  0  0  0  0
    4.0031   -4.3575   -0.0867 C   0  0  0  0  0  0  0  0  0  0  0  0
    4.7005   -3.5386   -1.1301 N   0  0  1  0  0  0  0  0  0  0  0  0
    3.9860   -3.4961   -2.4256 C   0  0  0  0  0  0  0  0  0  0  0  0
    3.1384   -0.7369   -4.1388 H   0  0  0  0  0  0  0  0  0  0  0  0
    2.0797   -1.8840   -3.3157 H   0  0  0  0  0  0  0  0  0  0  0  0
    3.0319   -2.4076   -4.7031 H   0  0  0  0  0  0  0  0  0  0  0  0
    4.5324   -0.3143   -1.9087 H   0  0  0  0  0  0  0  0  0  0  0  0
    3.1202   -1.2350   -1.3215 H   0  0  0  0  0  0  0  0  0  0  0  0
    6.0670   -1.9594   -1.0386 H   0  0  0  0  0  0  0  0  0  0  0  0
    6.2478   -0.2680    1.3943 H   0  0  0  0  0  0  0  0  0  0  0  0
    4.8659   -0.7684    3.7639 H   0  0  0  0  0  0  0  0  0  0  0  0
    2.5645   -4.0952    1.5526 H   0  0  0  0  0  0  0  0  0  0  0  0
    2.2862   -3.0292    0.1512 H   0  0  0  0  0  0  0  0  0  0  0  0
    4.7709   -4.7768    0.5685 H   0  0  0  0  0  0  0  0  0  0  0  0
    3.4883   -5.2074   -0.5332 H   0  0  0  0  0  0  0  0  0  0  0  0
    2.9360   -3.7458   -2.2769 H   0  0  0  0  0  0  0  0  0  0  0  0
    4.4149   -4.2187   -3.1206 H   0  0  0  0  0  0  0  0  0  0  0  0
    5.5799   -3.9991   -1.3039 H   0  0  0  0  0  0  0  0  0  0  0  0
  1  2  1  0
  1 14  1  0
  1 15  1  0
  1 16  1  0
  2 13  1  0
  2  3  1  0
  3  4  1  0
  3 17  1  0
  3 18  1  0
  4 12  1  0
  4  5  1  0
  4 19  1  6
  5  9  1  0
  5  6  2  0
  6  7  1  0
  6 20  1  0
  7  8  2  0
  7 21  1  0
  8  9  1  0
  9 10  1  0
 10 11  1  0
 10 22  1  0
 10 23  1  0
 11 12  1  0
 11 24  1  0
 11 25  1  0
 12 13  1  0
 12 28  1  6
 13 26  1  0
 13 27  1  0
M  CHG  1  12   1
M  END
>  <i_m_ct_stereo_status>  (209) 
1

>  <s_m_source_file>  (209) 
/var/tmp/pbs.5076255.sched01/tmpn9kf4o8v/46f5dlbpu8.sdf

>  <i_m_source_file_index>  (209) 
34

>  <i_lp_mmshare_version>  (209) 
48012

>  <i_f3d_flags>  (209) 
0

>  <s_epik_input>  (209) 
W0NIM11OKFtDSDJdMSlbQ0gyXU4yW0NIMl1bQ0gyXW4oYzNbQ0BIXTEyKW5bY0hdW2NIXTM=

>  <s_epik_cmdline>  (209) 
J2VwaWtfcHl0aG9uJywgJy1waHQnLCAnMi4wJywgJy1waCcsICc3LjAnLCAnLXRuJywgJzgnLCAnLW1hJywgJzIwMCcsICctaW1hZScsICc8aW5maWxlLm1hZT4nLCAnLW9tYWUnLCAnPG91dGZpbGUubWFlPic=

>  <r_epik_Ionization_Penalty>  (209) 
0.810643

>  <r_epik_Ionization_Penalty_Charging>  (209) 
0.264691

>  <r_epik_Ionization_Penalty_Neutral>  (209) 
0.545952

>  <r_epik_State_Penalty>  (209) 
2.07953

>  <r_epik_Charging_Adjusted_Penalty>  (209) 
2.34422

>  <i_epik_Tot_Q>  (209) 
1

>  <i_epik_Tot_abs_Q>  (209) 
1

>  <s_epik_Chemistry_Notes>  (209) 
This compound contains an acetal/aminal-like group ( X-CH(R)-Y where X, Y are N, S, or O) that may be acid/base labile, releasing an aldehyde.

>  <s_lp_Force_Field>  (209) 
OPLS3e

>  <r_lp_Energy>  (209) 
12.5983

>  <b_lp_Chiralities_Consistent>  (209) 
1

>  <s_lp_Variant>  (209) 
55:0-3

>  <s_i_glide_gridfile>  (209) 
pfpi4k_grid

>  <i_i_glide_lignum>  (209) 
34

>  <i_i_glide_rotatable_bonds>  (209) 
0

>  <r_i_docking_score>  (209) 
-3.976

>  <r_i_glide_ligand_efficiency>  (209) 
-0.305846

>  <r_i_glide_ligand_efficiency_sa>  (209) 
-0.719146

>  <r_i_glide_ligand_efficiency_ln>  (209) 
-1.1153

>  <r_i_glide_gscore>  (209) 
-3.976

>  <r_i_glide_lipo>  (209) 
-0.365506

>  <r_i_glide_hbond>  (209) 
0

>  <r_i_glide_metal>  (209) 
-0

>  <r_i_glide_rewards>  (209) 
-2.18698

>  <r_i_glide_evdw>  (209) 
-15.0475

>  <r_i_glide_ecoul>  (209) 
-4.19433

>  <r_i_glide_erotb>  (209) 
0

>  <r_i_glide_esite>  (209) 
-0.0419792

>  <r_i_glide_emodel>  (209) 
-25.475

>  <r_i_glide_energy>  (209) 
-19.2419

>  <r_i_glide_einternal>  (209) 
0

>  <r_i_glide_intrahb_reward>  (209) 
-0

>  <i_i_glide_confnum>  (209) 
1

>  <i_i_glide_posenum>  (209) 
18

>  <r_i_glide_eff_state_penalty>  (209) 
0

>  <ligand_id>  (209) 
55

>  <original_smiles>  (209) 
CN1CC2c3ccnn3CCN2C1

>  <smiles>  (209) 
[H]c1nn2c(c1[H])C1([H])C([H])([H])N(C([H])([H])[H])C([H])([H])[N+]1([H])C([H])([H])C2([H])[H]

$$$$
55:2:2
     RDKit          3D

 28 30  0  0  1  0  0  0  0  0999 V2000
    3.2711   -2.8140    2.8948 C   0  0  0  0  0  0  0  0  0  0  0  0
    3.0404   -3.6004    1.6872 N   0  0  0  0  0  0  0  0  0  0  0  0
    2.7517   -2.7423    0.5466 C   0  0  0  0  0  0  0  0  0  0  0  0
    2.9811   -3.6830   -0.6396 C   0  0  1  0  0  0  0  0  0  0  0  0
    3.2125   -2.9697   -1.9376 C   0  0  0  0  0  0  0  0  0  0  0  0
    2.4431   -2.6047   -3.0045 C   0  0  0  0  0  0  0  0  0  0  0  0
    3.3741   -1.9700   -3.8848 C   0  0  0  0  0  0  0  0  0  0  0  0
    4.6144   -1.9871   -3.4308 N   0  0  0  0  0  0  0  0  0  0  0  0
    4.4975   -2.6063   -2.2450 N   0  0  0  0  0  0  0  0  0  0  0  0
    5.6253   -2.9188   -1.4068 C   0  0  0  0  0  0  0  0  0  0  0  0
    5.4128   -4.3585   -0.9044 C   0  0  0  0  0  0  0  0  0  0  0  0
    4.1198   -4.5230   -0.1807 N   0  0  1  0  0  0  0  0  0  0  0  0
    4.2403   -4.3239    1.2809 C   0  0  0  0  0  0  0  0  0  0  0  0
    2.3751   -2.2503    3.1511 H   0  0  0  0  0  0  0  0  0  0  0  0
    4.0878   -2.1004    2.7728 H   0  0  0  0  0  0  0  0  0  0  0  0
    3.5116   -3.4582    3.7408 H   0  0  0  0  0  0  0  0  0  0  0  0
    1.7356   -2.3589    0.5925 H   0  0  0  0  0  0  0  0  0  0  0  0
    3.4477   -1.8976    0.5062 H   0  0  0  0  0  0  0  0  0  0  0  0
    2.1190   -4.3401   -0.7493 H   0  0  0  0  0  0  0  0  0  0  0  0
    1.3800   -2.7500   -3.1236 H   0  0  0  0  0  0  0  0  0  0  0  0
    3.1937   -1.5187   -4.8439 H   0  0  0  0  0  0  0  0  0  0  0  0
    6.5594   -2.8142   -1.9658 H   0  0  0  0  0  0  0  0  0  0  0  0
    5.6303   -2.2170   -0.5659 H   0  0  0  0  0  0  0  0  0  0  0  0
    5.3631   -5.0096   -1.7771 H   0  0  0  0  0  0  0  0  0  0  0  0
    6.2514   -4.7079   -0.2950 H   0  0  0  0  0  0  0  0  0  0  0  0
    5.1408   -3.7475    1.5064 H   0  0  0  0  0  0  0  0  0  0  0  0
    4.3103   -5.2800    1.8010 H   0  0  0  0  0  0  0  0  0  0  0  0
    3.8330   -5.4776   -0.3423 H   0  0  0  0  0  0  0  0  0  0  0  0
  1  2  1  0
  1 14  1  0
  1 15  1  0
  1 16  1  0
  2 13  1  0
  2  3  1  0
  3  4  1  0
  3 17  1  0
  3 18  1  0
  4 12  1  0
  4  5  1  0
  4 19  1  6
  5  9  1  0
  5  6  2  0
  6  7  1  0
  6 20  1  0
  7  8  2  0
  7 21  1  0
  8  9  1  0
  9 10  1  0
 10 11  1  0
 10 22  1  0
 10 23  1  0
 11 12  1  0
 11 24  1  0
 11 25  1  0
 12 13  1  0
 12 28  1  1
 13 26  1  0
 13 27  1  0
M  CHG  1  12   1
M  END
>  <i_m_ct_stereo_status>  (210) 
1

>  <s_m_source_file>  (210) 
/var/tmp/pbs.5076255.sched01/tmpn9kf4o8v/46f5dlbpu8.sdf

>  <i_m_source_file_index>  (210) 
34

>  <i_lp_mmshare_version>  (210) 
48012

>  <i_f3d_flags>  (210) 
0

>  <s_epik_input>  (210) 
W0NIM11OKFtDSDJdMSlbQ0gyXU4yW0NIMl1bQ0gyXW4oYzNbQ0BIXTEyKW5bY0hdW2NIXTM=

>  <s_epik_cmdline>  (210) 
J2VwaWtfcHl0aG9uJywgJy1waHQnLCAnMi4wJywgJy1waCcsICc3LjAnLCAnLXRuJywgJzgnLCAnLW1hJywgJzIwMCcsICctaW1hZScsICc8aW5maWxlLm1hZT4nLCAnLW9tYWUnLCAnPG91dGZpbGUubWFlPic=

>  <r_epik_Ionization_Penalty>  (210) 
0.810643

>  <r_epik_Ionization_Penalty_Charging>  (210) 
0.264691

>  <r_epik_Ionization_Penalty_Neutral>  (210) 
0.545952

>  <r_epik_State_Penalty>  (210) 
2.07953

>  <r_epik_Charging_Adjusted_Penalty>  (210) 
2.34422

>  <i_epik_Tot_Q>  (210) 
1

>  <i_epik_Tot_abs_Q>  (210) 
1

>  <s_epik_Chemistry_Notes>  (210) 
This compound contains an acetal/aminal-like group ( X-CH(R)-Y where X, Y are N, S, or O) that may be acid/base labile, releasing an aldehyde.

>  <s_lp_Force_Field>  (210) 
OPLS3e

>  <r_lp_Energy>  (210) 
12.5983

>  <b_lp_Chiralities_Consistent>  (210) 
1

>  <s_lp_Variant>  (210) 
55:0-3

>  <s_i_glide_gridfile>  (210) 
pfpi4k_grid

>  <i_i_glide_lignum>  (210) 
34

>  <i_i_glide_rotatable_bonds>  (210) 
0

>  <r_i_docking_score>  (210) 
-3.91775

>  <r_i_glide_ligand_efficiency>  (210) 
-0.301365

>  <r_i_glide_ligand_efficiency_sa>  (210) 
-0.70861

>  <r_i_glide_ligand_efficiency_ln>  (210) 
-1.09896

>  <r_i_glide_gscore>  (210) 
-3.91775

>  <r_i_glide_lipo>  (210) 
-0.182234

>  <r_i_glide_hbond>  (210) 
0

>  <r_i_glide_metal>  (210) 
-0

>  <r_i_glide_rewards>  (210) 
-2.27354

>  <r_i_glide_evdw>  (210) 
-15.5645

>  <r_i_glide_ecoul>  (210) 
-4.44646

>  <r_i_glide_erotb>  (210) 
0

>  <r_i_glide_esite>  (210) 
-0.0167838

>  <r_i_glide_emodel>  (210) 
-26.1203

>  <r_i_glide_energy>  (210) 
-20.011

>  <r_i_glide_einternal>  (210) 
0

>  <r_i_glide_intrahb_reward>  (210) 
-0

>  <i_i_glide_confnum>  (210) 
1

>  <i_i_glide_posenum>  (210) 
17

>  <r_i_glide_eff_state_penalty>  (210) 
0

>  <ligand_id>  (210) 
55

>  <original_smiles>  (210) 
CN1CC2c3ccnn3CCN2C1

>  <smiles>  (210) 
[H]c1nn2c(c1[H])C1([H])C([H])([H])N(C([H])([H])[H])C([H])([H])[N+]1([H])C([H])([H])C2([H])[H]

$$$$
56:0:0
     RDKit          3D

 89 93  0  0  1  0  0  0  0  0999 V2000
    6.4003   -1.4022    7.7869 C   0  0  0  0  0  0  0  0  0  0  0  0
    5.2617   -1.0275    6.8069 C   0  0  0  0  0  0  0  0  0  0  0  0
    4.4623    0.0795    7.5309 C   0  0  0  0  0  0  0  0  0  0  0  0
    5.9073   -0.4745    5.6813 O   0  0  0  0  0  0  0  0  0  0  0  0
    4.3429   -2.2283    6.3675 C   0  0  2  0  0  0  0  0  0  0  0  0
    5.0695   -3.6091    6.2483 C   0  0  0  0  0  0  0  0  0  0  0  0
    5.0767   -4.0930    4.8318 C   0  0  0  0  0  0  0  0  0  0  0  0
    3.9662   -4.2553    4.0879 C   0  0  0  0  0  0  0  0  0  0  0  0
    4.0101   -3.6099    2.7369 C   0  0  1  0  0  0  0  0  0  0  0  0
    4.2255   -2.1107    2.8624 C   0  0  0  0  0  0  0  0  0  0  0  0
    3.6611   -1.3623    3.8620 C   0  0  0  0  0  0  0  0  0  0  0  0
    3.1984   -1.9382    5.2681 C   0  0  1  0  0  0  0  0  0  0  0  0
    2.0410   -3.0494    5.2022 C   0  0  1  0  0  0  0  0  0  0  0  0
    1.4951   -3.2656    6.6513 C   0  0  0  0  0  0  0  0  0  0  0  0
    0.7683   -2.4294    4.5090 C   0  0  0  0  0  0  0  0  0  0  0  0
    0.8960   -1.4316    3.3281 C   0  0  0  0  0  0  0  0  0  0  0  0
    1.4936   -0.0313    3.6416 C   0  0  1  0  0  0  0  0  0  0  0  0
    1.0701    0.4423    4.9243 O   0  0  0  0  0  0  0  0  0  0  0  0
   -0.2577    0.8620    5.0390 C   0  0  2  0  0  0  0  0  0  0  0  0
   -0.4558    2.0626    4.3475 O   0  0  0  0  0  0  0  0  0  0  0  0
   -1.7965    2.5383    4.3879 C   0  0  0  0  0  0  0  0  0  0  0  0
   -2.1718    2.8782    5.8366 C   0  0  0  0  0  0  0  0  0  0  0  0
   -1.9467    1.6472    6.7244 C   0  0  0  0  0  0  0  0  0  0  0  0
   -0.5175    1.1159    6.5385 C   0  0  1  0  0  0  0  0  0  0  0  0
   -0.4301   -0.0773    7.2788 O   0  0  0  0  0  0  0  0  0  0  0  0
    3.0478    0.0260    3.4725 C   0  0  0  0  0  0  0  0  0  0  0  0
    3.6392    1.2185    4.2474 C   0  0  0  0  0  0  0  0  0  0  0  0
    3.2937    0.4152    1.9830 C   0  0  0  0  0  0  0  0  0  0  0  0
    2.5383   -4.4679    4.5920 C   0  0  2  0  0  0  0  0  0  0  0  0
    2.5159   -5.6574    5.6082 C   0  0  0  0  0  0  0  0  0  0  0  0
    1.6732   -5.0698    3.4046 C   0  0  0  0  0  0  0  0  0  0  0  0
    2.4159   -6.0527    2.4313 C   0  0  0  0  0  0  0  0  0  0  0  0
    3.1825   -5.4429    1.2134 C   0  0  1  0  0  0  0  0  0  0  0  0
    2.2204   -4.8095    0.3871 O   0  0  0  0  0  0  0  0  0  0  0  0
    4.4074   -4.5045    1.5282 C   0  0  0  0  0  0  0  0  0  0  0  0
    4.7873   -3.6584    0.2898 C   0  0  0  0  0  0  0  0  0  0  0  0
    5.6384   -5.3870    1.8447 C   0  0  0  0  0  0  0  0  0  0  0  0
    6.0224   -1.9768    8.6340 H   0  0  0  0  0  0  0  0  0  0  0  0
    6.8675   -0.5051    8.1951 H   0  0  0  0  0  0  0  0  0  0  0  0
    7.2089   -1.9659    7.3220 H   0  0  0  0  0  0  0  0  0  0  0  0
    4.2768   -0.1937    8.5693 H   0  0  0  0  0  0  0  0  0  0  0  0
    3.4799    0.2706    7.1166 H   0  0  0  0  0  0  0  0  0  0  0  0
    5.0183    1.0181    7.5381 H   0  0  0  0  0  0  0  0  0  0  0  0
    5.2504   -0.2177    5.0522 H   0  0  0  0  0  0  0  0  0  0  0  0
    3.8024   -2.3584    7.3002 H   0  0  0  0  0  0  0  0  0  0  0  0
    6.1108   -3.5878    6.5536 H   0  0  0  0  0  0  0  0  0  0  0  0
    4.6349   -4.3323    6.9267 H   0  0  0  0  0  0  0  0  0  0  0  0
    5.9781   -3.8047    4.3158 H   0  0  0  0  0  0  0  0  0  0  0  0
    3.0037   -3.3731    2.4242 H   0  0  0  0  0  0  0  0  0  0  0  0
    4.4903   -1.6669    1.9211 H   0  0  0  0  0  0  0  0  0  0  0  0
    2.6832   -1.1018    5.7195 H   0  0  0  0  0  0  0  0  0  0  0  0
    0.5914   -3.8793    6.6521 H   0  0  0  0  0  0  0  0  0  0  0  0
    1.2347   -2.3192    7.1258 H   0  0  0  0  0  0  0  0  0  0  0  0
    2.1973   -3.7391    7.3325 H   0  0  0  0  0  0  0  0  0  0  0  0
    0.0640   -3.2152    4.2372 H   0  0  0  0  0  0  0  0  0  0  0  0
    0.1938   -1.8807    5.2505 H   0  0  0  0  0  0  0  0  0  0  0  0
    1.3728   -1.8843    2.4595 H   0  0  0  0  0  0  0  0  0  0  0  0
   -0.1185   -1.2332    2.9994 H   0  0  0  0  0  0  0  0  0  0  0  0
    1.0691    0.6608    2.9145 H   0  0  0  0  0  0  0  0  0  0  0  0
   -0.9437    0.1097    4.6426 H   0  0  0  0  0  0  0  0  0  0  0  0
   -1.8646    3.4282    3.7651 H   0  0  0  0  0  0  0  0  0  0  0  0
   -2.4806    1.7963    3.9682 H   0  0  0  0  0  0  0  0  0  0  0  0
   -1.5516    3.7016    6.1946 H   0  0  0  0  0  0  0  0  0  0  0  0
   -3.2100    3.2094    5.8981 H   0  0  0  0  0  0  0  0  0  0  0  0
   -2.1253    1.9092    7.7688 H   0  0  0  0  0  0  0  0  0  0  0  0
   -2.6713    0.8711    6.4726 H   0  0  0  0  0  0  0  0  0  0  0  0
    0.2144    1.8339    6.9009 H   0  0  0  0  0  0  0  0  0  0  0  0
    0.4658   -0.3781    7.2087 H   0  0  0  0  0  0  0  0  0  0  0  0
    3.1922    2.1544    3.9061 H   0  0  0  0  0  0  0  0  0  0  0  0
    4.7134    1.3082    4.0879 H   0  0  0  0  0  0  0  0  0  0  0  0
    3.4401    1.1758    5.3067 H   0  0  0  0  0  0  0  0  0  0  0  0
    2.8591    1.3907    1.7508 H   0  0  0  0  0  0  0  0  0  0  0  0
    2.8554   -0.2899    1.2709 H   0  0  0  0  0  0  0  0  0  0  0  0
    4.3585    0.5110    1.7646 H   0  0  0  0  0  0  0  0  0  0  0  0
    1.4993   -5.9208    5.9015 H   0  0  0  0  0  0  0  0  0  0  0  0
    3.0532   -5.5051    6.5320 H   0  0  0  0  0  0  0  0  0  0  0  0
    2.9525   -6.5554    5.1765 H   0  0  0  0  0  0  0  0  0  0  0  0
    0.8098   -5.5900    3.8207 H   0  0  0  0  0  0  0  0  0  0  0  0
    1.2068   -4.3053    2.7869 H   0  0  0  0  0  0  0  0  0  0  0  0
    3.0804   -6.7190    2.9826 H   0  0  0  0  0  0  0  0  0  0  0  0
    1.6569   -6.7131    2.0164 H   0  0  0  0  0  0  0  0  0  0  0  0
    3.5480   -6.2725    0.6106 H   0  0  0  0  0  0  0  0  0  0  0  0
    2.6291   -4.6166   -0.4448 H   0  0  0  0  0  0  0  0  0  0  0  0
    4.9649   -4.2885   -0.5829 H   0  0  0  0  0  0  0  0  0  0  0  0
    5.7012   -3.0901    0.4678 H   0  0  0  0  0  0  0  0  0  0  0  0
    4.0072   -2.9423    0.0264 H   0  0  0  0  0  0  0  0  0  0  0  0
    5.9296   -5.9744    0.9724 H   0  0  0  0  0  0  0  0  0  0  0  0
    5.4456   -6.0947    2.6507 H   0  0  0  0  0  0  0  0  0  0  0  0
    6.5023   -4.7839    2.1260 H   0  0  0  0  0  0  0  0  0  0  0  0
  1  2  1  0
  1 38  1  0
  1 39  1  0
  1 40  1  0
  2  3  1  0
  2  4  1  0
  2  5  1  0
  3 41  1  0
  3 42  1  0
  3 43  1  0
  4 44  1  0
  5 12  1  0
  5  6  1  0
  5 45  1  1
  6  7  1  0
  6 46  1  0
  6 47  1  0
  7  8  2  0
  7 48  1  0
  8 29  1  0
  8  9  1  0
  9 35  1  0
  9 10  1  0
  9 49  1  6
 10 11  2  0
 10 50  1  0
 11 26  1  0
 11 12  1  0
 12 13  1  0
 12 51  1  1
 13 14  1  1
 13 15  1  0
 13 29  1  0
 14 52  1  0
 14 53  1  0
 14 54  1  0
 15 16  1  0
 15 55  1  0
 15 56  1  0
 16 17  1  0
 16 57  1  0
 16 58  1  0
 17 18  1  0
 17 26  1  0
 17 59  1  6
 18 19  1  0
 19 24  1  0
 19 20  1  0
 19 60  1  6
 20 21  1  0
 21 22  1  0
 21 61  1  0
 21 62  1  0
 22 23  1  0
 22 63  1  0
 22 64  1  0
 23 24  1  0
 23 65  1  0
 23 66  1  0
 24 25  1  0
 24 67  1  1
 25 68  1  0
 26 27  1  0
 26 28  1  0
 27 69  1  0
 27 70  1  0
 27 71  1  0
 28 72  1  0
 28 73  1  0
 28 74  1  0
 29 30  1  1
 29 31  1  0
 30 75  1  0
 30 76  1  0
 30 77  1  0
 31 32  1  0
 31 78  1  0
 31 79  1  0
 32 33  1  0
 32 80  1  0
 32 81  1  0
 33 34  1  0
 33 35  1  0
 33 82  1  6
 34 83  1  0
 35 36  1  0
 35 37  1  0
 36 84  1  0
 36 85  1  0
 36 86  1  0
 37 87  1  0
 37 88  1  0
 37 89  1  0
M  END
>  <i_m_ct_stereo_status>  (211) 
1

>  <s_m_source_file>  (211) 
/var/tmp/pbs.5076255.sched01/tmpn9kf4o8v/46f5dlbpu8.sdf

>  <i_m_source_file_index>  (211) 
35

>  <i_lp_mmshare_version>  (211) 
48012

>  <i_f3d_flags>  (211) 
0

>  <s_epik_input>  (211) 
W0NIM11DMShbQ0gzXSlbQ0BIXShbT0hdKVtDSDJdW0NIMl1bQ0BAXTIoW0NIM10pQyg9W0NIXVtDSDJdW0NASF0zQyhbQ0gzXSkoW0NIM10pW09IXSlbQ0BIXTFbQ0hdPUMoW0NASF0zW0NAXTI0W0NIM10pQyhbQ0gzXSkoW0NIM10pW0NAQEhdKFtDSDJdW0NIMl00KU9bQ0BASF01T1tDSDJdW0NIMl1bQ0gyXVtDQEhdNVtPSF0=

>  <s_epik_cmdline>  (211) 
J2VwaWtfcHl0aG9uJywgJy1waHQnLCAnMi4wJywgJy1waCcsICc3LjAnLCAnLXRuJywgJzgnLCAnLW1hJywgJzIwMCcsICctaW1hZScsICc8aW5maWxlLm1hZT4nLCAnLW9tYWUnLCAnPG91dGZpbGUubWFlPic=

>  <r_lp_tautomer_probability>  (211) 
1

>  <r_epik_Ionization_Penalty>  (211) 
3.22155e-06

>  <r_epik_Ionization_Penalty_Charging>  (211) 
0

>  <r_epik_Ionization_Penalty_Neutral>  (211) 
3.22155e-06

>  <r_epik_State_Penalty>  (211) 
-0

>  <r_epik_Charging_Adjusted_Penalty>  (211) 
0

>  <i_epik_Tot_Q>  (211) 
0

>  <i_epik_Tot_abs_Q>  (211) 
0

>  <s_epik_Chemistry_Notes>  (211) 
This compound contains an acetal/aminal-like group ( X-CH(R)-Y where X, Y are N, S, or O) that may be acid/base labile, releasing an aldehyde.

>  <s_lp_Force_Field>  (211) 
OPLS3e

>  <r_lp_Energy>  (211) 
153.14

>  <b_lp_Chiralities_Consistent>  (211) 
1

>  <s_lp_Variant>  (211) 
56:0-1

>  <s_i_glide_gridfile>  (211) 
pfpi4k_grid

>  <i_i_glide_lignum>  (211) 
35

>  <i_i_glide_rotatable_bonds>  (211) 
6

>  <r_i_docking_score>  (211) 
-2.08229

>  <r_i_glide_ligand_efficiency>  (211) 
-0.056278

>  <r_i_glide_ligand_efficiency_sa>  (211) 
-0.187531

>  <r_i_glide_ligand_efficiency_ln>  (211) 
-0.451599

>  <r_i_glide_gscore>  (211) 
-2.08229

>  <r_i_glide_lipo>  (211) 
-0.294097

>  <r_i_glide_hbond>  (211) 
-0.0157161

>  <r_i_glide_metal>  (211) 
-0

>  <r_i_glide_rewards>  (211) 
0

>  <r_i_glide_evdw>  (211) 
-26.0457

>  <r_i_glide_ecoul>  (211) 
-4.5888

>  <r_i_glide_erotb>  (211) 
0.230619

>  <r_i_glide_esite>  (211) 
-0.0124893

>  <r_i_glide_emodel>  (211) 
-34.1803

>  <r_i_glide_energy>  (211) 
-30.6344

>  <r_i_glide_einternal>  (211) 
1.67604

>  <r_i_glide_intrahb_reward>  (211) 
-0

>  <i_i_glide_confnum>  (211) 
6

>  <i_i_glide_posenum>  (211) 
1

>  <r_i_glide_eff_state_penalty>  (211) 
0

>  <ligand_id>  (211) 
56

>  <original_smiles>  (211) 
CC(C)(O)C1CC=C2C3C=C4C1C(C)(CCC(OC1OCCCC1O)C4(C)C)C2(C)CCC(O)C3(C)C

>  <smiles>  (211) 
[H]OC1([H])C([H])(OC2([H])C([H])([H])C([H])([H])C3(C([H])([H])[H])C4([H])C(=C([H])C5([H])C(=C([H])C([H])([H])C4([H])C(O[H])(C([H])([H])[H])C([H])([H])[H])C3(C([H])([H])[H])C([H])([H])C([H])([H])C([H])(O[H])C5(C([H])([H])[H])C([H])([H])[H])C2(C([H])([H])[H])C([H])([H])[H])OC([H])([H])C([H])([H])C1([H])[H]

$$$$
56:0:1
     RDKit          3D

 89 93  0  0  1  0  0  0  0  0999 V2000
    4.3300   -0.6662    7.7496 C   0  0  0  0  0  0  0  0  0  0  0  0
    4.8922   -2.0631    7.3922 C   0  0  0  0  0  0  0  0  0  0  0  0
    6.1353   -1.9230    6.4971 C   0  0  0  0  0  0  0  0  0  0  0  0
    5.2891   -2.5567    8.6441 O   0  0  0  0  0  0  0  0  0  0  0  0
    3.8125   -3.0512    6.7812 C   0  0  2  0  0  0  0  0  0  0  0  0
    4.3036   -4.5501    6.7635 C   0  0  0  0  0  0  0  0  0  0  0  0
    4.4733   -5.0499    5.3655 C   0  0  0  0  0  0  0  0  0  0  0  0
    3.4840   -5.0213    4.4320 C   0  0  0  0  0  0  0  0  0  0  0  0
    3.8826   -4.4115    3.1269 C   0  0  1  0  0  0  0  0  0  0  0  0
    4.3295   -2.9665    3.3064 C   0  0  0  0  0  0  0  0  0  0  0  0
    3.7328   -2.1008    4.2067 C   0  0  0  0  0  0  0  0  0  0  0  0
    2.9484   -2.5821    5.4990 C   0  0  1  0  0  0  0  0  0  0  0  0
    1.6390   -3.4698    5.2233 C   0  0  1  0  0  0  0  0  0  0  0  0
    0.8258   -3.5696    6.5595 C   0  0  0  0  0  0  0  0  0  0  0  0
    0.6296   -2.6421    4.3311 C   0  0  0  0  0  0  0  0  0  0  0  0
    1.1160   -1.7066    3.1908 C   0  0  0  0  0  0  0  0  0  0  0  0
    1.9007   -0.4201    3.6256 C   0  0  1  0  0  0  0  0  0  0  0  0
    1.3653    0.1248    4.8352 O   0  0  0  0  0  0  0  0  0  0  0  0
    0.1112    0.7370    4.7586 C   0  0  2  0  0  0  0  0  0  0  0  0
    0.2101    1.9702    4.1121 O   0  0  0  0  0  0  0  0  0  0  0  0
   -1.0322    2.6435    3.9425 C   0  0  0  0  0  0  0  0  0  0  0  0
   -1.6121    2.9888    5.3210 C   0  0  0  0  0  0  0  0  0  0  0  0
   -1.7358    1.7170    6.1620 C   0  0  0  0  0  0  0  0  0  0  0  0
   -0.3849    0.9803    6.2066 C   0  0  1  0  0  0  0  0  0  0  0  0
   -0.5839   -0.2468    6.8830 O   0  0  0  0  0  0  0  0  0  0  0  0
    3.4577   -0.6326    3.7099 C   0  0  0  0  0  0  0  0  0  0  0  0
    4.0965    0.5160    4.5495 C   0  0  0  0  0  0  0  0  0  0  0  0
    4.0238   -0.3227    2.3047 C   0  0  0  0  0  0  0  0  0  0  0  0
    1.9790   -4.9659    4.6842 C   0  0  2  0  0  0  0  0  0  0  0  0
    1.5705   -6.1231    5.6613 C   0  0  0  0  0  0  0  0  0  0  0  0
    1.2306   -5.4210    3.3570 C   0  0  0  0  0  0  0  0  0  0  0  0
    1.9325   -6.5319    2.4983 C   0  0  0  0  0  0  0  0  0  0  0  0
    2.9940   -6.0760    1.4401 C   0  0  1  0  0  0  0  0  0  0  0  0
    2.3088   -5.2811    0.4843 O   0  0  0  0  0  0  0  0  0  0  0  0
    4.3042   -5.3751    1.9745 C   0  0  0  0  0  0  0  0  0  0  0  0
    5.0333   -4.6216    0.8339 C   0  0  0  0  0  0  0  0  0  0  0  0
    5.2877   -6.4612    2.4723 C   0  0  0  0  0  0  0  0  0  0  0  0
    3.7086   -0.3785    6.9709 H   0  0  0  0  0  0  0  0  0  0  0  0
    5.1441    0.0775    7.8664 H   0  0  0  0  0  0  0  0  0  0  0  0
    3.6731   -0.6242    8.6124 H   0  0  0  0  0  0  0  0  0  0  0  0
    5.9316   -1.2958    5.6408 H   0  0  0  0  0  0  0  0  0  0  0  0
    6.4888   -2.8825    6.0970 H   0  0  0  0  0  0  0  0  0  0  0  0
    6.9623   -1.4478    7.0320 H   0  0  0  0  0  0  0  0  0  0  0  0
    4.5326   -2.5112    9.2097 H   0  0  0  0  0  0  0  0  0  0  0  0
    3.1022   -3.0605    7.6004 H   0  0  0  0  0  0  0  0  0  0  0  0
    5.2688   -4.6699    7.2571 H   0  0  0  0  0  0  0  0  0  0  0  0
    3.6448   -5.1853    7.3442 H   0  0  0  0  0  0  0  0  0  0  0  0
    5.4831   -4.9624    5.0101 H   0  0  0  0  0  0  0  0  0  0  0  0
    2.9981   -4.0058    2.6606 H   0  0  0  0  0  0  0  0  0  0  0  0
    4.8193   -2.5856    2.4357 H   0  0  0  0  0  0  0  0  0  0  0  0
    2.5189   -1.6648    5.8778 H   0  0  0  0  0  0  0  0  0  0  0  0
   -0.1612   -4.0102    6.4050 H   0  0  0  0  0  0  0  0  0  0  0  0
    0.6613   -2.5910    7.0075 H   0  0  0  0  0  0  0  0  0  0  0  0
    1.3037   -4.1524    7.3425 H   0  0  0  0  0  0  0  0  0  0  0  0
   -0.1474   -3.2979    3.9470 H   0  0  0  0  0  0  0  0  0  0  0  0
    0.0359   -1.9959    4.9734 H   0  0  0  0  0  0  0  0  0  0  0  0
    1.6547   -2.2543    2.4216 H   0  0  0  0  0  0  0  0  0  0  0  0
    0.2247   -1.3570    2.6707 H   0  0  0  0  0  0  0  0  0  0  0  0
    1.7236    0.3344    2.8537 H   0  0  0  0  0  0  0  0  0  0  0  0
   -0.5848    0.1017    4.2124 H   0  0  0  0  0  0  0  0  0  0  0  0
   -0.8673    3.5559    3.3657 H   0  0  0  0  0  0  0  0  0  0  0  0
   -1.7222    2.0264    3.3659 H   0  0  0  0  0  0  0  0  0  0  0  0
   -0.9596    3.7022    5.8256 H   0  0  0  0  0  0  0  0  0  0  0  0
   -2.5825    3.4714    5.2137 H   0  0  0  0  0  0  0  0  0  0  0  0
   -2.0619    1.9680    7.1687 H   0  0  0  0  0  0  0  0  0  0  0  0
   -2.5053    1.0698    5.7417 H   0  0  0  0  0  0  0  0  0  0  0  0
    0.3572    1.5707    6.7480 H   0  0  0  0  0  0  0  0  0  0  0  0
    0.2608   -0.6813    6.8845 H   0  0  0  0  0  0  0  0  0  0  0  0
    3.9453    1.4775    4.0873 H   0  0  0  0  0  0  0  0  0  0  0  0
    5.1862    0.3844    4.6446 H   0  0  0  0  0  0  0  0  0  0  0  0
    3.6153    0.6647    5.4734 H   0  0  0  0  0  0  0  0  0  0  0  0
    3.8131    0.7145    2.0148 H   0  0  0  0  0  0  0  0  0  0  0  0
    3.6028   -0.9491    1.5079 H   0  0  0  0  0  0  0  0  0  0  0  0
    5.1188   -0.4111    2.2790 H   0  0  0  0  0  0  0  0  0  0  0  0
    0.4887   -6.2001    5.7743 H   0  0  0  0  0  0  0  0  0  0  0  0
    1.9598   -6.0596    6.6685 H   0  0  0  0  0  0  0  0  0  0  0  0
    1.9040   -7.0960    5.2996 H   0  0  0  0  0  0  0  0  0  0  0  0
    0.2282   -5.7683    3.6107 H   0  0  0  0  0  0  0  0  0  0  0  0
    1.0266   -4.5905    2.6867 H   0  0  0  0  0  0  0  0  0  0  0  0
    2.3662   -7.3001    3.1367 H   0  0  0  0  0  0  0  0  0  0  0  0
    1.1481   -7.0574    1.9497 H   0  0  0  0  0  0  0  0  0  0  0  0
    3.2965   -6.9661    0.8846 H   0  0  0  0  0  0  0  0  0  0  0  0
    2.8742   -5.1767   -0.2707 H   0  0  0  0  0  0  0  0  0  0  0  0
    5.2448   -5.2770   -0.0126 H   0  0  0  0  0  0  0  0  0  0  0  0
    5.9911   -4.2216    1.1708 H   0  0  0  0  0  0  0  0  0  0  0  0
    4.4522   -3.7792    0.4563 H   0  0  0  0  0  0  0  0  0  0  0  0
    5.6188   -7.1038    1.6539 H   0  0  0  0  0  0  0  0  0  0  0  0
    4.8408   -7.1138    3.2219 H   0  0  0  0  0  0  0  0  0  0  0  0
    6.1839   -6.0194    2.9093 H   0  0  0  0  0  0  0  0  0  0  0  0
  1  2  1  0
  1 38  1  0
  1 39  1  0
  1 40  1  0
  2  3  1  0
  2  4  1  0
  2  5  1  0
  3 41  1  0
  3 42  1  0
  3 43  1  0
  4 44  1  0
  5 12  1  0
  5  6  1  0
  5 45  1  1
  6  7  1  0
  6 46  1  0
  6 47  1  0
  7  8  2  0
  7 48  1  0
  8 29  1  0
  8  9  1  0
  9 35  1  0
  9 10  1  0
  9 49  1  6
 10 11  2  0
 10 50  1  0
 11 26  1  0
 11 12  1  0
 12 13  1  0
 12 51  1  1
 13 14  1  1
 13 15  1  0
 13 29  1  0
 14 52  1  0
 14 53  1  0
 14 54  1  0
 15 16  1  0
 15 55  1  0
 15 56  1  0
 16 17  1  0
 16 57  1  0
 16 58  1  0
 17 18  1  0
 17 26  1  0
 17 59  1  6
 18 19  1  0
 19 24  1  0
 19 20  1  0
 19 60  1  6
 20 21  1  0
 21 22  1  0
 21 61  1  0
 21 62  1  0
 22 23  1  0
 22 63  1  0
 22 64  1  0
 23 24  1  0
 23 65  1  0
 23 66  1  0
 24 25  1  0
 24 67  1  1
 25 68  1  0
 26 27  1  0
 26 28  1  0
 27 69  1  0
 27 70  1  0
 27 71  1  0
 28 72  1  0
 28 73  1  0
 28 74  1  0
 29 30  1  1
 29 31  1  0
 30 75  1  0
 30 76  1  0
 30 77  1  0
 31 32  1  0
 31 78  1  0
 31 79  1  0
 32 33  1  0
 32 80  1  0
 32 81  1  0
 33 34  1  0
 33 35  1  0
 33 82  1  6
 34 83  1  0
 35 36  1  0
 35 37  1  0
 36 84  1  0
 36 85  1  0
 36 86  1  0
 37 87  1  0
 37 88  1  0
 37 89  1  0
M  END
>  <i_m_ct_stereo_status>  (212) 
1

>  <s_m_source_file>  (212) 
/var/tmp/pbs.5076255.sched01/tmpn9kf4o8v/46f5dlbpu8.sdf

>  <i_m_source_file_index>  (212) 
35

>  <i_lp_mmshare_version>  (212) 
48012

>  <i_f3d_flags>  (212) 
0

>  <s_epik_input>  (212) 
W0NIM11DMShbQ0gzXSlbQ0BIXShbT0hdKVtDSDJdW0NIMl1bQ0BAXTIoW0NIM10pQyg9W0NIXVtDSDJdW0NASF0zQyhbQ0gzXSkoW0NIM10pW09IXSlbQ0BIXTFbQ0hdPUMoW0NASF0zW0NAXTI0W0NIM10pQyhbQ0gzXSkoW0NIM10pW0NAQEhdKFtDSDJdW0NIMl00KU9bQ0BASF01T1tDSDJdW0NIMl1bQ0gyXVtDQEhdNVtPSF0=

>  <s_epik_cmdline>  (212) 
J2VwaWtfcHl0aG9uJywgJy1waHQnLCAnMi4wJywgJy1waCcsICc3LjAnLCAnLXRuJywgJzgnLCAnLW1hJywgJzIwMCcsICctaW1hZScsICc8aW5maWxlLm1hZT4nLCAnLW9tYWUnLCAnPG91dGZpbGUubWFlPic=

>  <r_lp_tautomer_probability>  (212) 
1

>  <r_epik_Ionization_Penalty>  (212) 
3.22155e-06

>  <r_epik_Ionization_Penalty_Charging>  (212) 
0

>  <r_epik_Ionization_Penalty_Neutral>  (212) 
3.22155e-06

>  <r_epik_State_Penalty>  (212) 
-0

>  <r_epik_Charging_Adjusted_Penalty>  (212) 
0

>  <i_epik_Tot_Q>  (212) 
0

>  <i_epik_Tot_abs_Q>  (212) 
0

>  <s_epik_Chemistry_Notes>  (212) 
This compound contains an acetal/aminal-like group ( X-CH(R)-Y where X, Y are N, S, or O) that may be acid/base labile, releasing an aldehyde.

>  <s_lp_Force_Field>  (212) 
OPLS3e

>  <r_lp_Energy>  (212) 
153.14

>  <b_lp_Chiralities_Consistent>  (212) 
1

>  <s_lp_Variant>  (212) 
56:0-1

>  <s_i_glide_gridfile>  (212) 
pfpi4k_grid

>  <i_i_glide_lignum>  (212) 
35

>  <i_i_glide_rotatable_bonds>  (212) 
6

>  <r_i_docking_score>  (212) 
-2.01612

>  <r_i_glide_ligand_efficiency>  (212) 
-0.0544898

>  <r_i_glide_ligand_efficiency_sa>  (212) 
-0.181572

>  <r_i_glide_ligand_efficiency_ln>  (212) 
-0.437249

>  <r_i_glide_gscore>  (212) 
-2.01612

>  <r_i_glide_lipo>  (212) 
-0.236826

>  <r_i_glide_hbond>  (212) 
0

>  <r_i_glide_metal>  (212) 
-0

>  <r_i_glide_rewards>  (212) 
0

>  <r_i_glide_evdw>  (212) 
-25.5522

>  <r_i_glide_ecoul>  (212) 
-4.81986

>  <r_i_glide_erotb>  (212) 
0.230619

>  <r_i_glide_esite>  (212) 
-0.0093227

>  <r_i_glide_emodel>  (212) 
-33.2524

>  <r_i_glide_energy>  (212) 
-30.3721

>  <r_i_glide_einternal>  (212) 
0.797218

>  <r_i_glide_intrahb_reward>  (212) 
-0

>  <i_i_glide_confnum>  (212) 
5

>  <i_i_glide_posenum>  (212) 
7

>  <r_i_glide_eff_state_penalty>  (212) 
0

>  <ligand_id>  (212) 
56

>  <original_smiles>  (212) 
CC(C)(O)C1CC=C2C3C=C4C1C(C)(CCC(OC1OCCCC1O)C4(C)C)C2(C)CCC(O)C3(C)C

>  <smiles>  (212) 
[H]OC1([H])C([H])(OC2([H])C([H])([H])C([H])([H])C3(C([H])([H])[H])C4([H])C(=C([H])C5([H])C(=C([H])C([H])([H])C4([H])C(O[H])(C([H])([H])[H])C([H])([H])[H])C3(C([H])([H])[H])C([H])([H])C([H])([H])C([H])(O[H])C5(C([H])([H])[H])C([H])([H])[H])C2(C([H])([H])[H])C([H])([H])[H])OC([H])([H])C([H])([H])C1([H])[H]

$$$$
56:0:2
     RDKit          3D

 89 93  0  0  1  0  0  0  0  0999 V2000
    6.3467   -1.2261    7.8813 C   0  0  0  0  0  0  0  0  0  0  0  0
    5.2312   -0.8909    6.8585 C   0  0  0  0  0  0  0  0  0  0  0  0
    4.4263    0.2452    7.5300 C   0  0  0  0  0  0  0  0  0  0  0  0
    5.8891   -0.3965    5.7200 O   0  0  0  0  0  0  0  0  0  0  0  0
    4.3209   -2.1041    6.4474 C   0  0  2  0  0  0  0  0  0  0  0  0
    5.0653   -3.4779    6.3542 C   0  0  0  0  0  0  0  0  0  0  0  0
    5.0753   -3.9899    4.9506 C   0  0  0  0  0  0  0  0  0  0  0  0
    3.9600   -4.1791    4.2085 C   0  0  0  0  0  0  0  0  0  0  0  0
    4.0007   -3.5653    2.8449 C   0  0  1  0  0  0  0  0  0  0  0  0
    4.2053   -2.0657    2.9364 C   0  0  0  0  0  0  0  0  0  0  0  0
    3.6329   -1.2949    3.9194 C   0  0  0  0  0  0  0  0  0  0  0  0
    3.1766   -1.8484    5.3372 C   0  0  1  0  0  0  0  0  0  0  0  0
    2.0291   -2.9689    5.2956 C   0  0  1  0  0  0  0  0  0  0  0  0
    1.4873   -3.1562    6.7496 C   0  0  0  0  0  0  0  0  0  0  0  0
    0.7522   -2.3727    4.5912 C   0  0  0  0  0  0  0  0  0  0  0  0
    0.8682   -1.4000    3.3904 C   0  0  0  0  0  0  0  0  0  0  0  0
    1.4547    0.0136    3.6750 C   0  0  1  0  0  0  0  0  0  0  0  0
    1.0282    0.5099    4.9450 O   0  0  0  0  0  0  0  0  0  0  0  0
   -0.2956    0.9328    5.0455 C   0  0  2  0  0  0  0  0  0  0  0  0
   -0.4828    2.1341    4.3525 O   0  0  0  0  0  0  0  0  0  0  0  0
   -1.8194    2.6162    4.3827 C   0  0  0  0  0  0  0  0  0  0  0  0
   -2.2042    2.9603    5.8262 C   0  0  0  0  0  0  0  0  0  0  0  0
   -1.9923    1.7316    6.7218 C   0  0  0  0  0  0  0  0  0  0  0  0
   -0.5646    1.1915    6.5379 C   0  0  1  0  0  0  0  0  0  0  0  0
   -0.5007   -0.0039    7.2829 O   0  0  0  0  0  0  0  0  0  0  0  0
    3.0067    0.0760    3.4991 C   0  0  0  0  0  0  0  0  0  0  0  0
    3.5888    1.2991    4.2282 C   0  0  0  0  0  0  0  0  0  0  0  0
    3.2489    0.4279    1.9969 C   0  0  0  0  0  0  0  0  0  0  0  0
    2.5376   -4.3934    4.7169 C   0  0  2  0  0  0  0  0  0  0  0  0
    2.5251   -5.5606    5.7592 C   0  0  0  0  0  0  0  0  0  0  0  0
    1.6768   -5.0280    3.5433 C   0  0  0  0  0  0  0  0  0  0  0  0
    2.4270   -6.0264    2.5953 C   0  0  0  0  0  0  0  0  0  0  0  0
    3.1882   -5.4350    1.3619 C   0  0  1  0  0  0  0  0  0  0  0  0
    2.2153   -4.8330    0.5228 O   0  0  0  0  0  0  0  0  0  0  0  0
    4.4087   -4.4822    1.6574 C   0  0  0  0  0  0  0  0  0  0  0  0
    4.7776   -3.6615    0.3986 C   0  0  0  0  0  0  0  0  0  0  0  0
    5.6435   -5.3486    1.9896 C   0  0  0  0  0  0  0  0  0  0  0  0
    5.9419   -1.7570    8.7440 H   0  0  0  0  0  0  0  0  0  0  0  0
    6.8039   -0.3122    8.2624 H   0  0  0  0  0  0  0  0  0  0  0  0
    7.1680   -1.8145    7.4727 H   0  0  0  0  0  0  0  0  0  0  0  0
    4.2394    0.0225    8.5797 H   0  0  0  0  0  0  0  0  0  0  0  0
    3.4402    0.4045    7.1108 H   0  0  0  0  0  0  0  0  0  0  0  0
    4.9728    1.1866    7.4869 H   0  0  0  0  0  0  0  0  0  0  0  0
    6.3917   -1.1148    5.3427 H   0  0  0  0  0  0  0  0  0  0  0  0
    3.7815   -2.2135    7.3829 H   0  0  0  0  0  0  0  0  0  0  0  0
    6.1070   -3.4375    6.6622 H   0  0  0  0  0  0  0  0  0  0  0  0
    4.6361   -4.1907    7.0482 H   0  0  0  0  0  0  0  0  0  0  0  0
    5.9730   -3.7132    4.4253 H   0  0  0  0  0  0  0  0  0  0  0  0
    2.9923   -3.3443    2.5276 H   0  0  0  0  0  0  0  0  0  0  0  0
    4.4676   -1.6394    1.9849 H   0  0  0  0  0  0  0  0  0  0  0  0
    2.6534   -1.0064    5.7662 H   0  0  0  0  0  0  0  0  0  0  0  0
    0.5874   -3.7764    6.7662 H   0  0  0  0  0  0  0  0  0  0  0  0
    1.2201   -2.2017    7.2047 H   0  0  0  0  0  0  0  0  0  0  0  0
    2.1927   -3.6090    7.4417 H   0  0  0  0  0  0  0  0  0  0  0  0
    0.0521   -3.1703    4.3391 H   0  0  0  0  0  0  0  0  0  0  0  0
    0.1735   -1.8124    5.3227 H   0  0  0  0  0  0  0  0  0  0  0  0
    1.3487   -1.8682    2.5307 H   0  0  0  0  0  0  0  0  0  0  0  0
   -0.1507   -1.2198    3.0646 H   0  0  0  0  0  0  0  0  0  0  0  0
    1.0257    0.6855    2.9303 H   0  0  0  0  0  0  0  0  0  0  0  0
   -0.9839    0.1875    4.6451 H   0  0  0  0  0  0  0  0  0  0  0  0
   -1.8754    3.5092    3.7586 H   0  0  0  0  0  0  0  0  0  0  0  0
   -2.5043    1.8814    3.9546 H   0  0  0  0  0  0  0  0  0  0  0  0
   -1.5820    3.7803    6.1894 H   0  0  0  0  0  0  0  0  0  0  0  0
   -3.2403    3.2981    5.8786 H   0  0  0  0  0  0  0  0  0  0  0  0
   -2.1771    2.0003    7.7623 H   0  0  0  0  0  0  0  0  0  0  0  0
   -2.7232    0.9562    6.4762 H   0  0  0  0  0  0  0  0  0  0  0  0
    0.1693    1.9094    6.9129 H   0  0  0  0  0  0  0  0  0  0  0  0
    0.3997   -0.3029    7.2198 H   0  0  0  0  0  0  0  0  0  0  0  0
    3.1521    2.2237    3.8518 H   0  0  0  0  0  0  0  0  0  0  0  0
    4.6640    1.3670    4.0862 H   0  0  0  0  0  0  0  0  0  0  0  0
    3.3803    1.2968    5.2875 H   0  0  0  0  0  0  0  0  0  0  0  0
    2.8198    1.3984    1.7435 H   0  0  0  0  0  0  0  0  0  0  0  0
    2.8084   -0.2934    1.3024 H   0  0  0  0  0  0  0  0  0  0  0  0
    4.3137    0.5166    1.7782 H   0  0  0  0  0  0  0  0  0  0  0  0
    1.5113   -5.8264    6.0594 H   0  0  0  0  0  0  0  0  0  0  0  0
    3.0625   -5.3845    6.6796 H   0  0  0  0  0  0  0  0  0  0  0  0
    2.9686   -6.4646    5.3478 H   0  0  0  0  0  0  0  0  0  0  0  0
    0.8193   -5.5460    3.9719 H   0  0  0  0  0  0  0  0  0  0  0  0
    1.2029   -4.2823    2.9060 H   0  0  0  0  0  0  0  0  0  0  0  0
    3.0971   -6.6761    3.1579 H   0  0  0  0  0  0  0  0  0  0  0  0
    1.6733   -6.7012    2.1928 H   0  0  0  0  0  0  0  0  0  0  0  0
    3.5607   -6.2776    0.7761 H   0  0  0  0  0  0  0  0  0  0  0  0
    2.6426   -4.6118   -0.3007 H   0  0  0  0  0  0  0  0  0  0  0  0
    4.9603   -4.3083   -0.4610 H   0  0  0  0  0  0  0  0  0  0  0  0
    5.6866   -3.0829    0.5635 H   0  0  0  0  0  0  0  0  0  0  0  0
    3.9921   -2.9560    0.1200 H   0  0  0  0  0  0  0  0  0  0  0  0
    5.9385   -5.9518    1.1307 H   0  0  0  0  0  0  0  0  0  0  0  0
    5.4570   -6.0397    2.8099 H   0  0  0  0  0  0  0  0  0  0  0  0
    6.5009   -4.7340    2.2559 H   0  0  0  0  0  0  0  0  0  0  0  0
  1  2  1  0
  1 38  1  0
  1 39  1  0
  1 40  1  0
  2  3  1  0
  2  4  1  0
  2  5  1  0
  3 41  1  0
  3 42  1  0
  3 43  1  0
  4 44  1  0
  5 12  1  0
  5  6  1  0
  5 45  1  1
  6  7  1  0
  6 46  1  0
  6 47  1  0
  7  8  2  0
  7 48  1  0
  8 29  1  0
  8  9  1  0
  9 35  1  0
  9 10  1  0
  9 49  1  6
 10 11  2  0
 10 50  1  0
 11 26  1  0
 11 12  1  0
 12 13  1  0
 12 51  1  1
 13 14  1  1
 13 15  1  0
 13 29  1  0
 14 52  1  0
 14 53  1  0
 14 54  1  0
 15 16  1  0
 15 55  1  0
 15 56  1  0
 16 17  1  0
 16 57  1  0
 16 58  1  0
 17 18  1  0
 17 26  1  0
 17 59  1  6
 18 19  1  0
 19 24  1  0
 19 20  1  0
 19 60  1  6
 20 21  1  0
 21 22  1  0
 21 61  1  0
 21 62  1  0
 22 23  1  0
 22 63  1  0
 22 64  1  0
 23 24  1  0
 23 65  1  0
 23 66  1  0
 24 25  1  0
 24 67  1  1
 25 68  1  0
 26 27  1  0
 26 28  1  0
 27 69  1  0
 27 70  1  0
 27 71  1  0
 28 72  1  0
 28 73  1  0
 28 74  1  0
 29 30  1  1
 29 31  1  0
 30 75  1  0
 30 76  1  0
 30 77  1  0
 31 32  1  0
 31 78  1  0
 31 79  1  0
 32 33  1  0
 32 80  1  0
 32 81  1  0
 33 34  1  0
 33 35  1  0
 33 82  1  6
 34 83  1  0
 35 36  1  0
 35 37  1  0
 36 84  1  0
 36 85  1  0
 36 86  1  0
 37 87  1  0
 37 88  1  0
 37 89  1  0
M  END
>  <i_m_ct_stereo_status>  (213) 
1

>  <s_m_source_file>  (213) 
/var/tmp/pbs.5076255.sched01/tmpn9kf4o8v/46f5dlbpu8.sdf

>  <i_m_source_file_index>  (213) 
35

>  <i_lp_mmshare_version>  (213) 
48012

>  <i_f3d_flags>  (213) 
0

>  <s_epik_input>  (213) 
W0NIM11DMShbQ0gzXSlbQ0BIXShbT0hdKVtDSDJdW0NIMl1bQ0BAXTIoW0NIM10pQyg9W0NIXVtDSDJdW0NASF0zQyhbQ0gzXSkoW0NIM10pW09IXSlbQ0BIXTFbQ0hdPUMoW0NASF0zW0NAXTI0W0NIM10pQyhbQ0gzXSkoW0NIM10pW0NAQEhdKFtDSDJdW0NIMl00KU9bQ0BASF01T1tDSDJdW0NIMl1bQ0gyXVtDQEhdNVtPSF0=

>  <s_epik_cmdline>  (213) 
J2VwaWtfcHl0aG9uJywgJy1waHQnLCAnMi4wJywgJy1waCcsICc3LjAnLCAnLXRuJywgJzgnLCAnLW1hJywgJzIwMCcsICctaW1hZScsICc8aW5maWxlLm1hZT4nLCAnLW9tYWUnLCAnPG91dGZpbGUubWFlPic=

>  <r_lp_tautomer_probability>  (213) 
1

>  <r_epik_Ionization_Penalty>  (213) 
3.22155e-06

>  <r_epik_Ionization_Penalty_Charging>  (213) 
0

>  <r_epik_Ionization_Penalty_Neutral>  (213) 
3.22155e-06

>  <r_epik_State_Penalty>  (213) 
-0

>  <r_epik_Charging_Adjusted_Penalty>  (213) 
0

>  <i_epik_Tot_Q>  (213) 
0

>  <i_epik_Tot_abs_Q>  (213) 
0

>  <s_epik_Chemistry_Notes>  (213) 
This compound contains an acetal/aminal-like group ( X-CH(R)-Y where X, Y are N, S, or O) that may be acid/base labile, releasing an aldehyde.

>  <s_lp_Force_Field>  (213) 
OPLS3e

>  <r_lp_Energy>  (213) 
153.14

>  <b_lp_Chiralities_Consistent>  (213) 
1

>  <s_lp_Variant>  (213) 
56:0-1

>  <s_i_glide_gridfile>  (213) 
pfpi4k_grid

>  <i_i_glide_lignum>  (213) 
35

>  <i_i_glide_rotatable_bonds>  (213) 
6

>  <r_i_docking_score>  (213) 
-1.91676

>  <r_i_glide_ligand_efficiency>  (213) 
-0.0518044

>  <r_i_glide_ligand_efficiency_sa>  (213) 
-0.172624

>  <r_i_glide_ligand_efficiency_ln>  (213) 
-0.415701

>  <r_i_glide_gscore>  (213) 
-1.91676

>  <r_i_glide_lipo>  (213) 
-0.282919

>  <r_i_glide_hbond>  (213) 
-0.0185576

>  <r_i_glide_metal>  (213) 
-0

>  <r_i_glide_rewards>  (213) 
0

>  <r_i_glide_evdw>  (213) 
-26.0021

>  <r_i_glide_ecoul>  (213) 
-3.55472

>  <r_i_glide_erotb>  (213) 
0.230619

>  <r_i_glide_esite>  (213) 
-0.0125919

>  <r_i_glide_emodel>  (213) 
-32.728

>  <r_i_glide_energy>  (213) 
-29.5568

>  <r_i_glide_einternal>  (213) 
1.54481

>  <r_i_glide_intrahb_reward>  (213) 
-0

>  <i_i_glide_confnum>  (213) 
6

>  <i_i_glide_posenum>  (213) 
17

>  <r_i_glide_eff_state_penalty>  (213) 
0

>  <ligand_id>  (213) 
56

>  <original_smiles>  (213) 
CC(C)(O)C1CC=C2C3C=C4C1C(C)(CCC(OC1OCCCC1O)C4(C)C)C2(C)CCC(O)C3(C)C

>  <smiles>  (213) 
[H]OC1([H])C([H])(OC2([H])C([H])([H])C([H])([H])C3(C([H])([H])[H])C4([H])C(=C([H])C5([H])C(=C([H])C([H])([H])C4([H])C(O[H])(C([H])([H])[H])C([H])([H])[H])C3(C([H])([H])[H])C([H])([H])C([H])([H])C([H])(O[H])C5(C([H])([H])[H])C([H])([H])[H])C2(C([H])([H])[H])C([H])([H])[H])OC([H])([H])C([H])([H])C1([H])[H]

$$$$
56:1:0
     RDKit          3D

 89 93  0  0  1  0  0  0  0  0999 V2000
    3.6974   -0.7357    8.0019 C   0  0  0  0  0  0  0  0  0  0  0  0
    4.6306   -1.6320    7.1496 C   0  0  0  0  0  0  0  0  0  0  0  0
    6.0925   -1.3185    7.5367 C   0  0  0  0  0  0  0  0  0  0  0  0
    4.4157   -2.9560    7.6216 O   0  0  0  0  0  0  0  0  0  0  0  0
    4.3908   -1.5811    5.5939 C   0  0  2  0  0  0  0  0  0  0  0  0
    4.8242   -0.2208    4.9653 C   0  0  0  0  0  0  0  0  0  0  0  0
    3.6594    0.6967    4.9273 C   0  0  0  0  0  0  0  0  0  0  0  0
    2.5208    0.3206    4.3115 C   0  0  0  0  0  0  0  0  0  0  0  0
    1.2769    0.3819    5.1914 C   0  0  2  0  0  0  0  0  0  0  0  0
    0.9324   -1.0259    5.7124 C   0  0  0  0  0  0  0  0  0  0  0  0
    1.6678   -2.1855    5.6692 C   0  0  0  0  0  0  0  0  0  0  0  0
    3.0715   -2.2703    4.9761 C   0  0  1  0  0  0  0  0  0  0  0  0
    2.8807   -2.1087    3.4193 C   0  0  1  0  0  0  0  0  0  0  0  0
    4.1755   -2.6274    2.6996 C   0  0  0  0  0  0  0  0  0  0  0  0
    1.8218   -3.1508    2.9197 C   0  0  0  0  0  0  0  0  0  0  0  0
    1.6840   -4.4929    3.6832 C   0  0  0  0  0  0  0  0  0  0  0  0
    0.6618   -4.4433    4.8618 C   0  0  1  0  0  0  0  0  0  0  0  0
    0.3088   -5.7603    5.3123 O   0  0  0  0  0  0  0  0  0  0  0  0
    0.4942   -6.8188    4.4142 C   0  0  2  0  0  0  0  0  0  0  0  0
   -0.4110   -6.6978    3.3378 O   0  0  0  0  0  0  0  0  0  0  0  0
   -0.1846   -7.6656    2.3157 C   0  0  0  0  0  0  0  0  0  0  0  0
   -0.4428   -9.0645    2.8820 C   0  0  0  0  0  0  0  0  0  0  0  0
    0.4429   -9.2948    4.1106 C   0  0  0  0  0  0  0  0  0  0  0  0
    0.2535   -8.1686    5.1360 C   0  0  1  0  0  0  0  0  0  0  0  0
    1.2312   -8.3653    6.1459 O   0  0  0  0  0  0  0  0  0  0  0  0
    1.0414   -3.5591    6.1021 C   0  0  0  0  0  0  0  0  0  0  0  0
    1.9681   -4.3849    7.0296 C   0  0  0  0  0  0  0  0  0  0  0  0
   -0.2407   -3.3665    6.9584 C   0  0  0  0  0  0  0  0  0  0  0  0
    2.4768   -0.5842    3.0497 C   0  0  2  0  0  0  0  0  0  0  0  0
    3.3811    0.0105    1.9255 C   0  0  0  0  0  0  0  0  0  0  0  0
    1.0392   -0.4620    2.4299 C   0  0  0  0  0  0  0  0  0  0  0  0
    0.4479    0.9221    2.1054 C   0  0  0  0  0  0  0  0  0  0  0  0
    0.4220    1.9380    3.2626 C   0  0  1  0  0  0  0  0  0  0  0  0
   -0.5037    2.9521    2.9056 O   0  0  0  0  0  0  0  0  0  0  0  0
    0.1148    1.3446    4.6895 C   0  0  0  0  0  0  0  0  0  0  0  0
   -1.2979    0.6926    4.7374 C   0  0  0  0  0  0  0  0  0  0  0  0
    0.0543    2.5437    5.6736 C   0  0  0  0  0  0  0  0  0  0  0  0
    3.8068    0.3175    7.7517 H   0  0  0  0  0  0  0  0  0  0  0  0
    3.9469   -0.8303    9.0537 H   0  0  0  0  0  0  0  0  0  0  0  0
    2.6495   -1.0075    7.8936 H   0  0  0  0  0  0  0  0  0  0  0  0
    6.3080   -0.2547    7.5061 H   0  0  0  0  0  0  0  0  0  0  0  0
    6.7982   -1.8290    6.8878 H   0  0  0  0  0  0  0  0  0  0  0  0
    6.3074   -1.6335    8.5548 H   0  0  0  0  0  0  0  0  0  0  0  0
    5.0317   -3.5450    7.1516 H   0  0  0  0  0  0  0  0  0  0  0  0
    5.1776   -2.2465    5.2418 H   0  0  0  0  0  0  0  0  0  0  0  0
    5.6227    0.2738    5.5158 H   0  0  0  0  0  0  0  0  0  0  0  0
    5.2446   -0.3300    3.9817 H   0  0  0  0  0  0  0  0  0  0  0  0
    3.5832    1.2878    5.8292 H   0  0  0  0  0  0  0  0  0  0  0  0
    1.5873    0.8251    6.1378 H   0  0  0  0  0  0  0  0  0  0  0  0
   -0.0319   -1.0525    6.1797 H   0  0  0  0  0  0  0  0  0  0  0  0
    3.3750   -3.2964    5.1213 H   0  0  0  0  0  0  0  0  0  0  0  0
    4.0767   -2.6110    1.6125 H   0  0  0  0  0  0  0  0  0  0  0  0
    4.3751   -3.6632    2.9670 H   0  0  0  0  0  0  0  0  0  0  0  0
    5.0856   -2.0913    2.9291 H   0  0  0  0  0  0  0  0  0  0  0  0
    0.7910   -2.8126    2.8951 H   0  0  0  0  0  0  0  0  0  0  0  0
    2.0250   -3.3800    1.8735 H   0  0  0  0  0  0  0  0  0  0  0  0
    1.2982   -5.1589    2.9308 H   0  0  0  0  0  0  0  0  0  0  0  0
    2.6534   -4.8945    3.9562 H   0  0  0  0  0  0  0  0  0  0  0  0
   -0.2597   -4.0324    4.4603 H   0  0  0  0  0  0  0  0  0  0  0  0
    1.5014   -6.7845    4.0226 H   0  0  0  0  0  0  0  0  0  0  0  0
   -0.8692   -7.4621    1.4929 H   0  0  0  0  0  0  0  0  0  0  0  0
    0.8284   -7.5758    1.9181 H   0  0  0  0  0  0  0  0  0  0  0  0
   -1.4896   -9.1519    3.1766 H   0  0  0  0  0  0  0  0  0  0  0  0
   -0.2582   -9.8247    2.1236 H   0  0  0  0  0  0  0  0  0  0  0  0
    0.2172  -10.2590    4.5536 H   0  0  0  0  0  0  0  0  0  0  0  0
    1.4861   -9.3325    3.7914 H   0  0  0  0  0  0  0  0  0  0  0  0
   -0.7520   -8.1835    5.5779 H   0  0  0  0  0  0  0  0  0  0  0  0
    1.1570   -9.2593    6.4964 H   0  0  0  0  0  0  0  0  0  0  0  0
    1.4424   -5.2492    7.4511 H   0  0  0  0  0  0  0  0  0  0  0  0
    2.3332   -3.7759    7.8641 H   0  0  0  0  0  0  0  0  0  0  0  0
    2.8259   -4.8069    6.5133 H   0  0  0  0  0  0  0  0  0  0  0  0
   -0.6186   -4.3148    7.3388 H   0  0  0  0  0  0  0  0  0  0  0  0
   -1.0622   -2.9157    6.3996 H   0  0  0  0  0  0  0  0  0  0  0  0
   -0.0348   -2.7431    7.8310 H   0  0  0  0  0  0  0  0  0  0  0  0
    3.2019   -0.4848    0.9696 H   0  0  0  0  0  0  0  0  0  0  0  0
    4.4499   -0.0579    2.1011 H   0  0  0  0  0  0  0  0  0  0  0  0
    3.1783    1.0690    1.7746 H   0  0  0  0  0  0  0  0  0  0  0  0
    1.0055   -1.0418    1.5124 H   0  0  0  0  0  0  0  0  0  0  0  0
    0.3107   -0.9109    3.0933 H   0  0  0  0  0  0  0  0  0  0  0  0
    0.9560    1.3585    1.2484 H   0  0  0  0  0  0  0  0  0  0  0  0
   -0.5734    0.7505    1.7630 H   0  0  0  0  0  0  0  0  0  0  0  0
    1.3954    2.4337    3.2987 H   0  0  0  0  0  0  0  0  0  0  0  0
   -0.1833    3.4275    2.1369 H   0  0  0  0  0  0  0  0  0  0  0  0
   -2.0582    1.3749    4.3605 H   0  0  0  0  0  0  0  0  0  0  0  0
   -1.5872    0.4489    5.7594 H   0  0  0  0  0  0  0  0  0  0  0  0
   -1.3793   -0.2180    4.1493 H   0  0  0  0  0  0  0  0  0  0  0  0
   -0.7499    3.2351    5.4279 H   0  0  0  0  0  0  0  0  0  0  0  0
    0.9856    3.1120    5.6589 H   0  0  0  0  0  0  0  0  0  0  0  0
   -0.1199    2.2166    6.6987 H   0  0  0  0  0  0  0  0  0  0  0  0
  1  2  1  0
  1 38  1  0
  1 39  1  0
  1 40  1  0
  2  3  1  0
  2  4  1  0
  2  5  1  0
  3 41  1  0
  3 42  1  0
  3 43  1  0
  4 44  1  0
  5 12  1  0
  5  6  1  0
  5 45  1  6
  6  7  1  0
  6 46  1  0
  6 47  1  0
  7  8  2  0
  7 48  1  0
  8 29  1  0
  8  9  1  0
  9 35  1  0
  9 10  1  0
  9 49  1  1
 10 11  2  0
 10 50  1  0
 11 26  1  0
 11 12  1  0
 12 13  1  0
 12 51  1  6
 13 14  1  6
 13 15  1  0
 13 29  1  0
 14 52  1  0
 14 53  1  0
 14 54  1  0
 15 16  1  0
 15 55  1  0
 15 56  1  0
 16 17  1  0
 16 57  1  0
 16 58  1  0
 17 18  1  0
 17 26  1  0
 17 59  1  6
 18 19  1  0
 19 24  1  0
 19 20  1  0
 19 60  1  6
 20 21  1  0
 21 22  1  0
 21 61  1  0
 21 62  1  0
 22 23  1  0
 22 63  1  0
 22 64  1  0
 23 24  1  0
 23 65  1  0
 23 66  1  0
 24 25  1  0
 24 67  1  1
 25 68  1  0
 26 27  1  0
 26 28  1  0
 27 69  1  0
 27 70  1  0
 27 71  1  0
 28 72  1  0
 28 73  1  0
 28 74  1  0
 29 30  1  6
 29 31  1  0
 30 75  1  0
 30 76  1  0
 30 77  1  0
 31 32  1  0
 31 78  1  0
 31 79  1  0
 32 33  1  0
 32 80  1  0
 32 81  1  0
 33 34  1  0
 33 35  1  0
 33 82  1  1
 34 83  1  0
 35 36  1  0
 35 37  1  0
 36 84  1  0
 36 85  1  0
 36 86  1  0
 37 87  1  0
 37 88  1  0
 37 89  1  0
M  END
>  <i_m_ct_stereo_status>  (214) 
1

>  <s_m_source_file>  (214) 
/var/tmp/pbs.5076255.sched01/tmpn9kf4o8v/46f5dlbpu8.sdf

>  <i_m_source_file_index>  (214) 
36

>  <i_lp_mmshare_version>  (214) 
48012

>  <i_f3d_flags>  (214) 
0

>  <s_epik_input>  (214) 
W0NIM11DMShbQ0gzXSlbQ0BIXShbT0hdKVtDSDJdW0NIMl1bQ0BAXTIoW0NIM10pQyg9W0NIXVtDSDJdW0NASF0zQyhbQ0gzXSkoW0NIM10pW09IXSlbQ0BIXTFbQ0hdPUMoW0NASF0zW0NAXTI0W0NIM10pQyhbQ0gzXSkoW0NIM10pW0NAQEhdKFtDSDJdW0NIMl00KU9bQ0BASF01T1tDSDJdW0NIMl1bQ0gyXVtDQEhdNVtPSF0=

>  <s_epik_cmdline>  (214) 
J2VwaWtfcHl0aG9uJywgJy1waHQnLCAnMi4wJywgJy1waCcsICc3LjAnLCAnLXRuJywgJzgnLCAnLW1hJywgJzIwMCcsICctaW1hZScsICc8aW5maWxlLm1hZT4nLCAnLW9tYWUnLCAnPG91dGZpbGUubWFlPic=

>  <r_lp_tautomer_probability>  (214) 
1

>  <r_epik_Ionization_Penalty>  (214) 
3.22155e-06

>  <r_epik_Ionization_Penalty_Charging>  (214) 
0

>  <r_epik_Ionization_Penalty_Neutral>  (214) 
3.22155e-06

>  <r_epik_State_Penalty>  (214) 
-0

>  <r_epik_Charging_Adjusted_Penalty>  (214) 
0

>  <i_epik_Tot_Q>  (214) 
0

>  <i_epik_Tot_abs_Q>  (214) 
0

>  <s_epik_Chemistry_Notes>  (214) 
This compound contains an acetal/aminal-like group ( X-CH(R)-Y where X, Y are N, S, or O) that may be acid/base labile, releasing an aldehyde.

>  <s_lp_Force_Field>  (214) 
OPLS3e

>  <r_lp_Energy>  (214) 
132.844

>  <b_lp_Chiralities_Consistent>  (214) 
1

>  <s_lp_Variant>  (214) 
56:0-2

>  <s_i_glide_gridfile>  (214) 
pfpi4k_grid

>  <i_i_glide_lignum>  (214) 
36

>  <i_i_glide_rotatable_bonds>  (214) 
6

>  <r_i_docking_score>  (214) 
-2.77233

>  <r_i_glide_ligand_efficiency>  (214) 
-0.0749279

>  <r_i_glide_ligand_efficiency_sa>  (214) 
-0.249676

>  <r_i_glide_ligand_efficiency_ln>  (214) 
-0.601254

>  <r_i_glide_gscore>  (214) 
-2.77233

>  <r_i_glide_lipo>  (214) 
-0.0812064

>  <r_i_glide_hbond>  (214) 
-0.29676

>  <r_i_glide_metal>  (214) 
-0

>  <r_i_glide_rewards>  (214) 
0

>  <r_i_glide_evdw>  (214) 
-31.3069

>  <r_i_glide_ecoul>  (214) 
-6.93568

>  <r_i_glide_erotb>  (214) 
0.230619

>  <r_i_glide_esite>  (214) 
-0.0192896

>  <r_i_glide_emodel>  (214) 
-36.7476

>  <r_i_glide_energy>  (214) 
-38.2425

>  <r_i_glide_einternal>  (214) 
14.9614

>  <r_i_glide_intrahb_reward>  (214) 
-0

>  <i_i_glide_confnum>  (214) 
1

>  <i_i_glide_posenum>  (214) 
36

>  <r_i_glide_eff_state_penalty>  (214) 
0

>  <ligand_id>  (214) 
56

>  <original_smiles>  (214) 
CC(C)(O)C1CC=C2C3C=C4C1C(C)(CCC(OC1OCCCC1O)C4(C)C)C2(C)CCC(O)C3(C)C

>  <smiles>  (214) 
[H]OC1([H])C([H])(OC2([H])C([H])([H])C([H])([H])C3(C([H])([H])[H])C4([H])C(=C([H])C5([H])C(=C([H])C([H])([H])C4([H])C(O[H])(C([H])([H])[H])C([H])([H])[H])C3(C([H])([H])[H])C([H])([H])C([H])([H])C([H])(O[H])C5(C([H])([H])[H])C([H])([H])[H])C2(C([H])([H])[H])C([H])([H])[H])OC([H])([H])C([H])([H])C1([H])[H]

$$$$
56:1:1
     RDKit          3D

 89 93  0  0  1  0  0  0  0  0999 V2000
    5.9861   -1.0927    7.7042 C   0  0  0  0  0  0  0  0  0  0  0  0
    4.6306   -1.6629    7.1997 C   0  0  0  0  0  0  0  0  0  0  0  0
    4.6038   -3.1243    7.6952 C   0  0  0  0  0  0  0  0  0  0  0  0
    3.6226   -0.9002    7.8379 O   0  0  0  0  0  0  0  0  0  0  0  0
    4.4130   -1.5815    5.6249 C   0  0  2  0  0  0  0  0  0  0  0  0
    4.8374   -0.2120    4.9828 C   0  0  0  0  0  0  0  0  0  0  0  0
    3.6516    0.6832    4.9599 C   0  0  0  0  0  0  0  0  0  0  0  0
    2.5249    0.3162    4.3312 C   0  0  0  0  0  0  0  0  0  0  0  0
    1.2717    0.3825    5.1987 C   0  0  2  0  0  0  0  0  0  0  0  0
    0.9315   -1.0286    5.7227 C   0  0  0  0  0  0  0  0  0  0  0  0
    1.6616   -2.1988    5.6868 C   0  0  0  0  0  0  0  0  0  0  0  0
    3.0869   -2.2688    4.9952 C   0  0  1  0  0  0  0  0  0  0  0  0
    2.8841   -2.1126    3.4344 C   0  0  1  0  0  0  0  0  0  0  0  0
    4.1813   -2.6378    2.7238 C   0  0  0  0  0  0  0  0  0  0  0  0
    1.8188   -3.1527    2.9265 C   0  0  0  0  0  0  0  0  0  0  0  0
    1.6687   -4.4696    3.6949 C   0  0  0  0  0  0  0  0  0  0  0  0
    0.6289   -4.4378    4.8633 C   0  0  1  0  0  0  0  0  0  0  0  0
    0.2857   -5.7647    5.3113 O   0  0  0  0  0  0  0  0  0  0  0  0
    0.5133   -6.8284    4.4221 C   0  0  2  0  0  0  0  0  0  0  0  0
   -0.3750   -6.7159    3.3415 O   0  0  0  0  0  0  0  0  0  0  0  0
   -0.1385   -7.6726    2.3140 C   0  0  0  0  0  0  0  0  0  0  0  0
   -0.3933   -9.0664    2.8833 C   0  0  0  0  0  0  0  0  0  0  0  0
    0.4912   -9.2882    4.1148 C   0  0  0  0  0  0  0  0  0  0  0  0
    0.2723   -8.1668    5.1572 C   0  0  1  0  0  0  0  0  0  0  0  0
    1.2568   -8.3500    6.1554 O   0  0  0  0  0  0  0  0  0  0  0  0
    1.0046   -3.5638    6.1183 C   0  0  0  0  0  0  0  0  0  0  0  0
    1.8377   -4.4390    7.0647 C   0  0  0  0  0  0  0  0  0  0  0  0
   -0.2876   -3.3543    6.9636 C   0  0  0  0  0  0  0  0  0  0  0  0
    2.4872   -0.5858    3.0596 C   0  0  2  0  0  0  0  0  0  0  0  0
    3.3961    0.0058    1.9391 C   0  0  0  0  0  0  0  0  0  0  0  0
    1.0497   -0.4702    2.4318 C   0  0  0  0  0  0  0  0  0  0  0  0
    0.4580    0.9142    2.1072 C   0  0  0  0  0  0  0  0  0  0  0  0
    0.4188    1.9317    3.2614 C   0  0  1  0  0  0  0  0  0  0  0  0
   -0.5031    2.9412    2.8986 O   0  0  0  0  0  0  0  0  0  0  0  0
    0.1103    1.3434    4.6929 C   0  0  0  0  0  0  0  0  0  0  0  0
   -1.3000    0.6944    4.7328 C   0  0  0  0  0  0  0  0  0  0  0  0
    0.0480    2.5470    5.6697 C   0  0  0  0  0  0  0  0  0  0  0  0
    6.8182   -1.6422    7.2387 H   0  0  0  0  0  0  0  0  0  0  0  0
    6.0628   -1.2689    8.7857 H   0  0  0  0  0  0  0  0  0  0  0  0
    6.1255   -0.0067    7.5466 H   0  0  0  0  0  0  0  0  0  0  0  0
    5.5786   -3.6117    7.5542 H   0  0  0  0  0  0  0  0  0  0  0  0
    3.8893   -3.5915    7.1362 H   0  0  0  0  0  0  0  0  0  0  0  0
    4.3562   -3.1557    8.7619 H   0  0  0  0  0  0  0  0  0  0  0  0
    3.7963   -0.9222    8.7796 H   0  0  0  0  0  0  0  0  0  0  0  0
    5.2119   -2.2324    5.2737 H   0  0  0  0  0  0  0  0  0  0  0  0
    5.6369    0.2805    5.5171 H   0  0  0  0  0  0  0  0  0  0  0  0
    5.2430   -0.3306    3.9906 H   0  0  0  0  0  0  0  0  0  0  0  0
    3.5809    1.2615    5.8672 H   0  0  0  0  0  0  0  0  0  0  0  0
    1.5787    0.8250    6.1475 H   0  0  0  0  0  0  0  0  0  0  0  0
   -0.0379   -1.0462    6.1854 H   0  0  0  0  0  0  0  0  0  0  0  0
    3.3581   -3.3051    5.1172 H   0  0  0  0  0  0  0  0  0  0  0  0
    4.0907   -2.6248    1.6345 H   0  0  0  0  0  0  0  0  0  0  0  0
    4.3843   -3.6714    2.9965 H   0  0  0  0  0  0  0  0  0  0  0  0
    5.0892   -2.0958    2.9606 H   0  0  0  0  0  0  0  0  0  0  0  0
    0.7917   -2.8139    2.8879 H   0  0  0  0  0  0  0  0  0  0  0  0
    2.0374   -3.4083    1.8870 H   0  0  0  0  0  0  0  0  0  0  0  0
    1.2827   -5.1243    2.9190 H   0  0  0  0  0  0  0  0  0  0  0  0
    2.6281   -4.9050    3.9834 H   0  0  0  0  0  0  0  0  0  0  0  0
   -0.2919   -4.0200    4.4603 H   0  0  0  0  0  0  0  0  0  0  0  0
    1.5401   -6.8114    4.0719 H   0  0  0  0  0  0  0  0  0  0  0  0
   -0.8190   -7.4641    1.4891 H   0  0  0  0  0  0  0  0  0  0  0  0
    0.8702   -7.5664    1.9219 H   0  0  0  0  0  0  0  0  0  0  0  0
   -1.4399   -9.1561    3.1683 H   0  0  0  0  0  0  0  0  0  0  0  0
   -0.1995   -9.8237    2.1185 H   0  0  0  0  0  0  0  0  0  0  0  0
    0.2564  -10.2531    4.5595 H   0  0  0  0  0  0  0  0  0  0  0  0
    1.5378   -9.3420    3.7995 H   0  0  0  0  0  0  0  0  0  0  0  0
   -0.7387   -8.1884    5.5699 H   0  0  0  0  0  0  0  0  0  0  0  0
    1.1769   -9.2405    6.5158 H   0  0  0  0  0  0  0  0  0  0  0  0
    1.3021   -5.2837    7.4836 H   0  0  0  0  0  0  0  0  0  0  0  0
    2.2783   -3.8249    7.8732 H   0  0  0  0  0  0  0  0  0  0  0  0
    2.6690   -4.9013    6.5241 H   0  0  0  0  0  0  0  0  0  0  0  0
   -0.6581   -4.3013    7.3496 H   0  0  0  0  0  0  0  0  0  0  0  0
   -1.1044   -2.8991    6.4064 H   0  0  0  0  0  0  0  0  0  0  0  0
   -0.0674   -2.7363    7.8430 H   0  0  0  0  0  0  0  0  0  0  0  0
    3.2219   -0.4896    0.9814 H   0  0  0  0  0  0  0  0  0  0  0  0
    4.4635   -0.0636    2.1205 H   0  0  0  0  0  0  0  0  0  0  0  0
    3.1939    1.0610    1.7835 H   0  0  0  0  0  0  0  0  0  0  0  0
    1.0193   -1.0496    1.5121 H   0  0  0  0  0  0  0  0  0  0  0  0
    0.3177   -0.9221    3.0912 H   0  0  0  0  0  0  0  0  0  0  0  0
    0.9640    1.3523    1.2450 H   0  0  0  0  0  0  0  0  0  0  0  0
   -0.5612    0.7370    1.7518 H   0  0  0  0  0  0  0  0  0  0  0  0
    1.3855    2.4373    3.2934 H   0  0  0  0  0  0  0  0  0  0  0  0
   -0.1894    3.4113    2.1352 H   0  0  0  0  0  0  0  0  0  0  0  0
   -2.0626    1.3733    4.3508 H   0  0  0  0  0  0  0  0  0  0  0  0
   -1.5957    0.4537    5.7554 H   0  0  0  0  0  0  0  0  0  0  0  0
   -1.3757   -0.2162    4.1461 H   0  0  0  0  0  0  0  0  0  0  0  0
   -0.7542    3.2442    5.4259 H   0  0  0  0  0  0  0  0  0  0  0  0
    0.9765    3.1185    5.6673 H   0  0  0  0  0  0  0  0  0  0  0  0
   -0.1321    2.2243    6.6969 H   0  0  0  0  0  0  0  0  0  0  0  0
  1  2  1  0
  1 38  1  0
  1 39  1  0
  1 40  1  0
  2  3  1  0
  2  4  1  0
  2  5  1  0
  3 41  1  0
  3 42  1  0
  3 43  1  0
  4 44  1  0
  5 12  1  0
  5  6  1  0
  5 45  1  6
  6  7  1  0
  6 46  1  0
  6 47  1  0
  7  8  2  0
  7 48  1  0
  8 29  1  0
  8  9  1  0
  9 35  1  0
  9 10  1  0
  9 49  1  1
 10 11  2  0
 10 50  1  0
 11 26  1  0
 11 12  1  0
 12 13  1  0
 12 51  1  6
 13 14  1  6
 13 15  1  0
 13 29  1  0
 14 52  1  0
 14 53  1  0
 14 54  1  0
 15 16  1  0
 15 55  1  0
 15 56  1  0
 16 17  1  0
 16 57  1  0
 16 58  1  0
 17 18  1  0
 17 26  1  0
 17 59  1  6
 18 19  1  0
 19 24  1  0
 19 20  1  0
 19 60  1  6
 20 21  1  0
 21 22  1  0
 21 61  1  0
 21 62  1  0
 22 23  1  0
 22 63  1  0
 22 64  1  0
 23 24  1  0
 23 65  1  0
 23 66  1  0
 24 25  1  0
 24 67  1  1
 25 68  1  0
 26 27  1  0
 26 28  1  0
 27 69  1  0
 27 70  1  0
 27 71  1  0
 28 72  1  0
 28 73  1  0
 28 74  1  0
 29 30  1  6
 29 31  1  0
 30 75  1  0
 30 76  1  0
 30 77  1  0
 31 32  1  0
 31 78  1  0
 31 79  1  0
 32 33  1  0
 32 80  1  0
 32 81  1  0
 33 34  1  0
 33 35  1  0
 33 82  1  1
 34 83  1  0
 35 36  1  0
 35 37  1  0
 36 84  1  0
 36 85  1  0
 36 86  1  0
 37 87  1  0
 37 88  1  0
 37 89  1  0
M  END
>  <i_m_ct_stereo_status>  (215) 
1

>  <s_m_source_file>  (215) 
/var/tmp/pbs.5076255.sched01/tmpn9kf4o8v/46f5dlbpu8.sdf

>  <i_m_source_file_index>  (215) 
36

>  <i_lp_mmshare_version>  (215) 
48012

>  <i_f3d_flags>  (215) 
0

>  <s_epik_input>  (215) 
W0NIM11DMShbQ0gzXSlbQ0BIXShbT0hdKVtDSDJdW0NIMl1bQ0BAXTIoW0NIM10pQyg9W0NIXVtDSDJdW0NASF0zQyhbQ0gzXSkoW0NIM10pW09IXSlbQ0BIXTFbQ0hdPUMoW0NASF0zW0NAXTI0W0NIM10pQyhbQ0gzXSkoW0NIM10pW0NAQEhdKFtDSDJdW0NIMl00KU9bQ0BASF01T1tDSDJdW0NIMl1bQ0gyXVtDQEhdNVtPSF0=

>  <s_epik_cmdline>  (215) 
J2VwaWtfcHl0aG9uJywgJy1waHQnLCAnMi4wJywgJy1waCcsICc3LjAnLCAnLXRuJywgJzgnLCAnLW1hJywgJzIwMCcsICctaW1hZScsICc8aW5maWxlLm1hZT4nLCAnLW9tYWUnLCAnPG91dGZpbGUubWFlPic=

>  <r_lp_tautomer_probability>  (215) 
1

>  <r_epik_Ionization_Penalty>  (215) 
3.22155e-06

>  <r_epik_Ionization_Penalty_Charging>  (215) 
0

>  <r_epik_Ionization_Penalty_Neutral>  (215) 
3.22155e-06

>  <r_epik_State_Penalty>  (215) 
-0

>  <r_epik_Charging_Adjusted_Penalty>  (215) 
0

>  <i_epik_Tot_Q>  (215) 
0

>  <i_epik_Tot_abs_Q>  (215) 
0

>  <s_epik_Chemistry_Notes>  (215) 
This compound contains an acetal/aminal-like group ( X-CH(R)-Y where X, Y are N, S, or O) that may be acid/base labile, releasing an aldehyde.

>  <s_lp_Force_Field>  (215) 
OPLS3e

>  <r_lp_Energy>  (215) 
132.844

>  <b_lp_Chiralities_Consistent>  (215) 
1

>  <s_lp_Variant>  (215) 
56:0-2

>  <s_i_glide_gridfile>  (215) 
pfpi4k_grid

>  <i_i_glide_lignum>  (215) 
36

>  <i_i_glide_rotatable_bonds>  (215) 
6

>  <r_i_docking_score>  (215) 
-2.73296

>  <r_i_glide_ligand_efficiency>  (215) 
-0.0738637

>  <r_i_glide_ligand_efficiency_sa>  (215) 
-0.24613

>  <r_i_glide_ligand_efficiency_ln>  (215) 
-0.592714

>  <r_i_glide_gscore>  (215) 
-2.73296

>  <r_i_glide_lipo>  (215) 
-0.0802

>  <r_i_glide_hbond>  (215) 
-0.284634

>  <r_i_glide_metal>  (215) 
-0

>  <r_i_glide_rewards>  (215) 
0

>  <r_i_glide_evdw>  (215) 
-31.174

>  <r_i_glide_ecoul>  (215) 
-6.80767

>  <r_i_glide_erotb>  (215) 
0.230619

>  <r_i_glide_esite>  (215) 
-0.0188928

>  <r_i_glide_emodel>  (215) 
-33.4515

>  <r_i_glide_energy>  (215) 
-37.9816

>  <r_i_glide_einternal>  (215) 
16.345

>  <r_i_glide_intrahb_reward>  (215) 
-0

>  <i_i_glide_confnum>  (215) 
5

>  <i_i_glide_posenum>  (215) 
21

>  <r_i_glide_eff_state_penalty>  (215) 
0

>  <ligand_id>  (215) 
56

>  <original_smiles>  (215) 
CC(C)(O)C1CC=C2C3C=C4C1C(C)(CCC(OC1OCCCC1O)C4(C)C)C2(C)CCC(O)C3(C)C

>  <smiles>  (215) 
[H]OC1([H])C([H])(OC2([H])C([H])([H])C([H])([H])C3(C([H])([H])[H])C4([H])C(=C([H])C5([H])C(=C([H])C([H])([H])C4([H])C(O[H])(C([H])([H])[H])C([H])([H])[H])C3(C([H])([H])[H])C([H])([H])C([H])([H])C([H])(O[H])C5(C([H])([H])[H])C([H])([H])[H])C2(C([H])([H])[H])C([H])([H])[H])OC([H])([H])C([H])([H])C1([H])[H]

$$$$
56:1:2
     RDKit          3D

 89 93  0  0  1  0  0  0  0  0999 V2000
    8.1839   -6.3997    0.3620 C   0  0  0  0  0  0  0  0  0  0  0  0
    7.8495   -5.0014    0.8979 C   0  0  0  0  0  0  0  0  0  0  0  0
    7.6001   -5.1585    2.3712 C   0  0  0  0  0  0  0  0  0  0  0  0
    9.0887   -4.3346    0.7431 O   0  0  0  0  0  0  0  0  0  0  0  0
    6.6720   -4.1782    0.2081 C   0  0  2  0  0  0  0  0  0  0  0  0
    7.0610   -2.7007   -0.1789 C   0  0  0  0  0  0  0  0  0  0  0  0
    6.5886   -1.8203    0.9094 C   0  0  0  0  0  0  0  0  0  0  0  0
    5.3299   -1.8582    1.3402 C   0  0  0  0  0  0  0  0  0  0  0  0
    5.1267   -2.1498    2.8189 C   0  0  2  0  0  0  0  0  0  0  0  0
    4.6607   -3.6174    2.9927 C   0  0  0  0  0  0  0  0  0  0  0  0
    4.6739   -4.6528    2.0886 C   0  0  0  0  0  0  0  0  0  0  0  0
    5.1317   -4.4719    0.6110 C   0  0  1  0  0  0  0  0  0  0  0  0
    4.0535   -3.5991   -0.1157 C   0  0  1  0  0  0  0  0  0  0  0  0
    4.2632   -3.7099   -1.6470 C   0  0  0  0  0  0  0  0  0  0  0  0
    2.6350   -4.2786    0.1014 C   0  0  0  0  0  0  0  0  0  0  0  0
    2.5540   -5.8049    0.3453 C   0  0  0  0  0  0  0  0  0  0  0  0
    2.7138   -6.2059    1.8285 C   0  0  1  0  0  0  0  0  0  0  0  0
    2.3117   -7.5700    2.0267 O   0  0  0  0  0  0  0  0  0  0  0  0
    1.0863   -7.8129    2.6299 C   0  0  2  0  0  0  0  0  0  0  0  0
    0.8963   -6.9158    3.6892 O   0  0  0  0  0  0  0  0  0  0  0  0
   -0.3449   -7.0187    4.3540 C   0  0  0  0  0  0  0  0  0  0  0  0
   -0.3708   -8.3745    5.0560 C   0  0  0  0  0  0  0  0  0  0  0  0
   -0.1437   -9.4644    4.0218 C   0  0  0  0  0  0  0  0  0  0  0  0
    1.1474   -9.2376    3.2418 C   0  0  1  0  0  0  0  0  0  0  0  0
    1.1967  -10.2505    2.2726 O   0  0  0  0  0  0  0  0  0  0  0  0
    4.1377   -6.0874    2.4540 C   0  0  0  0  0  0  0  0  0  0  0  0
    4.9848   -7.3479    2.0016 C   0  0  0  0  0  0  0  0  0  0  0  0
    3.9653   -6.2325    3.9937 C   0  0  0  0  0  0  0  0  0  0  0  0
    4.1306   -2.0727    0.3863 C   0  0  2  0  0  0  0  0  0  0  0  0
    4.2114   -1.0634   -0.7948 C   0  0  0  0  0  0  0  0  0  0  0  0
    2.8768   -1.6370    1.1858 C   0  0  0  0  0  0  0  0  0  0  0  0
    2.7780   -0.2253    1.7928 C   0  0  0  0  0  0  0  0  0  0  0  0
    3.8887    0.1395    2.7869 C   0  0  1  0  0  0  0  0  0  0  0  0
    3.4087    1.2276    3.5628 O   0  0  0  0  0  0  0  0  0  0  0  0
    4.4269   -1.0170    3.6855 C   0  0  0  0  0  0  0  0  0  0  0  0
    3.3181   -1.5649    4.6140 C   0  0  0  0  0  0  0  0  0  0  0  0
    5.4949   -0.4008    4.6311 C   0  0  0  0  0  0  0  0  0  0  0  0
    7.3021   -7.0231    0.4890 H   0  0  0  0  0  0  0  0  0  0  0  0
    8.9409   -6.9100    0.9523 H   0  0  0  0  0  0  0  0  0  0  0  0
    8.5689   -6.4145   -0.6674 H   0  0  0  0  0  0  0  0  0  0  0  0
    6.9503   -5.9336    2.6355 H   0  0  0  0  0  0  0  0  0  0  0  0
    7.0311   -4.2800    2.6569 H   0  0  0  0  0  0  0  0  0  0  0  0
    8.5101   -5.3261    2.9482 H   0  0  0  0  0  0  0  0  0  0  0  0
    9.0076   -3.5106    1.1711 H   0  0  0  0  0  0  0  0  0  0  0  0
    6.6204   -4.6055   -0.7647 H   0  0  0  0  0  0  0  0  0  0  0  0
    8.1222   -2.5309   -0.3789 H   0  0  0  0  0  0  0  0  0  0  0  0
    6.6345   -2.3813   -1.1164 H   0  0  0  0  0  0  0  0  0  0  0  0
    7.3538   -1.7120    1.6728 H   0  0  0  0  0  0  0  0  0  0  0  0
    6.1288   -2.2112    3.2530 H   0  0  0  0  0  0  0  0  0  0  0  0
    4.4121   -3.8222    4.0136 H   0  0  0  0  0  0  0  0  0  0  0  0
    5.0622   -5.4608    0.1736 H   0  0  0  0  0  0  0  0  0  0  0  0
    3.4655   -3.2680   -2.2323 H   0  0  0  0  0  0  0  0  0  0  0  0
    4.1680   -4.7323   -1.8732 H   0  0  0  0  0  0  0  0  0  0  0  0
    5.2100   -3.3776   -2.0677 H   0  0  0  0  0  0  0  0  0  0  0  0
    2.0945   -3.8968    0.9503 H   0  0  0  0  0  0  0  0  0  0  0  0
    1.9953   -4.0321   -0.7432 H   0  0  0  0  0  0  0  0  0  0  0  0
    1.5513   -6.1164    0.0599 H   0  0  0  0  0  0  0  0  0  0  0  0
    3.2240   -6.3465   -0.3212 H   0  0  0  0  0  0  0  0  0  0  0  0
    2.0742   -5.5011    2.3604 H   0  0  0  0  0  0  0  0  0  0  0  0
    0.2915   -7.7046    1.8862 H   0  0  0  0  0  0  0  0  0  0  0  0
   -0.4019   -6.2097    5.0799 H   0  0  0  0  0  0  0  0  0  0  0  0
   -1.1741   -6.8962    3.6505 H   0  0  0  0  0  0  0  0  0  0  0  0
    0.4049   -8.4130    5.8245 H   0  0  0  0  0  0  0  0  0  0  0  0
   -1.3298   -8.5506    5.5381 H   0  0  0  0  0  0  0  0  0  0  0  0
   -0.0905  -10.4203    4.5333 H   0  0  0  0  0  0  0  0  0  0  0  0
   -1.0060   -9.5301    3.3581 H   0  0  0  0  0  0  0  0  0  0  0  0
    2.0202   -9.3030    3.8983 H   0  0  0  0  0  0  0  0  0  0  0  0
    0.4937  -10.1725    1.6462 H   0  0  0  0  0  0  0  0  0  0  0  0
    4.5122   -8.2448    2.4286 H   0  0  0  0  0  0  0  0  0  0  0  0
    5.9950   -7.4725    2.3730 H   0  0  0  0  0  0  0  0  0  0  0  0
    4.9770   -7.4740    0.9144 H   0  0  0  0  0  0  0  0  0  0  0  0
    3.6138   -7.2271    4.2539 H   0  0  0  0  0  0  0  0  0  0  0  0
    3.2305   -5.5464    4.4220 H   0  0  0  0  0  0  0  0  0  0  0  0
    4.9083   -6.0947    4.5265 H   0  0  0  0  0  0  0  0  0  0  0  0
    3.2788   -1.0477   -1.3566 H   0  0  0  0  0  0  0  0  0  0  0  0
    4.9968   -1.2315   -1.5288 H   0  0  0  0  0  0  0  0  0  0  0  0
    4.3809   -0.0546   -0.4347 H   0  0  0  0  0  0  0  0  0  0  0  0
    2.0569   -1.7821    0.5105 H   0  0  0  0  0  0  0  0  0  0  0  0
    2.6703   -2.3103    2.0049 H   0  0  0  0  0  0  0  0  0  0  0  0
    2.7061    0.5458    1.0277 H   0  0  0  0  0  0  0  0  0  0  0  0
    1.8217   -0.1756    2.3084 H   0  0  0  0  0  0  0  0  0  0  0  0
    4.7201    0.5388    2.2117 H   0  0  0  0  0  0  0  0  0  0  0  0
    2.5986    0.9831    3.9727 H   0  0  0  0  0  0  0  0  0  0  0  0
    2.8342   -0.7614    5.1651 H   0  0  0  0  0  0  0  0  0  0  0  0
    3.7235   -2.2445    5.3635 H   0  0  0  0  0  0  0  0  0  0  0  0
    2.5344   -2.0954    4.0789 H   0  0  0  0  0  0  0  0  0  0  0  0
    5.0852    0.3596    5.2952 H   0  0  0  0  0  0  0  0  0  0  0  0
    6.3094    0.0654    4.0755 H   0  0  0  0  0  0  0  0  0  0  0  0
    5.9338   -1.1570    5.2811 H   0  0  0  0  0  0  0  0  0  0  0  0
  1  2  1  0
  1 38  1  0
  1 39  1  0
  1 40  1  0
  2  3  1  0
  2  4  1  0
  2  5  1  0
  3 41  1  0
  3 42  1  0
  3 43  1  0
  4 44  1  0
  5 12  1  0
  5  6  1  0
  5 45  1  6
  6  7  1  0
  6 46  1  0
  6 47  1  0
  7  8  2  0
  7 48  1  0
  8 29  1  0
  8  9  1  0
  9 35  1  0
  9 10  1  0
  9 49  1  1
 10 11  2  0
 10 50  1  0
 11 26  1  0
 11 12  1  0
 12 13  1  0
 12 51  1  6
 13 14  1  6
 13 15  1  0
 13 29  1  0
 14 52  1  0
 14 53  1  0
 14 54  1  0
 15 16  1  0
 15 55  1  0
 15 56  1  0
 16 17  1  0
 16 57  1  0
 16 58  1  0
 17 18  1  0
 17 26  1  0
 17 59  1  1
 18 19  1  0
 19 24  1  0
 19 20  1  0
 19 60  1  6
 20 21  1  0
 21 22  1  0
 21 61  1  0
 21 62  1  0
 22 23  1  0
 22 63  1  0
 22 64  1  0
 23 24  1  0
 23 65  1  0
 23 66  1  0
 24 25  1  0
 24 67  1  1
 25 68  1  0
 26 27  1  0
 26 28  1  0
 27 69  1  0
 27 70  1  0
 27 71  1  0
 28 72  1  0
 28 73  1  0
 28 74  1  0
 29 30  1  6
 29 31  1  0
 30 75  1  0
 30 76  1  0
 30 77  1  0
 31 32  1  0
 31 78  1  0
 31 79  1  0
 32 33  1  0
 32 80  1  0
 32 81  1  0
 33 34  1  0
 33 35  1  0
 33 82  1  6
 34 83  1  0
 35 36  1  0
 35 37  1  0
 36 84  1  0
 36 85  1  0
 36 86  1  0
 37 87  1  0
 37 88  1  0
 37 89  1  0
M  END
>  <i_m_ct_stereo_status>  (216) 
1

>  <s_m_source_file>  (216) 
/var/tmp/pbs.5076255.sched01/tmpn9kf4o8v/46f5dlbpu8.sdf

>  <i_m_source_file_index>  (216) 
36

>  <i_lp_mmshare_version>  (216) 
48012

>  <i_f3d_flags>  (216) 
0

>  <s_epik_input>  (216) 
W0NIM11DMShbQ0gzXSlbQ0BIXShbT0hdKVtDSDJdW0NIMl1bQ0BAXTIoW0NIM10pQyg9W0NIXVtDSDJdW0NASF0zQyhbQ0gzXSkoW0NIM10pW09IXSlbQ0BIXTFbQ0hdPUMoW0NASF0zW0NAXTI0W0NIM10pQyhbQ0gzXSkoW0NIM10pW0NAQEhdKFtDSDJdW0NIMl00KU9bQ0BASF01T1tDSDJdW0NIMl1bQ0gyXVtDQEhdNVtPSF0=

>  <s_epik_cmdline>  (216) 
J2VwaWtfcHl0aG9uJywgJy1waHQnLCAnMi4wJywgJy1waCcsICc3LjAnLCAnLXRuJywgJzgnLCAnLW1hJywgJzIwMCcsICctaW1hZScsICc8aW5maWxlLm1hZT4nLCAnLW9tYWUnLCAnPG91dGZpbGUubWFlPic=

>  <r_lp_tautomer_probability>  (216) 
1

>  <r_epik_Ionization_Penalty>  (216) 
3.22155e-06

>  <r_epik_Ionization_Penalty_Charging>  (216) 
0

>  <r_epik_Ionization_Penalty_Neutral>  (216) 
3.22155e-06

>  <r_epik_State_Penalty>  (216) 
-0

>  <r_epik_Charging_Adjusted_Penalty>  (216) 
0

>  <i_epik_Tot_Q>  (216) 
0

>  <i_epik_Tot_abs_Q>  (216) 
0

>  <s_epik_Chemistry_Notes>  (216) 
This compound contains an acetal/aminal-like group ( X-CH(R)-Y where X, Y are N, S, or O) that may be acid/base labile, releasing an aldehyde.

>  <s_lp_Force_Field>  (216) 
OPLS3e

>  <r_lp_Energy>  (216) 
132.844

>  <b_lp_Chiralities_Consistent>  (216) 
1

>  <s_lp_Variant>  (216) 
56:0-2

>  <s_i_glide_gridfile>  (216) 
pfpi4k_grid

>  <i_i_glide_lignum>  (216) 
36

>  <i_i_glide_rotatable_bonds>  (216) 
6

>  <r_i_docking_score>  (216) 
-1.33962

>  <r_i_glide_ligand_efficiency>  (216) 
-0.0362059

>  <r_i_glide_ligand_efficiency_sa>  (216) 
-0.120646

>  <r_i_glide_ligand_efficiency_ln>  (216) 
-0.290532

>  <r_i_glide_gscore>  (216) 
-1.33962

>  <r_i_glide_lipo>  (216) 
-0.739414

>  <r_i_glide_hbond>  (216) 
-0.0285505

>  <r_i_glide_metal>  (216) 
-0

>  <r_i_glide_rewards>  (216) 
0

>  <r_i_glide_evdw>  (216) 
-13.0388

>  <r_i_glide_ecoul>  (216) 
-2.68419

>  <r_i_glide_erotb>  (216) 
0.230619

>  <r_i_glide_esite>  (216) 
-0.0264802

>  <r_i_glide_emodel>  (216) 
-9.78941

>  <r_i_glide_energy>  (216) 
-15.723

>  <r_i_glide_einternal>  (216) 
10.5059

>  <r_i_glide_intrahb_reward>  (216) 
-0

>  <i_i_glide_confnum>  (216) 
5

>  <i_i_glide_posenum>  (216) 
8

>  <r_i_glide_eff_state_penalty>  (216) 
0

>  <ligand_id>  (216) 
56

>  <original_smiles>  (216) 
CC(C)(O)C1CC=C2C3C=C4C1C(C)(CCC(OC1OCCCC1O)C4(C)C)C2(C)CCC(O)C3(C)C

>  <smiles>  (216) 
[H]OC1([H])C([H])(OC2([H])C([H])([H])C([H])([H])C3(C([H])([H])[H])C4([H])C(=C([H])C5([H])C(=C([H])C([H])([H])C4([H])C(O[H])(C([H])([H])[H])C([H])([H])[H])C3(C([H])([H])[H])C([H])([H])C([H])([H])C([H])(O[H])C5(C([H])([H])[H])C([H])([H])[H])C2(C([H])([H])[H])C([H])([H])[H])OC([H])([H])C([H])([H])C1([H])[H]

$$$$
57:0:0
     RDKit          3D

 52 57  0  0  1  0  0  0  0  0999 V2000
    2.3462   -2.6540   -3.5575 C   0  0  0  0  0  0  0  0  0  0  0  0
    3.4754   -2.5116   -2.5441 C   0  0  2  0  0  0  0  0  0  0  0  0
    4.8006   -2.9858   -3.1311 C   0  0  0  0  0  0  0  0  0  0  0  0
    5.9383   -2.8167   -2.1237 C   0  0  0  0  0  0  0  0  0  0  0  0
    5.6382   -3.5264   -0.7853 C   0  0  1  0  0  0  0  0  0  0  0  0
    6.8391   -3.5029    0.1995 C   0  0  1  0  0  0  0  0  0  0  0  0
    7.7626   -2.2701    0.0828 C   0  0  0  0  0  0  0  0  0  0  0  0
    6.4945   -3.8333    1.6572 C   0  0  1  0  0  0  0  0  0  0  0  0
    5.8107   -2.7020    2.4053 C   0  0  0  0  0  0  0  0  0  0  0  0
    4.4144   -2.7668    2.1647 O   0  0  0  0  0  0  0  0  0  0  0  0
    3.9492   -3.7340    1.2116 C   0  0  2  0  0  0  0  0  0  0  0  0
    2.4659   -3.9830    1.5701 C   0  0  2  0  0  0  0  0  0  0  0  0
    2.2574   -4.1199    3.0921 C   0  0  0  0  0  0  0  0  0  0  0  0
    2.8995   -5.4772    3.4127 C   0  0  0  0  0  0  0  0  0  0  0  0
    3.3713   -5.9774    2.0241 C   0  0  1  0  0  0  0  0  0  0  0  0
    3.5653   -7.5000    1.9558 C   0  0  0  0  0  0  0  0  0  0  0  0
    2.2406   -5.4397    1.1471 C   0  0  0  0  0  0  0  0  0  0  0  0
    4.5567   -5.1681    1.4339 C   0  0  2  0  0  0  0  0  0  0  0  0
    5.7866   -5.0662    2.2981 C   0  0  1  0  0  0  0  0  0  0  0  0
    7.1851   -5.0045    2.0671 O   0  0  0  0  0  0  0  0  0  0  0  0
    4.2693   -3.0799   -0.1850 C   0  0  2  0  0  0  0  0  0  0  0  0
    3.1705   -3.2548   -1.2430 C   0  0  0  0  0  0  0  0  0  0  0  0
    2.2029   -3.6790   -3.8963 H   0  0  0  0  0  0  0  0  0  0  0  0
    2.5586   -2.0328   -4.4259 H   0  0  0  0  0  0  0  0  0  0  0  0
    1.4138   -2.3054   -3.1255 H   0  0  0  0  0  0  0  0  0  0  0  0
    3.5600   -1.4511   -2.3073 H   0  0  0  0  0  0  0  0  0  0  0  0
    4.7320   -4.0313   -3.4451 H   0  0  0  0  0  0  0  0  0  0  0  0
    5.0148   -2.3937   -4.0166 H   0  0  0  0  0  0  0  0  0  0  0  0
    6.8586   -3.2084   -2.5692 H   0  0  0  0  0  0  0  0  0  0  0  0
    6.0860   -1.7495   -1.9623 H   0  0  0  0  0  0  0  0  0  0  0  0
    5.5347   -4.5672   -1.0886 H   0  0  0  0  0  0  0  0  0  0  0  0
    7.4839   -4.3209   -0.1283 H   0  0  0  0  0  0  0  0  0  0  0  0
    7.2205   -1.3316    0.2197 H   0  0  0  0  0  0  0  0  0  0  0  0
    8.2652   -2.2355   -0.8845 H   0  0  0  0  0  0  0  0  0  0  0  0
    8.5591   -2.3047    0.8294 H   0  0  0  0  0  0  0  0  0  0  0  0
    5.9263   -2.8263    3.4859 H   0  0  0  0  0  0  0  0  0  0  0  0
    6.2128   -1.7226    2.1495 H   0  0  0  0  0  0  0  0  0  0  0  0
    1.8116   -3.2210    1.1617 H   0  0  0  0  0  0  0  0  0  0  0  0
    2.6734   -3.3038    3.6847 H   0  0  0  0  0  0  0  0  0  0  0  0
    1.1906   -4.1537    3.3151 H   0  0  0  0  0  0  0  0  0  0  0  0
    3.6837   -5.4021    4.1639 H   0  0  0  0  0  0  0  0  0  0  0  0
    2.1418   -6.1480    3.8269 H   0  0  0  0  0  0  0  0  0  0  0  0
    3.8006   -7.8175    0.9396 H   0  0  0  0  0  0  0  0  0  0  0  0
    2.6645   -8.0287    2.2695 H   0  0  0  0  0  0  0  0  0  0  0  0
    4.3831   -7.8160    2.6040 H   0  0  0  0  0  0  0  0  0  0  0  0
    1.2658   -5.8347    1.4365 H   0  0  0  0  0  0  0  0  0  0  0  0
    2.4011   -5.6437    0.0895 H   0  0  0  0  0  0  0  0  0  0  0  0
    4.8332   -5.6687    0.5059 H   0  0  0  0  0  0  0  0  0  0  0  0
    5.5879   -5.0296    3.3681 H   0  0  0  0  0  0  0  0  0  0  0  0
    4.3181   -2.0030   -0.0149 H   0  0  0  0  0  0  0  0  0  0  0  0
    2.1903   -2.9421   -0.8925 H   0  0  0  0  0  0  0  0  0  0  0  0
    3.1127   -4.3029   -1.4648 H   0  0  0  0  0  0  0  0  0  0  0  0
  1  2  1  0
  1 23  1  0
  1 24  1  0
  1 25  1  0
  2 22  1  0
  2  3  1  0
  2 26  1  1
  3  4  1  0
  3 27  1  0
  3 28  1  0
  4  5  1  0
  4 29  1  0
  4 30  1  0
  5 21  1  0
  5  6  1  0
  5 31  1  6
  6  7  1  0
  6  8  1  0
  6 32  1  6
  7 33  1  0
  7 34  1  0
  7 35  1  0
  8 19  1  0
  8 20  1  1
  8  9  1  0
  9 10  1  0
  9 36  1  0
  9 37  1  0
 11 10  1  1
 11 18  1  0
 11 12  1  0
 11 21  1  0
 12 17  1  0
 12 13  1  0
 12 38  1  6
 13 14  1  0
 13 39  1  0
 13 40  1  0
 14 15  1  0
 14 41  1  0
 14 42  1  0
 15 16  1  1
 15 17  1  0
 15 18  1  0
 16 43  1  0
 16 44  1  0
 16 45  1  0
 17 46  1  0
 17 47  1  0
 18 19  1  0
 18 48  1  6
 19 20  1  0
 19 49  1  1
 21 22  1  0
 21 50  1  1
 22 51  1  0
 22 52  1  0
M  END
>  <i_m_ct_stereo_status>  (217) 
1

>  <s_m_source_file>  (217) 
/var/tmp/pbs.5076255.sched01/tmpn9kf4o8v/46f5dlbpu8.sdf

>  <i_m_source_file_index>  (217) 
37

>  <i_lp_mmshare_version>  (217) 
48012

>  <i_f3d_flags>  (217) 
0

>  <s_epik_input>  (217) 
W0NIM11bQ0BASF0oW0NIMl0xKVtDSDJdW0NIMl1bQ0BASF0oW0NASF0yW0NIM10pW0NAQEhdMVtDQF0oT1tDSDJdMykoW0NASF00W0NASF0oW0NAQF0yMzUpTzUpW0NAQEhdNltDSDJdW0NIMl1bQ0BAXTQoW0NIM10pW0NIMl02

>  <s_epik_cmdline>  (217) 
J2VwaWtfcHl0aG9uJywgJy1waHQnLCAnMi4wJywgJy1waCcsICc3LjAnLCAnLXRuJywgJzgnLCAnLW1hJywgJzIwMCcsICctaW1hZScsICc8aW5maWxlLm1hZT4nLCAnLW9tYWUnLCAnPG91dGZpbGUubWFlPic=

>  <r_lp_tautomer_probability>  (217) 
1

>  <r_epik_Ionization_Penalty>  (217) 
3.00476e-11

>  <r_epik_Ionization_Penalty_Charging>  (217) 
0

>  <r_epik_Ionization_Penalty_Neutral>  (217) 
3.00476e-11

>  <r_epik_State_Penalty>  (217) 
-0

>  <r_epik_Charging_Adjusted_Penalty>  (217) 
0

>  <i_epik_Tot_Q>  (217) 
0

>  <i_epik_Tot_abs_Q>  (217) 
0

>  <s_lp_Force_Field>  (217) 
OPLS3e

>  <r_lp_Energy>  (217) 
99.5711

>  <b_lp_Chiralities_Consistent>  (217) 
1

>  <s_lp_Variant>  (217) 
57:0-1

>  <s_i_glide_gridfile>  (217) 
pfpi4k_grid

>  <i_i_glide_lignum>  (217) 
37

>  <i_i_glide_rotatable_bonds>  (217) 
0

>  <r_i_docking_score>  (217) 
-3.45041

>  <r_i_glide_ligand_efficiency>  (217) 
-0.156837

>  <r_i_glide_ligand_efficiency_sa>  (217) 
-0.439462

>  <r_i_glide_ligand_efficiency_ln>  (217) 
-0.843405

>  <r_i_glide_gscore>  (217) 
-3.45041

>  <r_i_glide_lipo>  (217) 
-0.997517

>  <r_i_glide_hbond>  (217) 
0

>  <r_i_glide_metal>  (217) 
-0

>  <r_i_glide_rewards>  (217) 
-1.34692

>  <r_i_glide_evdw>  (217) 
-21.9475

>  <r_i_glide_ecoul>  (217) 
-0.0572452

>  <r_i_glide_erotb>  (217) 
0

>  <r_i_glide_esite>  (217) 
0

>  <r_i_glide_emodel>  (217) 
-27.671

>  <r_i_glide_energy>  (217) 
-22.0048

>  <r_i_glide_einternal>  (217) 
0

>  <r_i_glide_intrahb_reward>  (217) 
-0

>  <i_i_glide_confnum>  (217) 
1

>  <i_i_glide_posenum>  (217) 
21

>  <r_i_glide_eff_state_penalty>  (217) 
0

>  <ligand_id>  (217) 
57

>  <original_smiles>  (217) 
CC1CCC2C(C)C34COC5(C6CCC(C)(C6)C5C3O4)C2C1

>  <smiles>  (217) 
[H]C([H])([H])C1([H])C([H])([H])C([H])([H])C2([H])C([H])(C([H])([H])[H])C34OC3([H])C3([H])C(OC4([H])[H])(C4([H])C([H])([H])C([H])([H])C3(C([H])([H])[H])C4([H])[H])C2([H])C1([H])[H]

$$$$
57:0:1
     RDKit          3D

 52 57  0  0  1  0  0  0  0  0999 V2000
    3.9799   -2.6094   -3.5065 C   0  0  0  0  0  0  0  0  0  0  0  0
    3.7820   -2.2431   -2.0269 C   0  0  2  0  0  0  0  0  0  0  0  0
    4.8290   -1.2346   -1.5390 C   0  0  0  0  0  0  0  0  0  0  0  0
    4.5850   -0.8606   -0.0680 C   0  0  0  0  0  0  0  0  0  0  0  0
    4.5260   -2.0942    0.8667 C   0  0  1  0  0  0  0  0  0  0  0  0
    4.4284   -1.7167    2.3770 C   0  0  1  0  0  0  0  0  0  0  0  0
    3.6907   -0.3888    2.6733 C   0  0  0  0  0  0  0  0  0  0  0  0
    3.9629   -2.8407    3.3225 C   0  0  1  0  0  0  0  0  0  0  0  0
    2.4797   -3.1251    3.2939 C   0  0  0  0  0  0  0  0  0  0  0  0
    2.2230   -4.0316    2.2073 O   0  0  0  0  0  0  0  0  0  0  0  0
    3.3164   -4.3847    1.3179 C   0  0  2  0  0  0  0  0  0  0  0  0
    2.9393   -5.7501    0.6652 C   0  0  2  0  0  0  0  0  0  0  0  0
    2.3320   -6.7221    1.7015 C   0  0  0  0  0  0  0  0  0  0  0  0
    3.5400   -7.0958    2.5749 C   0  0  0  0  0  0  0  0  0  0  0  0
    4.7068   -6.3180    1.9205 C   0  0  1  0  0  0  0  0  0  0  0  0
    6.0911   -6.9066    2.2365 C   0  0  0  0  0  0  0  0  0  0  0  0
    4.2989   -6.4207    0.4546 C   0  0  0  0  0  0  0  0  0  0  0  0
    4.6212   -4.7739    2.1119 C   0  0  2  0  0  0  0  0  0  0  0  0
    4.5176   -4.2863    3.5417 C   0  0  1  0  0  0  0  0  0  0  0  0
    4.9686   -3.1453    4.2670 O   0  0  0  0  0  0  0  0  0  0  0  0
    3.4907   -3.1438    0.3588 C   0  0  2  0  0  0  0  0  0  0  0  0
    3.8207   -3.4824   -1.1198 C   0  0  0  0  0  0  0  0  0  0  0  0
    4.9498   -3.0765   -3.6828 H   0  0  0  0  0  0  0  0  0  0  0  0
    3.9100   -1.7234   -4.1373 H   0  0  0  0  0  0  0  0  0  0  0  0
    3.2088   -3.3063   -3.8382 H   0  0  0  0  0  0  0  0  0  0  0  0
    2.7928   -1.7851   -1.9383 H   0  0  0  0  0  0  0  0  0  0  0  0
    5.8293   -1.6544   -1.6526 H   0  0  0  0  0  0  0  0  0  0  0  0
    4.7920   -0.3339   -2.1547 H   0  0  0  0  0  0  0  0  0  0  0  0
    5.3776   -0.1855    0.2548 H   0  0  0  0  0  0  0  0  0  0  0  0
    3.6524   -0.2981   -0.0073 H   0  0  0  0  0  0  0  0  0  0  0  0
    5.5155   -2.5339    0.7452 H   0  0  0  0  0  0  0  0  0  0  0  0
    5.4562   -1.5052    2.6720 H   0  0  0  0  0  0  0  0  0  0  0  0
    2.6778   -0.3746    2.2689 H   0  0  0  0  0  0  0  0  0  0  0  0
    4.2163    0.4675    2.2478 H   0  0  0  0  0  0  0  0  0  0  0  0
    3.6273   -0.2057    3.7468 H   0  0  0  0  0  0  0  0  0  0  0  0
    2.1661   -3.5873    4.2311 H   0  0  0  0  0  0  0  0  0  0  0  0
    1.8874   -2.2194    3.1886 H   0  0  0  0  0  0  0  0  0  0  0  0
    2.3053   -5.6768   -0.2166 H   0  0  0  0  0  0  0  0  0  0  0  0
    1.5077   -6.3042    2.2805 H   0  0  0  0  0  0  0  0  0  0  0  0
    1.9475   -7.6142    1.2038 H   0  0  0  0  0  0  0  0  0  0  0  0
    3.3807   -6.8785    3.6288 H   0  0  0  0  0  0  0  0  0  0  0  0
    3.7124   -8.1725    2.5081 H   0  0  0  0  0  0  0  0  0  0  0  0
    6.8742   -6.3979    1.6742 H   0  0  0  0  0  0  0  0  0  0  0  0
    6.1384   -7.9668    1.9812 H   0  0  0  0  0  0  0  0  0  0  0  0
    6.3234   -6.8091    3.2963 H   0  0  0  0  0  0  0  0  0  0  0  0
    4.2179   -7.4499    0.0969 H   0  0  0  0  0  0  0  0  0  0  0  0
    4.9686   -5.8818   -0.2145 H   0  0  0  0  0  0  0  0  0  0  0  0
    5.5275   -4.3730    1.6712 H   0  0  0  0  0  0  0  0  0  0  0  0
    3.9698   -4.9481    4.2035 H   0  0  0  0  0  0  0  0  0  0  0  0
    2.5148   -2.6523    0.3265 H   0  0  0  0  0  0  0  0  0  0  0  0
    3.1093   -4.1979   -1.5210 H   0  0  0  0  0  0  0  0  0  0  0  0
    4.8079   -3.9392   -1.1908 H   0  0  0  0  0  0  0  0  0  0  0  0
  1  2  1  0
  1 23  1  0
  1 24  1  0
  1 25  1  0
  2 22  1  0
  2  3  1  0
  2 26  1  6
  3  4  1  0
  3 27  1  0
  3 28  1  0
  4  5  1  0
  4 29  1  0
  4 30  1  0
  5 21  1  0
  5  6  1  0
  5 31  1  1
  6  7  1  0
  6  8  1  0
  6 32  1  1
  7 33  1  0
  7 34  1  0
  7 35  1  0
  8 19  1  0
  8 20  1  1
  8  9  1  0
  9 10  1  0
  9 36  1  0
  9 37  1  0
 11 10  1  1
 11 18  1  0
 11 12  1  0
 11 21  1  0
 12 17  1  0
 12 13  1  0
 12 38  1  6
 13 14  1  0
 13 39  1  0
 13 40  1  0
 14 15  1  0
 14 41  1  0
 14 42  1  0
 15 16  1  6
 15 17  1  0
 15 18  1  0
 16 43  1  0
 16 44  1  0
 16 45  1  0
 17 46  1  0
 17 47  1  0
 18 19  1  0
 18 48  1  6
 19 20  1  0
 19 49  1  1
 21 22  1  0
 21 50  1  6
 22 51  1  0
 22 52  1  0
M  END
>  <i_m_ct_stereo_status>  (218) 
1

>  <s_m_source_file>  (218) 
/var/tmp/pbs.5076255.sched01/tmpn9kf4o8v/46f5dlbpu8.sdf

>  <i_m_source_file_index>  (218) 
37

>  <i_lp_mmshare_version>  (218) 
48012

>  <i_f3d_flags>  (218) 
0

>  <s_epik_input>  (218) 
W0NIM11bQ0BASF0oW0NIMl0xKVtDSDJdW0NIMl1bQ0BASF0oW0NASF0yW0NIM10pW0NAQEhdMVtDQF0oT1tDSDJdMykoW0NASF00W0NASF0oW0NAQF0yMzUpTzUpW0NAQEhdNltDSDJdW0NIMl1bQ0BAXTQoW0NIM10pW0NIMl02

>  <s_epik_cmdline>  (218) 
J2VwaWtfcHl0aG9uJywgJy1waHQnLCAnMi4wJywgJy1waCcsICc3LjAnLCAnLXRuJywgJzgnLCAnLW1hJywgJzIwMCcsICctaW1hZScsICc8aW5maWxlLm1hZT4nLCAnLW9tYWUnLCAnPG91dGZpbGUubWFlPic=

>  <r_lp_tautomer_probability>  (218) 
1

>  <r_epik_Ionization_Penalty>  (218) 
3.00476e-11

>  <r_epik_Ionization_Penalty_Charging>  (218) 
0

>  <r_epik_Ionization_Penalty_Neutral>  (218) 
3.00476e-11

>  <r_epik_State_Penalty>  (218) 
-0

>  <r_epik_Charging_Adjusted_Penalty>  (218) 
0

>  <i_epik_Tot_Q>  (218) 
0

>  <i_epik_Tot_abs_Q>  (218) 
0

>  <s_lp_Force_Field>  (218) 
OPLS3e

>  <r_lp_Energy>  (218) 
99.5711

>  <b_lp_Chiralities_Consistent>  (218) 
1

>  <s_lp_Variant>  (218) 
57:0-1

>  <s_i_glide_gridfile>  (218) 
pfpi4k_grid

>  <i_i_glide_lignum>  (218) 
37

>  <i_i_glide_rotatable_bonds>  (218) 
0

>  <r_i_docking_score>  (218) 
-3.11212

>  <r_i_glide_ligand_efficiency>  (218) 
-0.14146

>  <r_i_glide_ligand_efficiency_sa>  (218) 
-0.396376

>  <r_i_glide_ligand_efficiency_ln>  (218) 
-0.760714

>  <r_i_glide_gscore>  (218) 
-3.11212

>  <r_i_glide_lipo>  (218) 
-0.488281

>  <r_i_glide_hbond>  (218) 
0

>  <r_i_glide_metal>  (218) 
-0

>  <r_i_glide_rewards>  (218) 
-1.34692

>  <r_i_glide_evdw>  (218) 
-24.9747

>  <r_i_glide_ecoul>  (218) 
-0.187831

>  <r_i_glide_erotb>  (218) 
0

>  <r_i_glide_esite>  (218) 
0

>  <r_i_glide_emodel>  (218) 
-30.288

>  <r_i_glide_energy>  (218) 
-25.1625

>  <r_i_glide_einternal>  (218) 
0

>  <r_i_glide_intrahb_reward>  (218) 
-0

>  <i_i_glide_confnum>  (218) 
1

>  <i_i_glide_posenum>  (218) 
26

>  <r_i_glide_eff_state_penalty>  (218) 
0

>  <ligand_id>  (218) 
57

>  <original_smiles>  (218) 
CC1CCC2C(C)C34COC5(C6CCC(C)(C6)C5C3O4)C2C1

>  <smiles>  (218) 
[H]C([H])([H])C1([H])C([H])([H])C([H])([H])C2([H])C([H])(C([H])([H])[H])C34OC3([H])C3([H])C(OC4([H])[H])(C4([H])C([H])([H])C([H])([H])C3(C([H])([H])[H])C4([H])[H])C2([H])C1([H])[H]

$$$$
57:0:2
     RDKit          3D

 52 57  0  0  1  0  0  0  0  0999 V2000
    2.4158    1.4262    2.4464 C   0  0  0  0  0  0  0  0  0  0  0  0
    2.4796   -0.1055    2.4833 C   0  0  2  0  0  0  0  0  0  0  0  0
    3.1450   -0.6173    3.7651 C   0  0  0  0  0  0  0  0  0  0  0  0
    3.1452   -2.1527    3.8040 C   0  0  0  0  0  0  0  0  0  0  0  0
    3.7991   -2.7843    2.5461 C   0  0  1  0  0  0  0  0  0  0  0  0
    3.9454   -4.3353    2.6387 C   0  0  1  0  0  0  0  0  0  0  0  0
    2.8528   -5.0435    3.4757 C   0  0  0  0  0  0  0  0  0  0  0  0
    4.1986   -5.0679    1.3088 C   0  0  1  0  0  0  0  0  0  0  0  0
    2.9783   -5.2313    0.4397 C   0  0  0  0  0  0  0  0  0  0  0  0
    2.8125   -4.0218   -0.3228 O   0  0  0  0  0  0  0  0  0  0  0  0
    3.7141   -2.9057   -0.0810 C   0  0  2  0  0  0  0  0  0  0  0  0
    3.7476   -2.0369   -1.3769 C   0  0  2  0  0  0  0  0  0  0  0  0
    3.8314   -2.9125   -2.6439 C   0  0  0  0  0  0  0  0  0  0  0  0
    5.2649   -3.4582   -2.5893 C   0  0  0  0  0  0  0  0  0  0  0  0
    5.8439   -2.8102   -1.3097 C   0  0  1  0  0  0  0  0  0  0  0  0
    7.3796   -2.7505   -1.2886 C   0  0  0  0  0  0  0  0  0  0  0  0
    5.1585   -1.4501   -1.3745 C   0  0  0  0  0  0  0  0  0  0  0  0
    5.2204   -3.3595    0.0094 C   0  0  2  0  0  0  0  0  0  0  0  0
    5.2906   -4.8585    0.2102 C   0  0  1  0  0  0  0  0  0  0  0  0
    5.4513   -5.7264    1.3268 O   0  0  0  0  0  0  0  0  0  0  0  0
    3.1635   -2.2322    1.2337 C   0  0  2  0  0  0  0  0  0  0  0  0
    3.2186   -0.6824    1.2677 C   0  0  0  0  0  0  0  0  0  0  0  0
    3.4079    1.8679    2.4699 H   0  0  0  0  0  0  0  0  0  0  0  0
    1.8566    1.8219    3.2942 H   0  0  0  0  0  0  0  0  0  0  0  0
    1.9163    1.7747    1.5426 H   0  0  0  0  0  0  0  0  0  0  0  0
    1.4486   -0.4661    2.4581 H   0  0  0  0  0  0  0  0  0  0  0  0
    4.1721   -0.2481    3.8282 H   0  0  0  0  0  0  0  0  0  0  0  0
    2.6203   -0.2300    4.6398 H   0  0  0  0  0  0  0  0  0  0  0  0
    3.6755   -2.4767    4.6999 H   0  0  0  0  0  0  0  0  0  0  0  0
    2.1130   -2.4881    3.9091 H   0  0  0  0  0  0  0  0  0  0  0  0
    4.8177   -2.4008    2.5895 H   0  0  0  0  0  0  0  0  0  0  0  0
    4.8512   -4.4911    3.2249 H   0  0  0  0  0  0  0  0  0  0  0  0
    1.8459   -4.8306    3.1159 H   0  0  0  0  0  0  0  0  0  0  0  0
    2.8901   -4.7390    4.5234 H   0  0  0  0  0  0  0  0  0  0  0  0
    2.9923   -6.1263    3.4676 H   0  0  0  0  0  0  0  0  0  0  0  0
    3.1144   -6.0714   -0.2436 H   0  0  0  0  0  0  0  0  0  0  0  0
    2.0813   -5.4511    1.0148 H   0  0  0  0  0  0  0  0  0  0  0  0
    2.9450   -1.3118   -1.4683 H   0  0  0  0  0  0  0  0  0  0  0  0
    3.0811   -3.7028   -2.6882 H   0  0  0  0  0  0  0  0  0  0  0  0
    3.6987   -2.3001   -3.5372 H   0  0  0  0  0  0  0  0  0  0  0  0
    5.2869   -4.5454   -2.5978 H   0  0  0  0  0  0  0  0  0  0  0  0
    5.8183   -3.1336   -3.4729 H   0  0  0  0  0  0  0  0  0  0  0  0
    7.7421   -2.1966   -0.4223 H   0  0  0  0  0  0  0  0  0  0  0  0
    7.7689   -2.2691   -2.1863 H   0  0  0  0  0  0  0  0  0  0  0  0
    7.8101   -3.7501   -1.2421 H   0  0  0  0  0  0  0  0  0  0  0  0
    5.3854   -0.8898   -2.2824 H   0  0  0  0  0  0  0  0  0  0  0  0
    5.3785   -0.8178   -0.5166 H   0  0  0  0  0  0  0  0  0  0  0  0
    5.7622   -2.8791    0.8177 H   0  0  0  0  0  0  0  0  0  0  0  0
    5.2160   -5.4417   -0.7014 H   0  0  0  0  0  0  0  0  0  0  0  0
    2.0984   -2.4720    1.2611 H   0  0  0  0  0  0  0  0  0  0  0  0
    2.7562   -0.2568    0.3801 H   0  0  0  0  0  0  0  0  0  0  0  0
    4.2535   -0.3433    1.2908 H   0  0  0  0  0  0  0  0  0  0  0  0
  1  2  1  0
  1 23  1  0
  1 24  1  0
  1 25  1  0
  2 22  1  0
  2  3  1  0
  2 26  1  1
  3  4  1  0
  3 27  1  0
  3 28  1  0
  4  5  1  0
  4 29  1  0
  4 30  1  0
  5 21  1  0
  5  6  1  0
  5 31  1  6
  6  7  1  0
  6  8  1  0
  6 32  1  1
  7 33  1  0
  7 34  1  0
  7 35  1  0
  8 19  1  0
  8 20  1  1
  8  9  1  0
  9 10  1  0
  9 36  1  0
  9 37  1  0
 11 10  1  6
 11 18  1  0
 11 12  1  0
 11 21  1  0
 12 17  1  0
 12 13  1  0
 12 38  1  6
 13 14  1  0
 13 39  1  0
 13 40  1  0
 14 15  1  0
 14 41  1  0
 14 42  1  0
 15 16  1  1
 15 17  1  0
 15 18  1  0
 16 43  1  0
 16 44  1  0
 16 45  1  0
 17 46  1  0
 17 47  1  0
 18 19  1  0
 18 48  1  1
 19 20  1  0
 19 49  1  6
 21 22  1  0
 21 50  1  1
 22 51  1  0
 22 52  1  0
M  END
>  <i_m_ct_stereo_status>  (219) 
1

>  <s_m_source_file>  (219) 
/var/tmp/pbs.5076255.sched01/tmpn9kf4o8v/46f5dlbpu8.sdf

>  <i_m_source_file_index>  (219) 
37

>  <i_lp_mmshare_version>  (219) 
48012

>  <i_f3d_flags>  (219) 
0

>  <s_epik_input>  (219) 
W0NIM11bQ0BASF0oW0NIMl0xKVtDSDJdW0NIMl1bQ0BASF0oW0NASF0yW0NIM10pW0NAQEhdMVtDQF0oT1tDSDJdMykoW0NASF00W0NASF0oW0NAQF0yMzUpTzUpW0NAQEhdNltDSDJdW0NIMl1bQ0BAXTQoW0NIM10pW0NIMl02

>  <s_epik_cmdline>  (219) 
J2VwaWtfcHl0aG9uJywgJy1waHQnLCAnMi4wJywgJy1waCcsICc3LjAnLCAnLXRuJywgJzgnLCAnLW1hJywgJzIwMCcsICctaW1hZScsICc8aW5maWxlLm1hZT4nLCAnLW9tYWUnLCAnPG91dGZpbGUubWFlPic=

>  <r_lp_tautomer_probability>  (219) 
1

>  <r_epik_Ionization_Penalty>  (219) 
3.00476e-11

>  <r_epik_Ionization_Penalty_Charging>  (219) 
0

>  <r_epik_Ionization_Penalty_Neutral>  (219) 
3.00476e-11

>  <r_epik_State_Penalty>  (219) 
-0

>  <r_epik_Charging_Adjusted_Penalty>  (219) 
0

>  <i_epik_Tot_Q>  (219) 
0

>  <i_epik_Tot_abs_Q>  (219) 
0

>  <s_lp_Force_Field>  (219) 
OPLS3e

>  <r_lp_Energy>  (219) 
99.5711

>  <b_lp_Chiralities_Consistent>  (219) 
1

>  <s_lp_Variant>  (219) 
57:0-1

>  <s_i_glide_gridfile>  (219) 
pfpi4k_grid

>  <i_i_glide_lignum>  (219) 
37

>  <i_i_glide_rotatable_bonds>  (219) 
0

>  <r_i_docking_score>  (219) 
-3.0883

>  <r_i_glide_ligand_efficiency>  (219) 
-0.140377

>  <r_i_glide_ligand_efficiency_sa>  (219) 
-0.393343

>  <r_i_glide_ligand_efficiency_ln>  (219) 
-0.754894

>  <r_i_glide_gscore>  (219) 
-3.0883

>  <r_i_glide_lipo>  (219) 
-0.360785

>  <r_i_glide_hbond>  (219) 
0

>  <r_i_glide_metal>  (219) 
-0

>  <r_i_glide_rewards>  (219) 
-1.34692

>  <r_i_glide_evdw>  (219) 
-26.9324

>  <r_i_glide_ecoul>  (219) 
-0.226496

>  <r_i_glide_erotb>  (219) 
0

>  <r_i_glide_esite>  (219) 
0

>  <r_i_glide_emodel>  (219) 
-32.2257

>  <r_i_glide_energy>  (219) 
-27.1589

>  <r_i_glide_einternal>  (219) 
0

>  <r_i_glide_intrahb_reward>  (219) 
-0

>  <i_i_glide_confnum>  (219) 
2

>  <i_i_glide_posenum>  (219) 
28

>  <r_i_glide_eff_state_penalty>  (219) 
0

>  <ligand_id>  (219) 
57

>  <original_smiles>  (219) 
CC1CCC2C(C)C34COC5(C6CCC(C)(C6)C5C3O4)C2C1

>  <smiles>  (219) 
[H]C([H])([H])C1([H])C([H])([H])C([H])([H])C2([H])C([H])(C([H])([H])[H])C34OC3([H])C3([H])C(OC4([H])[H])(C4([H])C([H])([H])C([H])([H])C3(C([H])([H])[H])C4([H])[H])C2([H])C1([H])[H]

$$$$
60:0:0
     RDKit          3D

 91 96  0  0  1  0  0  0  0  0999 V2000
    4.4115   -0.0867    0.9046 C   0  0  0  0  0  0  0  0  0  0  0  0
    4.7892   -1.4571    1.4905 C   0  0  0  0  0  0  0  0  0  0  0  0
    5.0697   -1.2235    2.9939 C   0  0  0  0  0  0  0  0  0  0  0  0
    3.5674   -2.4019    1.2764 C   0  0  0  0  0  0  0  0  0  0  0  0
    3.8043   -3.9238    1.5219 C   0  0  2  0  0  0  0  0  0  0  0  0
    3.7916   -4.4060    3.0093 C   0  0  0  0  0  0  0  0  0  0  0  0
    3.2160   -3.6703    3.9805 C   0  0  0  0  0  0  0  0  0  0  0  0
    3.0174   -4.0743    5.4288 C   0  0  0  0  0  0  0  0  0  0  0  0
    3.6085   -5.4252    5.8183 C   0  0  0  0  0  0  0  0  0  0  0  0
    3.2059   -6.0773    6.9474 C   0  0  0  0  0  0  0  0  0  0  0  0
    2.0913   -5.5812    7.8661 C   0  0  0  0  0  0  0  0  0  0  0  0
    1.0560   -6.6869    8.1036 C   0  0  0  0  0  0  0  0  0  0  0  0
   -0.1492   -6.4547    8.0209 O   0  0  0  0  0  0  0  0  0  0  0  0
    1.5736   -8.0794    8.5158 C   0  0  2  0  0  0  0  0  0  0  0  0
    1.6795   -8.2696   10.0832 C   0  0  0  0  0  0  0  0  0  0  0  0
    2.4820   -7.1653   10.8204 C   0  0  0  0  0  0  0  0  0  0  0  0
    0.2623   -8.2230   10.7097 C   0  0  0  0  0  0  0  0  0  0  0  0
    2.3292   -9.6372   10.4318 C   0  0  1  0  0  0  0  0  0  0  0  0
    1.4435  -10.7263   10.2133 O   0  0  0  0  0  0  0  0  0  0  0  0
    3.6303   -9.8775    9.6594 C   0  0  0  0  0  0  0  0  0  0  0  0
    3.3712   -9.8540    8.1510 C   0  0  0  0  0  0  0  0  0  0  0  0
    2.7859   -8.5216    7.6078 C   0  0  1  0  0  0  0  0  0  0  0  0
    2.2217   -8.8703    6.2057 C   0  0  0  0  0  0  0  0  0  0  0  0
    3.8456   -7.3587    7.4815 C   0  0  1  0  0  0  0  0  0  0  0  0
    5.1930   -7.6435    6.7886 C   0  0  0  0  0  0  0  0  0  0  0  0
    5.1816   -7.3610    5.2854 C   0  0  0  0  0  0  0  0  0  0  0  0
    4.7435   -5.9180    4.8894 C   0  0  2  0  0  0  0  0  0  0  0  0
    5.9610   -4.9947    5.1789 C   0  0  0  0  0  0  0  0  0  0  0  0
    4.2955   -5.8363    3.3470 C   0  0  1  0  0  0  0  0  0  0  0  0
    3.0708   -6.7573    3.0803 C   0  0  0  0  0  0  0  0  0  0  0  0
    5.4744   -6.2421    2.3896 C   0  0  1  0  0  0  0  0  0  0  0  0
    5.7691   -7.6255    2.4146 O   0  0  0  0  0  0  0  0  0  0  0  0
    5.2323   -5.8930    0.9203 C   0  0  0  0  0  0  0  0  0  0  0  0
    5.0107   -4.3904    0.6660 C   0  0  1  0  0  0  0  0  0  0  0  0
    4.6817   -4.2833   -0.8451 C   0  0  0  0  0  0  0  0  0  0  0  0
    6.2569   -3.5306    1.0399 C   0  0  1  0  0  0  0  0  0  0  0  0
    7.4296   -3.9818    0.3926 O   0  0  0  0  0  0  0  0  0  0  0  0
    6.0937   -2.0052    0.8235 C   0  0  1  0  0  0  0  0  0  0  0  0
    6.1867   -1.6784   -0.5581 O   0  0  0  0  0  0  0  0  0  0  0  0
    3.5849    0.3786    1.4462 H   0  0  0  0  0  0  0  0  0  0  0  0
    4.1172   -0.1606   -0.1423 H   0  0  0  0  0  0  0  0  0  0  0  0
    5.2724    0.5723    0.9390 H   0  0  0  0  0  0  0  0  0  0  0  0
    5.4141   -2.1322    3.4842 H   0  0  0  0  0  0  0  0  0  0  0  0
    4.1836   -0.8718    3.5224 H   0  0  0  0  0  0  0  0  0  0  0  0
    5.8496   -0.4748    3.1435 H   0  0  0  0  0  0  0  0  0  0  0  0
    2.7076   -2.0309    1.8302 H   0  0  0  0  0  0  0  0  0  0  0  0
    3.2274   -2.2861    0.2487 H   0  0  0  0  0  0  0  0  0  0  0  0
    2.9253   -4.4204    1.1125 H   0  0  0  0  0  0  0  0  0  0  0  0
    2.7861   -2.7053    3.7719 H   0  0  0  0  0  0  0  0  0  0  0  0
    3.4779   -3.3063    6.0499 H   0  0  0  0  0  0  0  0  0  0  0  0
    1.9439   -4.0526    5.6000 H   0  0  0  0  0  0  0  0  0  0  0  0
    2.5309   -5.2770    8.8135 H   0  0  0  0  0  0  0  0  0  0  0  0
    1.5792   -4.7071    7.4807 H   0  0  0  0  0  0  0  0  0  0  0  0
    0.7733   -8.7624    8.2366 H   0  0  0  0  0  0  0  0  0  0  0  0
    2.5041   -7.3607   11.8934 H   0  0  0  0  0  0  0  0  0  0  0  0
    2.0340   -6.1790   10.7093 H   0  0  0  0  0  0  0  0  0  0  0  0
    3.5204   -7.1066   10.5050 H   0  0  0  0  0  0  0  0  0  0  0  0
    0.2806   -8.5133   11.7606 H   0  0  0  0  0  0  0  0  0  0  0  0
   -0.4233   -8.9017   10.2017 H   0  0  0  0  0  0  0  0  0  0  0  0
   -0.1684   -7.2244   10.6609 H   0  0  0  0  0  0  0  0  0  0  0  0
    2.5562   -9.6499   11.4995 H   0  0  0  0  0  0  0  0  0  0  0  0
    1.5005  -11.0157    9.3091 H   0  0  0  0  0  0  0  0  0  0  0  0
    4.3829   -9.1328    9.9200 H   0  0  0  0  0  0  0  0  0  0  0  0
    4.0542  -10.8391    9.9473 H   0  0  0  0  0  0  0  0  0  0  0  0
    4.2746  -10.1547    7.6248 H   0  0  0  0  0  0  0  0  0  0  0  0
    2.6640  -10.6507    7.9263 H   0  0  0  0  0  0  0  0  0  0  0  0
    2.9686   -9.3576    5.5797 H   0  0  0  0  0  0  0  0  0  0  0  0
    1.8478   -7.9996    5.6704 H   0  0  0  0  0  0  0  0  0  0  0  0
    1.3879   -9.5745    6.2795 H   0  0  0  0  0  0  0  0  0  0  0  0
    4.1418   -7.1210    8.4987 H   0  0  0  0  0  0  0  0  0  0  0  0
    5.9440   -6.9952    7.2455 H   0  0  0  0  0  0  0  0  0  0  0  0
    5.5596   -8.6504    6.9763 H   0  0  0  0  0  0  0  0  0  0  0  0
    6.1858   -7.5579    4.9123 H   0  0  0  0  0  0  0  0  0  0  0  0
    4.5559   -8.1121    4.8220 H   0  0  0  0  0  0  0  0  0  0  0  0
    6.8839   -5.3694    4.7394 H   0  0  0  0  0  0  0  0  0  0  0  0
    6.1473   -4.9078    6.2488 H   0  0  0  0  0  0  0  0  0  0  0  0
    5.8117   -3.9826    4.8101 H   0  0  0  0  0  0  0  0  0  0  0  0
    3.2898   -7.8186    3.1583 H   0  0  0  0  0  0  0  0  0  0  0  0
    2.6667   -6.6021    2.0827 H   0  0  0  0  0  0  0  0  0  0  0  0
    2.2570   -6.5478    3.7742 H   0  0  0  0  0  0  0  0  0  0  0  0
    6.3907   -5.7411    2.6869 H   0  0  0  0  0  0  0  0  0  0  0  0
    5.0061   -8.1077    2.1373 H   0  0  0  0  0  0  0  0  0  0  0  0
    6.0717   -6.2475    0.3222 H   0  0  0  0  0  0  0  0  0  0  0  0
    4.3677   -6.4528    0.5627 H   0  0  0  0  0  0  0  0  0  0  0  0
    5.5039   -4.6482   -1.4597 H   0  0  0  0  0  0  0  0  0  0  0  0
    4.4359   -3.2888   -1.2038 H   0  0  0  0  0  0  0  0  0  0  0  0
    3.8132   -4.8922   -1.0839 H   0  0  0  0  0  0  0  0  0  0  0  0
    6.4345   -3.6556    2.1041 H   0  0  0  0  0  0  0  0  0  0  0  0
    7.3324   -3.8043   -0.5311 H   0  0  0  0  0  0  0  0  0  0  0  0
    6.9487   -1.5053    1.2829 H   0  0  0  0  0  0  0  0  0  0  0  0
    5.4092   -2.0097   -0.9827 H   0  0  0  0  0  0  0  0  0  0  0  0
  1  2  1  0
  1 40  1  0
  1 41  1  0
  1 42  1  0
  2 38  1  0
  2  3  1  0
  2  4  1  0
  3 43  1  0
  3 44  1  0
  3 45  1  0
  4  5  1  0
  4 46  1  0
  4 47  1  0
  5 34  1  0
  5  6  1  0
  5 48  1  6
  6 29  1  0
  6  7  2  0
  7  8  1  0
  7 49  1  0
  8  9  1  0
  8 50  1  0
  8 51  1  0
  9 27  1  0
  9 10  2  0
 10 24  1  0
 10 11  1  0
 11 12  1  0
 11 52  1  0
 11 53  1  0
 12 13  2  0
 12 14  1  0
 14 22  1  0
 14 15  1  0
 14 54  1  6
 15 16  1  0
 15 17  1  0
 15 18  1  0
 16 55  1  0
 16 56  1  0
 16 57  1  0
 17 58  1  0
 17 59  1  0
 17 60  1  0
 18 19  1  0
 18 20  1  0
 18 61  1  1
 19 62  1  0
 20 21  1  0
 20 63  1  0
 20 64  1  0
 21 22  1  0
 21 65  1  0
 21 66  1  0
 22 23  1  6
 22 24  1  0
 23 67  1  0
 23 68  1  0
 23 69  1  0
 24 25  1  0
 24 70  1  1
 25 26  1  0
 25 71  1  0
 25 72  1  0
 26 27  1  0
 26 73  1  0
 26 74  1  0
 27 28  1  6
 27 29  1  0
 28 75  1  0
 28 76  1  0
 28 77  1  0
 29 30  1  1
 29 31  1  0
 30 78  1  0
 30 79  1  0
 30 80  1  0
 31 32  1  0
 31 33  1  0
 31 81  1  1
 32 82  1  0
 33 34  1  0
 33 83  1  0
 33 84  1  0
 34 35  1  6
 34 36  1  0
 35 85  1  0
 35 86  1  0
 35 87  1  0
 36 37  1  0
 36 38  1  0
 36 88  1  1
 37 89  1  0
 38 39  1  0
 38 90  1  1
 39 91  1  0
M  END
>  <i_m_ct_stereo_status>  (220) 
1

>  <s_m_source_file>  (220) 
/var/tmp/pbs.5076255.sched01/tmpn9kf4o8v/46f5dlbpu8.sdf

>  <i_m_source_file_index>  (220) 
41

>  <i_lp_mmshare_version>  (220) 
48012

>  <i_f3d_flags>  (220) 
0

>  <s_epik_input>  (220) 
W0NIM11DKFtDSDNdKShbQ0gyXTEpW0NASF0oW09IXSlbQ0BIXShbT0hdKVtDQEBdKFtDSDNdKShbQ0gyXVtDQEBIXTJbT0hdKVtDQEhdMUMoPVtDSF1bQ0gyXTMpW0NAXTIoW0NIM10pW0NAXShbQ0gzXSkoW0NIMl1bQ0gyXVtDQEBIXTQ1KUMzPUM0W0NIMl1DKD1PKVtDQEBIXShbQ0BAXTU2W0NIM10pQyhbQ0gzXSkoW0NIM10pW0NAQEhdKFtPSF0pW0NIMl1bQ0gyXTY=

>  <s_epik_cmdline>  (220) 
J2VwaWtfcHl0aG9uJywgJy1waHQnLCAnMi4wJywgJy1waCcsICc3LjAnLCAnLXRuJywgJzgnLCAnLW1hJywgJzIwMCcsICctaW1hZScsICc8aW5maWxlLm1hZT4nLCAnLW9tYWUnLCAnPG91dGZpbGUubWFlPic=

>  <r_lp_tautomer_probability>  (220) 
1

>  <r_epik_Ionization_Penalty>  (220) 
2.44497e-06

>  <r_epik_Ionization_Penalty_Charging>  (220) 
0

>  <r_epik_Ionization_Penalty_Neutral>  (220) 
2.44497e-06

>  <r_epik_State_Penalty>  (220) 
-0

>  <r_epik_Charging_Adjusted_Penalty>  (220) 
0

>  <i_epik_Tot_Q>  (220) 
0

>  <i_epik_Tot_abs_Q>  (220) 
0

>  <s_lp_Force_Field>  (220) 
OPLS3e

>  <r_lp_Energy>  (220) 
95.2275

>  <b_lp_Chiralities_Consistent>  (220) 
1

>  <s_lp_Variant>  (220) 
60:0-1

>  <s_i_glide_gridfile>  (220) 
pfpi4k_grid

>  <i_i_glide_lignum>  (220) 
41

>  <i_i_glide_rotatable_bonds>  (220) 
4

>  <r_i_docking_score>  (220) 
-2.98884

>  <r_i_glide_ligand_efficiency>  (220) 
-0.076637

>  <r_i_glide_ligand_efficiency_sa>  (220) 
-0.259892

>  <r_i_glide_ligand_efficiency_ln>  (220) 
-0.640893

>  <r_i_glide_gscore>  (220) 
-2.98884

>  <r_i_glide_lipo>  (220) 
-0.603275

>  <r_i_glide_hbond>  (220) 
-0.141972

>  <r_i_glide_metal>  (220) 
-0

>  <r_i_glide_rewards>  (220) 
0

>  <r_i_glide_evdw>  (220) 
-26.4354

>  <r_i_glide_ecoul>  (220) 
-6.11999

>  <r_i_glide_erotb>  (220) 
0

>  <r_i_glide_esite>  (220) 
-0.00382855

>  <r_i_glide_emodel>  (220) 
-39.6311

>  <r_i_glide_energy>  (220) 
-32.5553

>  <r_i_glide_einternal>  (220) 
0.460515

>  <r_i_glide_intrahb_reward>  (220) 
-0

>  <i_i_glide_confnum>  (220) 
1

>  <i_i_glide_posenum>  (220) 
24

>  <r_i_glide_eff_state_penalty>  (220) 
0

>  <ligand_id>  (220) 
60

>  <original_smiles>  (220) 
CC1(C)CC2C3=CCC4=C5CC(=O)C6C(C)(C)C(O)CCC6(C)C5CCC4(C)C3(C)C(O)CC2(C)C(O)C1O

>  <smiles>  (220) 
[H]OC1([H])C([H])([H])C2(C([H])([H])[H])C([H])(O[H])C([H])(O[H])C(C([H])([H])[H])(C([H])([H])[H])C([H])([H])C2([H])C2=C([H])C([H])([H])C3=C4C([H])([H])C(=O)C5([H])C(C([H])([H])[H])(C([H])([H])[H])C([H])(O[H])C([H])([H])C([H])([H])C5(C([H])([H])[H])C4([H])C([H])([H])C([H])([H])C3(C([H])([H])[H])C21C([H])([H])[H]

$$$$
60:0:1
     RDKit          3D

 91 96  0  0  1  0  0  0  0  0999 V2000
   -1.3508    2.2825    7.3296 C   0  0  0  0  0  0  0  0  0  0  0  0
   -0.1539    1.6004    6.6164 C   0  0  0  0  0  0  0  0  0  0  0  0
    0.2117    0.3710    7.4774 C   0  0  0  0  0  0  0  0  0  0  0  0
   -0.6141    1.1859    5.1828 C   0  0  0  0  0  0  0  0  0  0  0  0
    0.4990    0.7324    4.1801 C   0  0  2  0  0  0  0  0  0  0  0  0
    1.0269   -0.7275    4.3288 C   0  0  0  0  0  0  0  0  0  0  0  0
    0.3109   -1.6709    4.9804 C   0  0  0  0  0  0  0  0  0  0  0  0
    0.6425   -3.1458    5.0898 C   0  0  0  0  0  0  0  0  0  0  0  0
    1.9665   -3.5718    4.4553 C   0  0  0  0  0  0  0  0  0  0  0  0
    2.2136   -4.8742    4.1513 C   0  0  0  0  0  0  0  0  0  0  0  0
    1.1990   -6.0041    4.3305 C   0  0  0  0  0  0  0  0  0  0  0  0
    1.0503   -6.7904    3.0252 C   0  0  0  0  0  0  0  0  0  0  0  0
   -0.0627   -6.9814    2.5317 O   0  0  0  0  0  0  0  0  0  0  0  0
    2.3370   -7.2951    2.3354 C   0  0  2  0  0  0  0  0  0  0  0  0
    2.8118   -8.7313    2.8120 C   0  0  0  0  0  0  0  0  0  0  0  0
    2.9399   -8.8988    4.3468 C   0  0  0  0  0  0  0  0  0  0  0  0
    1.7626   -9.7859    2.3826 C   0  0  0  0  0  0  0  0  0  0  0  0
    4.1821   -9.1139    2.1807 C   0  0  1  0  0  0  0  0  0  0  0  0
    4.0840   -9.4433    0.8068 O   0  0  0  0  0  0  0  0  0  0  0  0
    5.2143   -7.9919    2.3388 C   0  0  0  0  0  0  0  0  0  0  0  0
    4.7303   -6.7009    1.6707 C   0  0  0  0  0  0  0  0  0  0  0  0
    3.4008   -6.1322    2.2475 C   0  0  1  0  0  0  0  0  0  0  0  0
    2.9084   -5.1115    1.1851 C   0  0  0  0  0  0  0  0  0  0  0  0
    3.5554   -5.4081    3.6415 C   0  0  1  0  0  0  0  0  0  0  0  0
    4.6745   -4.3625    3.8323 C   0  0  0  0  0  0  0  0  0  0  0  0
    4.2398   -2.9320    3.5082 C   0  0  0  0  0  0  0  0  0  0  0  0
    2.9879   -2.4259    4.2882 C   0  0  2  0  0  0  0  0  0  0  0  0
    3.4768   -2.0751    5.7242 C   0  0  0  0  0  0  0  0  0  0  0  0
    2.3145   -1.1531    3.5755 C   0  0  1  0  0  0  0  0  0  0  0  0
    1.8277   -1.5170    2.1453 C   0  0  0  0  0  0  0  0  0  0  0  0
    3.3239    0.0456    3.4834 C   0  0  1  0  0  0  0  0  0  0  0  0
    4.3611   -0.1729    2.5433 O   0  0  0  0  0  0  0  0  0  0  0  0
    2.6643    1.3717    3.1037 C   0  0  0  0  0  0  0  0  0  0  0  0
    1.5841    1.8375    4.0924 C   0  0  1  0  0  0  0  0  0  0  0  0
    1.0127    3.1292    3.4543 C   0  0  0  0  0  0  0  0  0  0  0  0
    2.1447    2.1059    5.5291 C   0  0  1  0  0  0  0  0  0  0  0  0
    3.2182    3.0301    5.5380 O   0  0  0  0  0  0  0  0  0  0  0  0
    1.0857    2.5448    6.5715 C   0  0  1  0  0  0  0  0  0  0  0  0
    0.7149    3.8929    6.3485 O   0  0  0  0  0  0  0  0  0  0  0  0
   -2.1919    1.5979    7.4516 H   0  0  0  0  0  0  0  0  0  0  0  0
   -1.7203    3.1333    6.7532 H   0  0  0  0  0  0  0  0  0  0  0  0
   -1.0755    2.6549    8.3178 H   0  0  0  0  0  0  0  0  0  0  0  0
    1.0972   -0.1342    7.0979 H   0  0  0  0  0  0  0  0  0  0  0  0
   -0.5980   -0.3569    7.5030 H   0  0  0  0  0  0  0  0  0  0  0  0
    0.4294    0.6570    8.5078 H   0  0  0  0  0  0  0  0  0  0  0  0
   -1.4233    0.4608    5.2416 H   0  0  0  0  0  0  0  0  0  0  0  0
   -1.1178    2.0434    4.7344 H   0  0  0  0  0  0  0  0  0  0  0  0
    0.0118    0.7039    3.2048 H   0  0  0  0  0  0  0  0  0  0  0  0
   -0.6249   -1.4301    5.4502 H   0  0  0  0  0  0  0  0  0  0  0  0
    0.6749   -3.3994    6.1493 H   0  0  0  0  0  0  0  0  0  0  0  0
   -0.1922   -3.6746    4.6373 H   0  0  0  0  0  0  0  0  0  0  0  0
    1.5380   -6.6633    5.1264 H   0  0  0  0  0  0  0  0  0  0  0  0
    0.2162   -5.6559    4.6291 H   0  0  0  0  0  0  0  0  0  0  0  0
    2.0428   -7.4651    1.2996 H   0  0  0  0  0  0  0  0  0  0  0  0
    3.2566   -9.9133    4.5931 H   0  0  0  0  0  0  0  0  0  0  0  0
    1.9928   -8.7512    4.8644 H   0  0  0  0  0  0  0  0  0  0  0  0
    3.6808   -8.2370    4.7859 H   0  0  0  0  0  0  0  0  0  0  0  0
    2.1226  -10.8043    2.5416 H   0  0  0  0  0  0  0  0  0  0  0  0
    1.5338   -9.6952    1.3187 H   0  0  0  0  0  0  0  0  0  0  0  0
    0.8186   -9.6820    2.9202 H   0  0  0  0  0  0  0  0  0  0  0  0
    4.5706  -10.0077    2.6704 H   0  0  0  0  0  0  0  0  0  0  0  0
    4.0290  -10.4038    0.7161 H   0  0  0  0  0  0  0  0  0  0  0  0
    5.4299   -7.8062    3.3917 H   0  0  0  0  0  0  0  0  0  0  0  0
    6.1604   -8.2996    1.8933 H   0  0  0  0  0  0  0  0  0  0  0  0
    5.5282   -5.9623    1.6924 H   0  0  0  0  0  0  0  0  0  0  0  0
    4.5939   -6.9120    0.6057 H   0  0  0  0  0  0  0  0  0  0  0  0
    3.6780   -4.3775    0.9432 H   0  0  0  0  0  0  0  0  0  0  0  0
    2.0159   -4.5713    1.5022 H   0  0  0  0  0  0  0  0  0  0  0  0
    2.6611   -5.6104    0.2438 H   0  0  0  0  0  0  0  0  0  0  0  0
    3.8296   -6.1867    4.3452 H   0  0  0  0  0  0  0  0  0  0  0  0
    4.9796   -4.3873    4.8790 H   0  0  0  0  0  0  0  0  0  0  0  0
    5.5821   -4.6133    3.2861 H   0  0  0  0  0  0  0  0  0  0  0  0
    5.0928   -2.2842    3.7121 H   0  0  0  0  0  0  0  0  0  0  0  0
    4.0925   -2.8740    2.4381 H   0  0  0  0  0  0  0  0  0  0  0  0
    4.3528   -1.4269    5.7260 H   0  0  0  0  0  0  0  0  0  0  0  0
    3.7642   -2.9726    6.2739 H   0  0  0  0  0  0  0  0  0  0  0  0
    2.7113   -1.5838    6.3231 H   0  0  0  0  0  0  0  0  0  0  0  0
    2.6271   -1.7287    1.4355 H   0  0  0  0  0  0  0  0  0  0  0  0
    1.2380   -0.7155    1.7000 H   0  0  0  0  0  0  0  0  0  0  0  0
    1.1793   -2.3921    2.1677 H   0  0  0  0  0  0  0  0  0  0  0  0
    3.8195    0.1976    4.4368 H   0  0  0  0  0  0  0  0  0  0  0  0
    3.9787   -0.1705    1.6767 H   0  0  0  0  0  0  0  0  0  0  0  0
    3.4143    2.1523    3.0099 H   0  0  0  0  0  0  0  0  0  0  0  0
    2.2322    1.2839    2.1050 H   0  0  0  0  0  0  0  0  0  0  0  0
    1.7766    3.8946    3.3370 H   0  0  0  0  0  0  0  0  0  0  0  0
    0.1903    3.5837    3.9964 H   0  0  0  0  0  0  0  0  0  0  0  0
    0.6159    2.9231    2.4636 H   0  0  0  0  0  0  0  0  0  0  0  0
    2.5523    1.1675    5.9036 H   0  0  0  0  0  0  0  0  0  0  0  0
    2.9403    3.8118    5.0811 H   0  0  0  0  0  0  0  0  0  0  0  0
    1.5625    2.5387    7.5528 H   0  0  0  0  0  0  0  0  0  0  0  0
    1.4959    4.4185    6.4390 H   0  0  0  0  0  0  0  0  0  0  0  0
  1  2  1  0
  1 40  1  0
  1 41  1  0
  1 42  1  0
  2 38  1  0
  2  3  1  0
  2  4  1  0
  3 43  1  0
  3 44  1  0
  3 45  1  0
  4  5  1  0
  4 46  1  0
  4 47  1  0
  5 34  1  0
  5  6  1  0
  5 48  1  6
  6 29  1  0
  6  7  2  0
  7  8  1  0
  7 49  1  0
  8  9  1  0
  8 50  1  0
  8 51  1  0
  9 27  1  0
  9 10  2  0
 10 24  1  0
 10 11  1  0
 11 12  1  0
 11 52  1  0
 11 53  1  0
 12 13  2  0
 12 14  1  0
 14 22  1  0
 14 15  1  0
 14 54  1  6
 15 16  1  0
 15 17  1  0
 15 18  1  0
 16 55  1  0
 16 56  1  0
 16 57  1  0
 17 58  1  0
 17 59  1  0
 17 60  1  0
 18 19  1  0
 18 20  1  0
 18 61  1  1
 19 62  1  0
 20 21  1  0
 20 63  1  0
 20 64  1  0
 21 22  1  0
 21 65  1  0
 21 66  1  0
 22 23  1  6
 22 24  1  0
 23 67  1  0
 23 68  1  0
 23 69  1  0
 24 25  1  0
 24 70  1  1
 25 26  1  0
 25 71  1  0
 25 72  1  0
 26 27  1  0
 26 73  1  0
 26 74  1  0
 27 28  1  1
 27 29  1  0
 28 75  1  0
 28 76  1  0
 28 77  1  0
 29 30  1  6
 29 31  1  0
 30 78  1  0
 30 79  1  0
 30 80  1  0
 31 32  1  0
 31 33  1  0
 31 81  1  1
 32 82  1  0
 33 34  1  0
 33 83  1  0
 33 84  1  0
 34 35  1  6
 34 36  1  0
 35 85  1  0
 35 86  1  0
 35 87  1  0
 36 37  1  0
 36 38  1  0
 36 88  1  1
 37 89  1  0
 38 39  1  0
 38 90  1  1
 39 91  1  0
M  END
>  <i_m_ct_stereo_status>  (221) 
1

>  <s_m_source_file>  (221) 
/var/tmp/pbs.5076255.sched01/tmpn9kf4o8v/46f5dlbpu8.sdf

>  <i_m_source_file_index>  (221) 
41

>  <i_lp_mmshare_version>  (221) 
48012

>  <i_f3d_flags>  (221) 
0

>  <s_epik_input>  (221) 
W0NIM11DKFtDSDNdKShbQ0gyXTEpW0NASF0oW09IXSlbQ0BIXShbT0hdKVtDQEBdKFtDSDNdKShbQ0gyXVtDQEBIXTJbT0hdKVtDQEhdMUMoPVtDSF1bQ0gyXTMpW0NAXTIoW0NIM10pW0NAXShbQ0gzXSkoW0NIMl1bQ0gyXVtDQEBIXTQ1KUMzPUM0W0NIMl1DKD1PKVtDQEBIXShbQ0BAXTU2W0NIM10pQyhbQ0gzXSkoW0NIM10pW0NAQEhdKFtPSF0pW0NIMl1bQ0gyXTY=

>  <s_epik_cmdline>  (221) 
J2VwaWtfcHl0aG9uJywgJy1waHQnLCAnMi4wJywgJy1waCcsICc3LjAnLCAnLXRuJywgJzgnLCAnLW1hJywgJzIwMCcsICctaW1hZScsICc8aW5maWxlLm1hZT4nLCAnLW9tYWUnLCAnPG91dGZpbGUubWFlPic=

>  <r_lp_tautomer_probability>  (221) 
1

>  <r_epik_Ionization_Penalty>  (221) 
2.44497e-06

>  <r_epik_Ionization_Penalty_Charging>  (221) 
0

>  <r_epik_Ionization_Penalty_Neutral>  (221) 
2.44497e-06

>  <r_epik_State_Penalty>  (221) 
-0

>  <r_epik_Charging_Adjusted_Penalty>  (221) 
0

>  <i_epik_Tot_Q>  (221) 
0

>  <i_epik_Tot_abs_Q>  (221) 
0

>  <s_lp_Force_Field>  (221) 
OPLS3e

>  <r_lp_Energy>  (221) 
95.2275

>  <b_lp_Chiralities_Consistent>  (221) 
1

>  <s_lp_Variant>  (221) 
60:0-1

>  <s_i_glide_gridfile>  (221) 
pfpi4k_grid

>  <i_i_glide_lignum>  (221) 
41

>  <i_i_glide_rotatable_bonds>  (221) 
4

>  <r_i_docking_score>  (221) 
-2.95343

>  <r_i_glide_ligand_efficiency>  (221) 
-0.075729

>  <r_i_glide_ligand_efficiency_sa>  (221) 
-0.256813

>  <r_i_glide_ligand_efficiency_ln>  (221) 
-0.6333

>  <r_i_glide_gscore>  (221) 
-2.95343

>  <r_i_glide_lipo>  (221) 
-0.181464

>  <r_i_glide_hbond>  (221) 
-0.220162

>  <r_i_glide_metal>  (221) 
-0

>  <r_i_glide_rewards>  (221) 
0

>  <r_i_glide_evdw>  (221) 
-31.6294

>  <r_i_glide_ecoul>  (221) 
-6.26902

>  <r_i_glide_erotb>  (221) 
0

>  <r_i_glide_esite>  (221) 
-0.029983

>  <r_i_glide_emodel>  (221) 
-44.3571

>  <r_i_glide_energy>  (221) 
-37.8984

>  <r_i_glide_einternal>  (221) 
1.5006

>  <r_i_glide_intrahb_reward>  (221) 
-0

>  <i_i_glide_confnum>  (221) 
2

>  <i_i_glide_posenum>  (221) 
6

>  <r_i_glide_eff_state_penalty>  (221) 
0

>  <ligand_id>  (221) 
60

>  <original_smiles>  (221) 
CC1(C)CC2C3=CCC4=C5CC(=O)C6C(C)(C)C(O)CCC6(C)C5CCC4(C)C3(C)C(O)CC2(C)C(O)C1O

>  <smiles>  (221) 
[H]OC1([H])C([H])([H])C2(C([H])([H])[H])C([H])(O[H])C([H])(O[H])C(C([H])([H])[H])(C([H])([H])[H])C([H])([H])C2([H])C2=C([H])C([H])([H])C3=C4C([H])([H])C(=O)C5([H])C(C([H])([H])[H])(C([H])([H])[H])C([H])(O[H])C([H])([H])C([H])([H])C5(C([H])([H])[H])C4([H])C([H])([H])C([H])([H])C3(C([H])([H])[H])C21C([H])([H])[H]

$$$$
60:0:2
     RDKit          3D

 91 96  0  0  1  0  0  0  0  0999 V2000
    1.9032    3.3228    2.9845 C   0  0  0  0  0  0  0  0  0  0  0  0
    1.6739    2.1478    3.9648 C   0  0  0  0  0  0  0  0  0  0  0  0
    0.5677    1.2689    3.3337 C   0  0  0  0  0  0  0  0  0  0  0  0
    3.0189    1.3623    4.0938 C   0  0  0  0  0  0  0  0  0  0  0  0
    3.1212    0.3051    5.2424 C   0  0  2  0  0  0  0  0  0  0  0  0
    2.4490   -1.0819    4.9800 C   0  0  0  0  0  0  0  0  0  0  0  0
    2.1722   -1.5009    3.7316 C   0  0  0  0  0  0  0  0  0  0  0  0
    1.6473   -2.8628    3.3260 C   0  0  0  0  0  0  0  0  0  0  0  0
    1.3326   -3.8150    4.4774 C   0  0  0  0  0  0  0  0  0  0  0  0
    1.2099   -5.1592    4.2737 C   0  0  0  0  0  0  0  0  0  0  0  0
    1.4538   -5.8453    2.9305 C   0  0  0  0  0  0  0  0  0  0  0  0
    2.4468   -7.0002    3.0873 C   0  0  0  0  0  0  0  0  0  0  0  0
    3.3980   -7.1197    2.3193 O   0  0  0  0  0  0  0  0  0  0  0  0
    2.1903   -8.0203    4.2156 C   0  0  2  0  0  0  0  0  0  0  0  0
    1.3001   -9.2518    3.7650 C   0  0  0  0  0  0  0  0  0  0  0  0
   -0.0406   -8.8711    3.0839 C   0  0  0  0  0  0  0  0  0  0  0  0
    2.0760  -10.0864    2.7125 C   0  0  0  0  0  0  0  0  0  0  0  0
    0.9672  -10.1696    4.9767 C   0  0  1  0  0  0  0  0  0  0  0  0
    2.0908  -10.9167    5.4063 O   0  0  0  0  0  0  0  0  0  0  0  0
    0.4331   -9.3746    6.1738 C   0  0  0  0  0  0  0  0  0  0  0  0
    1.4639   -8.3412    6.6403 C   0  0  0  0  0  0  0  0  0  0  0  0
    1.8529   -7.2826    5.5693 C   0  0  1  0  0  0  0  0  0  0  0  0
    3.1629   -6.6361    6.0969 C   0  0  0  0  0  0  0  0  0  0  0  0
    0.7628   -6.1642    5.3399 C   0  0  1  0  0  0  0  0  0  0  0  0
    0.1525   -5.4426    6.5588 C   0  0  0  0  0  0  0  0  0  0  0  0
    0.9069   -4.1738    6.9628 C   0  0  0  0  0  0  0  0  0  0  0  0
    1.0791   -3.1128    5.8314 C   0  0  2  0  0  0  0  0  0  0  0  0
   -0.2899   -2.3882    5.6917 C   0  0  0  0  0  0  0  0  0  0  0  0
    2.2556   -2.0711    6.1634 C   0  0  1  0  0  0  0  0  0  0  0  0
    3.6225   -2.8033    6.2881 C   0  0  0  0  0  0  0  0  0  0  0  0
    1.9567   -1.2863    7.4899 C   0  0  1  0  0  0  0  0  0  0  0  0
    2.0747   -2.0810    8.6540 O   0  0  0  0  0  0  0  0  0  0  0  0
    2.8619   -0.0749    7.7118 C   0  0  0  0  0  0  0  0  0  0  0  0
    2.7692    0.9818    6.5943 C   0  0  1  0  0  0  0  0  0  0  0  0
    3.8359    2.0462    6.9808 C   0  0  0  0  0  0  0  0  0  0  0  0
    1.3396    1.6011    6.4729 C   0  0  1  0  0  0  0  0  0  0  0  0
    0.8832    2.1198    7.7050 O   0  0  0  0  0  0  0  0  0  0  0  0
    1.1681    2.6594    5.3522 C   0  0  1  0  0  0  0  0  0  0  0  0
    1.7559    3.8926    5.7328 O   0  0  0  0  0  0  0  0  0  0  0  0
    2.1521    2.9644    1.9847 H   0  0  0  0  0  0  0  0  0  0  0  0
    2.7247    3.9659    3.3030 H   0  0  0  0  0  0  0  0  0  0  0  0
    1.0123    3.9457    2.8895 H   0  0  0  0  0  0  0  0  0  0  0  0
    0.2779    0.4486    3.9876 H   0  0  0  0  0  0  0  0  0  0  0  0
    0.8812    0.8427    2.3788 H   0  0  0  0  0  0  0  0  0  0  0  0
   -0.3366    1.8486    3.1384 H   0  0  0  0  0  0  0  0  0  0  0  0
    3.3008    0.9414    3.1308 H   0  0  0  0  0  0  0  0  0  0  0  0
    3.8126    2.0905    4.2562 H   0  0  0  0  0  0  0  0  0  0  0  0
    4.1763    0.0400    5.2970 H   0  0  0  0  0  0  0  0  0  0  0  0
    2.3598   -0.8739    2.8752 H   0  0  0  0  0  0  0  0  0  0  0  0
    0.7281   -2.6906    2.7692 H   0  0  0  0  0  0  0  0  0  0  0  0
    2.3898   -3.2858    2.6521 H   0  0  0  0  0  0  0  0  0  0  0  0
    0.5104   -6.2279    2.5495 H   0  0  0  0  0  0  0  0  0  0  0  0
    1.8364   -5.1722    2.1694 H   0  0  0  0  0  0  0  0  0  0  0  0
    3.1634   -8.4756    4.3963 H   0  0  0  0  0  0  0  0  0  0  0  0
   -0.5912   -9.7692    2.7991 H   0  0  0  0  0  0  0  0  0  0  0  0
    0.1063   -8.3098    2.1619 H   0  0  0  0  0  0  0  0  0  0  0  0
   -0.7045   -8.3069    3.7326 H   0  0  0  0  0  0  0  0  0  0  0  0
    1.5687  -11.0287    2.5016 H   0  0  0  0  0  0  0  0  0  0  0  0
    3.0815  -10.3363    3.0549 H   0  0  0  0  0  0  0  0  0  0  0  0
    2.1819   -9.5621    1.7623 H   0  0  0  0  0  0  0  0  0  0  0  0
    0.2154  -10.9036    4.6789 H   0  0  0  0  0  0  0  0  0  0  0  0
    1.8253  -11.4512    6.1565 H   0  0  0  0  0  0  0  0  0  0  0  0
   -0.5081   -8.8878    5.9243 H   0  0  0  0  0  0  0  0  0  0  0  0
    0.2034  -10.0601    6.9900 H   0  0  0  0  0  0  0  0  0  0  0  0
    1.1243   -7.8816    7.5647 H   0  0  0  0  0  0  0  0  0  0  0  0
    2.3630   -8.8872    6.9370 H   0  0  0  0  0  0  0  0  0  0  0  0
    3.0496   -6.2652    7.1149 H   0  0  0  0  0  0  0  0  0  0  0  0
    3.5109   -5.8118    5.4746 H   0  0  0  0  0  0  0  0  0  0  0  0
    3.9760   -7.3649    6.1291 H   0  0  0  0  0  0  0  0  0  0  0  0
   -0.0922   -6.6723    4.9045 H   0  0  0  0  0  0  0  0  0  0  0  0
   -0.8699   -5.1589    6.3024 H   0  0  0  0  0  0  0  0  0  0  0  0
    0.0405   -6.0996    7.4188 H   0  0  0  0  0  0  0  0  0  0  0  0
    0.3741   -3.7367    7.8061 H   0  0  0  0  0  0  0  0  0  0  0  0
    1.8625   -4.4835    7.3651 H   0  0  0  0  0  0  0  0  0  0  0  0
   -0.6807   -2.0376    6.6446 H   0  0  0  0  0  0  0  0  0  0  0  0
   -1.0416   -3.0566    5.2826 H   0  0  0  0  0  0  0  0  0  0  0  0
   -0.2524   -1.5351    5.0180 H   0  0  0  0  0  0  0  0  0  0  0  0
    3.6983   -3.4550    7.1554 H   0  0  0  0  0  0  0  0  0  0  0  0
    4.4469   -2.0969    6.3652 H   0  0  0  0  0  0  0  0  0  0  0  0
    3.8301   -3.4145    5.4094 H   0  0  0  0  0  0  0  0  0  0  0  0
    0.9345   -0.9221    7.4934 H   0  0  0  0  0  0  0  0  0  0  0  0
    2.9782   -2.3471    8.7465 H   0  0  0  0  0  0  0  0  0  0  0  0
    2.6261    0.3830    8.6744 H   0  0  0  0  0  0  0  0  0  0  0  0
    3.8947   -0.4140    7.8018 H   0  0  0  0  0  0  0  0  0  0  0  0
    3.6046    2.5034    7.9431 H   0  0  0  0  0  0  0  0  0  0  0  0
    3.9449    2.8569    6.2673 H   0  0  0  0  0  0  0  0  0  0  0  0
    4.8280    1.6020    7.0711 H   0  0  0  0  0  0  0  0  0  0  0  0
    0.6492    0.7999    6.2209 H   0  0  0  0  0  0  0  0  0  0  0  0
    1.4099    2.8807    7.9090 H   0  0  0  0  0  0  0  0  0  0  0  0
    0.1040    2.8830    5.2617 H   0  0  0  0  0  0  0  0  0  0  0  0
    2.6964    3.8030    5.6882 H   0  0  0  0  0  0  0  0  0  0  0  0
  1  2  1  0
  1 40  1  0
  1 41  1  0
  1 42  1  0
  2 38  1  0
  2  3  1  0
  2  4  1  0
  3 43  1  0
  3 44  1  0
  3 45  1  0
  4  5  1  0
  4 46  1  0
  4 47  1  0
  5 34  1  0
  5  6  1  0
  5 48  1  1
  6 29  1  0
  6  7  2  0
  7  8  1  0
  7 49  1  0
  8  9  1  0
  8 50  1  0
  8 51  1  0
  9 27  1  0
  9 10  2  0
 10 24  1  0
 10 11  1  0
 11 12  1  0
 11 52  1  0
 11 53  1  0
 12 13  2  0
 12 14  1  0
 14 22  1  0
 14 15  1  0
 14 54  1  1
 15 16  1  0
 15 17  1  0
 15 18  1  0
 16 55  1  0
 16 56  1  0
 16 57  1  0
 17 58  1  0
 17 59  1  0
 17 60  1  0
 18 19  1  0
 18 20  1  0
 18 61  1  6
 19 62  1  0
 20 21  1  0
 20 63  1  0
 20 64  1  0
 21 22  1  0
 21 65  1  0
 21 66  1  0
 22 23  1  1
 22 24  1  0
 23 67  1  0
 23 68  1  0
 23 69  1  0
 24 25  1  0
 24 70  1  6
 25 26  1  0
 25 71  1  0
 25 72  1  0
 26 27  1  0
 26 73  1  0
 26 74  1  0
 27 28  1  6
 27 29  1  0
 28 75  1  0
 28 76  1  0
 28 77  1  0
 29 30  1  1
 29 31  1  0
 30 78  1  0
 30 79  1  0
 30 80  1  0
 31 32  1  0
 31 33  1  0
 31 81  1  6
 32 82  1  0
 33 34  1  0
 33 83  1  0
 33 84  1  0
 34 35  1  1
 34 36  1  0
 35 85  1  0
 35 86  1  0
 35 87  1  0
 36 37  1  0
 36 38  1  0
 36 88  1  6
 37 89  1  0
 38 39  1  0
 38 90  1  6
 39 91  1  0
M  END
>  <i_m_ct_stereo_status>  (222) 
1

>  <s_m_source_file>  (222) 
/var/tmp/pbs.5076255.sched01/tmpn9kf4o8v/46f5dlbpu8.sdf

>  <i_m_source_file_index>  (222) 
41

>  <i_lp_mmshare_version>  (222) 
48012

>  <i_f3d_flags>  (222) 
0

>  <s_epik_input>  (222) 
W0NIM11DKFtDSDNdKShbQ0gyXTEpW0NASF0oW09IXSlbQ0BIXShbT0hdKVtDQEBdKFtDSDNdKShbQ0gyXVtDQEBIXTJbT0hdKVtDQEhdMUMoPVtDSF1bQ0gyXTMpW0NAXTIoW0NIM10pW0NAXShbQ0gzXSkoW0NIMl1bQ0gyXVtDQEBIXTQ1KUMzPUM0W0NIMl1DKD1PKVtDQEBIXShbQ0BAXTU2W0NIM10pQyhbQ0gzXSkoW0NIM10pW0NAQEhdKFtPSF0pW0NIMl1bQ0gyXTY=

>  <s_epik_cmdline>  (222) 
J2VwaWtfcHl0aG9uJywgJy1waHQnLCAnMi4wJywgJy1waCcsICc3LjAnLCAnLXRuJywgJzgnLCAnLW1hJywgJzIwMCcsICctaW1hZScsICc8aW5maWxlLm1hZT4nLCAnLW9tYWUnLCAnPG91dGZpbGUubWFlPic=

>  <r_lp_tautomer_probability>  (222) 
1

>  <r_epik_Ionization_Penalty>  (222) 
2.44497e-06

>  <r_epik_Ionization_Penalty_Charging>  (222) 
0

>  <r_epik_Ionization_Penalty_Neutral>  (222) 
2.44497e-06

>  <r_epik_State_Penalty>  (222) 
-0

>  <r_epik_Charging_Adjusted_Penalty>  (222) 
0

>  <i_epik_Tot_Q>  (222) 
0

>  <i_epik_Tot_abs_Q>  (222) 
0

>  <s_lp_Force_Field>  (222) 
OPLS3e

>  <r_lp_Energy>  (222) 
95.2275

>  <b_lp_Chiralities_Consistent>  (222) 
1

>  <s_lp_Variant>  (222) 
60:0-1

>  <s_i_glide_gridfile>  (222) 
pfpi4k_grid

>  <i_i_glide_lignum>  (222) 
41

>  <i_i_glide_rotatable_bonds>  (222) 
4

>  <r_i_docking_score>  (222) 
-2.28993

>  <r_i_glide_ligand_efficiency>  (222) 
-0.0587161

>  <r_i_glide_ligand_efficiency_sa>  (222) 
-0.199119

>  <r_i_glide_ligand_efficiency_ln>  (222) 
-0.491026

>  <r_i_glide_gscore>  (222) 
-2.28993

>  <r_i_glide_lipo>  (222) 
-0.105274

>  <r_i_glide_hbond>  (222) 
-0.16

>  <r_i_glide_metal>  (222) 
-0

>  <r_i_glide_rewards>  (222) 
0

>  <r_i_glide_evdw>  (222) 
-28.498

>  <r_i_glide_ecoul>  (222) 
-3.97508

>  <r_i_glide_erotb>  (222) 
0

>  <r_i_glide_esite>  (222) 
-0.00349077

>  <r_i_glide_emodel>  (222) 
-37.9761

>  <r_i_glide_energy>  (222) 
-32.4731

>  <r_i_glide_einternal>  (222) 
0.414065

>  <r_i_glide_intrahb_reward>  (222) 
-0

>  <i_i_glide_confnum>  (222) 
1

>  <i_i_glide_posenum>  (222) 
1

>  <r_i_glide_eff_state_penalty>  (222) 
0

>  <ligand_id>  (222) 
60

>  <original_smiles>  (222) 
CC1(C)CC2C3=CCC4=C5CC(=O)C6C(C)(C)C(O)CCC6(C)C5CCC4(C)C3(C)C(O)CC2(C)C(O)C1O

>  <smiles>  (222) 
[H]OC1([H])C([H])([H])C2(C([H])([H])[H])C([H])(O[H])C([H])(O[H])C(C([H])([H])[H])(C([H])([H])[H])C([H])([H])C2([H])C2=C([H])C([H])([H])C3=C4C([H])([H])C(=O)C5([H])C(C([H])([H])[H])(C([H])([H])[H])C([H])(O[H])C([H])([H])C([H])([H])C5(C([H])([H])[H])C4([H])C([H])([H])C([H])([H])C3(C([H])([H])[H])C21C([H])([H])[H]

$$$$
61:0:0
     RDKit          3D

 50 54  0  0  1  0  0  0  0  0999 V2000
    5.8624   -4.7658    0.1280 C   0  0  0  0  0  0  0  0  0  0  0  0
    5.9163   -3.9048    1.4016 C   0  0  2  0  0  0  0  0  0  0  0  0
    5.2943   -4.5302    2.6802 C   0  0  2  0  0  0  0  0  0  0  0  0
    5.4715   -5.9537    3.1909 C   0  0  0  0  0  0  0  0  0  0  0  0
    4.6284   -5.9259    4.5091 C   0  0  2  0  0  0  0  0  0  0  0  0
    3.7292   -7.1661    4.6420 C   0  0  0  0  0  0  0  0  0  0  0  0
    2.3643   -7.1196    3.9241 C   0  0  0  0  0  0  0  0  0  0  0  0
    2.2910   -6.2970    2.6823 C   0  0  0  0  0  0  0  0  0  0  0  0
    1.4681   -6.8691    1.6903 N   0  0  0  0  0  0  0  0  0  0  0  0
    1.4421   -6.2433    0.5647 N   0  0  0  0  0  0  0  0  0  0  0  0
    2.4938   -4.9544    0.6252 S   0  0  0  0  0  0  0  0  0  0  0  0
    2.8670   -5.0818    2.3099 C   0  0  0  0  0  0  0  0  0  0  0  0
    3.8575   -4.1301    3.0670 C   0  0  2  0  0  0  0  0  0  0  0  0
    3.7108   -2.5461    2.8572 C   0  0  2  0  0  0  0  0  0  0  0  0
    3.0672   -2.0279    1.5659 C   0  0  0  0  0  0  0  0  0  0  0  0
    4.1747   -2.1303    0.4917 C   0  0  0  0  0  0  0  0  0  0  0  0
    5.4974   -2.3812    1.2605 C   0  0  2  0  0  0  0  0  0  0  0  0
    6.6450   -1.5547    0.6536 C   0  0  0  0  0  0  0  0  0  0  0  0
    5.0796   -1.8457    2.6499 C   0  0  0  0  0  0  0  0  0  0  0  0
    3.9154   -4.5183    4.5902 C   0  0  0  0  0  0  0  0  0  0  0  0
    2.5238   -4.4356    5.2852 C   0  0  0  0  0  0  0  0  0  0  0  0
    4.7891   -3.6157    5.5249 C   0  0  0  0  0  0  0  0  0  0  0  0
    4.8737   -4.9429   -0.2681 H   0  0  0  0  0  0  0  0  0  0  0  0
    6.2944   -5.7478    0.3184 H   0  0  0  0  0  0  0  0  0  0  0  0
    6.4275   -4.2979   -0.6752 H   0  0  0  0  0  0  0  0  0  0  0  0
    6.9887   -3.8866    1.6165 H   0  0  0  0  0  0  0  0  0  0  0  0
    5.9643   -4.0577    3.3760 H   0  0  0  0  0  0  0  0  0  0  0  0
    5.0953   -6.6742    2.4637 H   0  0  0  0  0  0  0  0  0  0  0  0
    6.5198   -6.1882    3.3799 H   0  0  0  0  0  0  0  0  0  0  0  0
    5.3382   -6.0003    5.3351 H   0  0  0  0  0  0  0  0  0  0  0  0
    4.2915   -8.0232    4.2655 H   0  0  0  0  0  0  0  0  0  0  0  0
    3.5544   -7.3899    5.6965 H   0  0  0  0  0  0  0  0  0  0  0  0
    2.0870   -8.1519    3.7064 H   0  0  0  0  0  0  0  0  0  0  0  0
    1.5982   -6.7950    4.6275 H   0  0  0  0  0  0  0  0  0  0  0  0
    3.1667   -2.1165    3.6957 H   0  0  0  0  0  0  0  0  0  0  0  0
    2.1036   -2.4534    1.3058 H   0  0  0  0  0  0  0  0  0  0  0  0
    2.8498   -0.9667    1.7049 H   0  0  0  0  0  0  0  0  0  0  0  0
    3.9761   -2.8831   -0.2652 H   0  0  0  0  0  0  0  0  0  0  0  0
    4.2141   -1.1856   -0.0540 H   0  0  0  0  0  0  0  0  0  0  0  0
    6.3902   -0.4968    0.5908 H   0  0  0  0  0  0  0  0  0  0  0  0
    6.8937   -1.9013   -0.3487 H   0  0  0  0  0  0  0  0  0  0  0  0
    7.5430   -1.6254    1.2631 H   0  0  0  0  0  0  0  0  0  0  0  0
    4.9493   -0.7630    2.6120 H   0  0  0  0  0  0  0  0  0  0  0  0
    5.8101   -2.0034    3.4386 H   0  0  0  0  0  0  0  0  0  0  0  0
    2.3337   -3.4299    5.6640 H   0  0  0  0  0  0  0  0  0  0  0  0
    2.4607   -5.1094    6.1409 H   0  0  0  0  0  0  0  0  0  0  0  0
    1.6830   -4.6274    4.6249 H   0  0  0  0  0  0  0  0  0  0  0  0
    4.5136   -2.5608    5.4751 H   0  0  0  0  0  0  0  0  0  0  0  0
    5.8663   -3.6809    5.3646 H   0  0  0  0  0  0  0  0  0  0  0  0
    4.6516   -3.9160    6.5669 H   0  0  0  0  0  0  0  0  0  0  0  0
  1  2  1  0
  1 23  1  0
  1 24  1  0
  1 25  1  0
  2 17  1  0
  2  3  1  0
  2 26  1  1
  3 13  1  0
  3  4  1  0
  3 27  1  1
  4  5  1  0
  4 28  1  0
  4 29  1  0
  5 20  1  0
  5  6  1  0
  5 30  1  1
  6  7  1  0
  6 31  1  0
  6 32  1  0
  7  8  1  0
  7 33  1  0
  7 34  1  0
  8 12  2  0
  8  9  1  0
  9 10  2  0
 10 11  1  0
 11 12  1  0
 13 12  1  6
 13 14  1  0
 13 20  1  0
 14 19  1  0
 14 15  1  0
 14 35  1  1
 15 16  1  0
 15 36  1  0
 15 37  1  0
 16 17  1  0
 16 38  1  0
 16 39  1  0
 17 18  1  6
 17 19  1  0
 18 40  1  0
 18 41  1  0
 18 42  1  0
 19 43  1  0
 19 44  1  0
 20 21  1  0
 20 22  1  0
 21 45  1  0
 21 46  1  0
 21 47  1  0
 22 48  1  0
 22 49  1  0
 22 50  1  0
M  END
>  <i_m_ct_stereo_status>  (223) 
1

>  <s_m_source_file>  (223) 
/var/tmp/pbs.5076255.sched01/tmpn9kf4o8v/46f5dlbpu8.sdf

>  <i_m_source_file_index>  (223) 
42

>  <i_lp_mmshare_version>  (223) 
48012

>  <i_f3d_flags>  (223) 
0

>  <s_epik_input>  (223) 
W0NIMl0xW0NASF0yW0NIMl1bQ0gyXVtDQF0xKFtDSDNdKVtDQEhdKFtDSDNdKVtDQEBIXShbQ0BAXTIzNClbQ0gyXVtDQEBIXShDNChbQ0gzXSlbQ0gzXSlbQ0gyXVtDSDJdYzVjM3NubjU=

>  <s_epik_cmdline>  (223) 
J2VwaWtfcHl0aG9uJywgJy1waHQnLCAnMi4wJywgJy1waCcsICc3LjAnLCAnLXRuJywgJzgnLCAnLW1hJywgJzIwMCcsICctaW1hZScsICc8aW5maWxlLm1hZT4nLCAnLW9tYWUnLCAnPG91dGZpbGUubWFlPic=

>  <r_lp_tautomer_probability>  (223) 
1

>  <r_epik_Ionization_Penalty>  (223) 
5.48686e-07

>  <r_epik_Ionization_Penalty_Charging>  (223) 
0

>  <r_epik_Ionization_Penalty_Neutral>  (223) 
5.48686e-07

>  <r_epik_State_Penalty>  (223) 
-0

>  <r_epik_Charging_Adjusted_Penalty>  (223) 
0

>  <i_epik_Tot_Q>  (223) 
0

>  <i_epik_Tot_abs_Q>  (223) 
0

>  <s_lp_Force_Field>  (223) 
OPLS3e

>  <r_lp_Energy>  (223) 
98.5489

>  <b_lp_Chiralities_Consistent>  (223) 
1

>  <s_lp_Variant>  (223) 
61:0-1

>  <s_i_glide_gridfile>  (223) 
pfpi4k_grid

>  <i_i_glide_lignum>  (223) 
42

>  <i_i_glide_rotatable_bonds>  (223) 
0

>  <r_i_docking_score>  (223) 
-2.82796

>  <r_i_glide_ligand_efficiency>  (223) 
-0.128544

>  <r_i_glide_ligand_efficiency_sa>  (223) 
-0.360185

>  <r_i_glide_ligand_efficiency_ln>  (223) 
-0.691257

>  <r_i_glide_gscore>  (223) 
-2.82796

>  <r_i_glide_lipo>  (223) 
-0.342937

>  <r_i_glide_hbond>  (223) 
0

>  <r_i_glide_metal>  (223) 
-0

>  <r_i_glide_rewards>  (223) 
-1.2511

>  <r_i_glide_evdw>  (223) 
-18.7023

>  <r_i_glide_ecoul>  (223) 
-1.17553

>  <r_i_glide_erotb>  (223) 
0

>  <r_i_glide_esite>  (223) 
-0.12248

>  <r_i_glide_emodel>  (223) 
-23.078

>  <r_i_glide_energy>  (223) 
-19.8778

>  <r_i_glide_einternal>  (223) 
0

>  <r_i_glide_intrahb_reward>  (223) 
-0

>  <i_i_glide_confnum>  (223) 
1

>  <i_i_glide_posenum>  (223) 
7

>  <r_i_glide_eff_state_penalty>  (223) 
0

>  <ligand_id>  (223) 
61

>  <original_smiles>  (223) 
CC1C2CC3CCc4nnsc4C2(C2CCC1(C)C2)C3(C)C

>  <smiles>  (223) 
[H]C([H])([H])C1([H])C2([H])C([H])([H])C3([H])C([H])([H])C([H])([H])c4nnsc4C2(C2([H])C([H])([H])C([H])([H])C1(C([H])([H])[H])C2([H])[H])C3(C([H])([H])[H])C([H])([H])[H]

$$$$
61:0:1
     RDKit          3D

 50 54  0  0  1  0  0  0  0  0999 V2000
    2.6673   -1.8046    1.2252 C   0  0  0  0  0  0  0  0  0  0  0  0
    3.4842   -2.8625    0.4564 C   0  0  2  0  0  0  0  0  0  0  0  0
    3.9457   -4.0641    1.3172 C   0  0  2  0  0  0  0  0  0  0  0  0
    3.1119   -4.8393    2.3265 C   0  0  0  0  0  0  0  0  0  0  0  0
    4.1433   -5.8933    2.8473 C   0  0  2  0  0  0  0  0  0  0  0  0
    4.1079   -6.0293    4.3794 C   0  0  0  0  0  0  0  0  0  0  0  0
    4.9306   -5.0160    5.1847 C   0  0  0  0  0  0  0  0  0  0  0  0
    5.0951   -3.6441    4.5765 C   0  0  0  0  0  0  0  0  0  0  0  0
    5.0344   -2.6108    5.5321 N   0  0  0  0  0  0  0  0  0  0  0  0
    5.1026   -1.4211    5.0475 N   0  0  0  0  0  0  0  0  0  0  0  0
    5.2340   -1.4889    3.4049 S   0  0  0  0  0  0  0  0  0  0  0  0
    5.2967   -3.2191    3.2690 C   0  0  0  0  0  0  0  0  0  0  0  0
    5.3647   -4.0037    1.9140 C   0  0  2  0  0  0  0  0  0  0  0  0
    6.3589   -3.4893    0.7718 C   0  0  2  0  0  0  0  0  0  0  0  0
    6.7626   -2.0061    0.7491 C   0  0  0  0  0  0  0  0  0  0  0  0
    5.5601   -1.2611    0.1354 C   0  0  0  0  0  0  0  0  0  0  0  0
    4.6561   -2.3554   -0.4821 C   0  0  2  0  0  0  0  0  0  0  0  0
    4.1150   -1.9040   -1.8509 C   0  0  0  0  0  0  0  0  0  0  0  0
    5.7020   -3.4870   -0.6354 C   0  0  0  0  0  0  0  0  0  0  0  0
    5.5378   -5.5454    2.1989 C   0  0  0  0  0  0  0  0  0  0  0  0
    6.8221   -5.8799    3.0076 C   0  0  0  0  0  0  0  0  0  0  0  0
    5.7077   -6.4816    0.9551 C   0  0  0  0  0  0  0  0  0  0  0  0
    3.1856   -1.2510    1.9851 H   0  0  0  0  0  0  0  0  0  0  0  0
    1.7947   -2.2614    1.6924 H   0  0  0  0  0  0  0  0  0  0  0  0
    2.2913   -1.0274    0.5618 H   0  0  0  0  0  0  0  0  0  0  0  0
    2.7452   -3.2916   -0.2257 H   0  0  0  0  0  0  0  0  0  0  0  0
    3.9258   -4.7978    0.5225 H   0  0  0  0  0  0  0  0  0  0  0  0
    2.7489   -4.1802    3.1175 H   0  0  0  0  0  0  0  0  0  0  0  0
    2.2452   -5.3089    1.8623 H   0  0  0  0  0  0  0  0  0  0  0  0
    3.8167   -6.8629    2.4688 H   0  0  0  0  0  0  0  0  0  0  0  0
    3.0647   -5.9579    4.6936 H   0  0  0  0  0  0  0  0  0  0  0  0
    4.4194   -7.0340    4.6714 H   0  0  0  0  0  0  0  0  0  0  0  0
    4.4638   -4.9247    6.1678 H   0  0  0  0  0  0  0  0  0  0  0  0
    5.9069   -5.4342    5.4195 H   0  0  0  0  0  0  0  0  0  0  0  0
    7.2775   -4.0806    0.7883 H   0  0  0  0  0  0  0  0  0  0  0  0
    7.1242   -1.5873    1.6804 H   0  0  0  0  0  0  0  0  0  0  0  0
    7.6121   -1.8994    0.0737 H   0  0  0  0  0  0  0  0  0  0  0  0
    5.0344   -0.6313    0.8458 H   0  0  0  0  0  0  0  0  0  0  0  0
    5.9223   -0.5752   -0.6284 H   0  0  0  0  0  0  0  0  0  0  0  0
    4.9172   -1.5932   -2.5200 H   0  0  0  0  0  0  0  0  0  0  0  0
    3.4296   -1.0624   -1.7444 H   0  0  0  0  0  0  0  0  0  0  0  0
    3.5750   -2.7104   -2.3490 H   0  0  0  0  0  0  0  0  0  0  0  0
    6.4394   -3.2276   -1.3948 H   0  0  0  0  0  0  0  0  0  0  0  0
    5.2993   -4.4422   -0.9673 H   0  0  0  0  0  0  0  0  0  0  0  0
    7.6896   -5.9962    2.3549 H   0  0  0  0  0  0  0  0  0  0  0  0
    6.7238   -6.8089    3.5707 H   0  0  0  0  0  0  0  0  0  0  0  0
    7.1060   -5.0967    3.6993 H   0  0  0  0  0  0  0  0  0  0  0  0
    6.5325   -6.1742    0.3126 H   0  0  0  0  0  0  0  0  0  0  0  0
    4.8243   -6.5963    0.3276 H   0  0  0  0  0  0  0  0  0  0  0  0
    5.9407   -7.4976    1.2845 H   0  0  0  0  0  0  0  0  0  0  0  0
  1  2  1  0
  1 23  1  0
  1 24  1  0
  1 25  1  0
  2 17  1  0
  2  3  1  0
  2 26  1  6
  3 13  1  0
  3  4  1  0
  3 27  1  6
  4  5  1  0
  4 28  1  0
  4 29  1  0
  5 20  1  0
  5  6  1  0
  5 30  1  6
  6  7  1  0
  6 31  1  0
  6 32  1  0
  7  8  1  0
  7 33  1  0
  7 34  1  0
  8 12  2  0
  8  9  1  0
  9 10  2  0
 10 11  1  0
 11 12  1  0
 13 12  1  1
 13 14  1  0
 13 20  1  0
 14 19  1  0
 14 15  1  0
 14 35  1  6
 15 16  1  0
 15 36  1  0
 15 37  1  0
 16 17  1  0
 16 38  1  0
 16 39  1  0
 17 18  1  6
 17 19  1  0
 18 40  1  0
 18 41  1  0
 18 42  1  0
 19 43  1  0
 19 44  1  0
 20 21  1  0
 20 22  1  0
 21 45  1  0
 21 46  1  0
 21 47  1  0
 22 48  1  0
 22 49  1  0
 22 50  1  0
M  END
>  <i_m_ct_stereo_status>  (224) 
1

>  <s_m_source_file>  (224) 
/var/tmp/pbs.5076255.sched01/tmpn9kf4o8v/46f5dlbpu8.sdf

>  <i_m_source_file_index>  (224) 
42

>  <i_lp_mmshare_version>  (224) 
48012

>  <i_f3d_flags>  (224) 
0

>  <s_epik_input>  (224) 
W0NIMl0xW0NASF0yW0NIMl1bQ0gyXVtDQF0xKFtDSDNdKVtDQEhdKFtDSDNdKVtDQEBIXShbQ0BAXTIzNClbQ0gyXVtDQEBIXShDNChbQ0gzXSlbQ0gzXSlbQ0gyXVtDSDJdYzVjM3NubjU=

>  <s_epik_cmdline>  (224) 
J2VwaWtfcHl0aG9uJywgJy1waHQnLCAnMi4wJywgJy1waCcsICc3LjAnLCAnLXRuJywgJzgnLCAnLW1hJywgJzIwMCcsICctaW1hZScsICc8aW5maWxlLm1hZT4nLCAnLW9tYWUnLCAnPG91dGZpbGUubWFlPic=

>  <r_lp_tautomer_probability>  (224) 
1

>  <r_epik_Ionization_Penalty>  (224) 
5.48686e-07

>  <r_epik_Ionization_Penalty_Charging>  (224) 
0

>  <r_epik_Ionization_Penalty_Neutral>  (224) 
5.48686e-07

>  <r_epik_State_Penalty>  (224) 
-0

>  <r_epik_Charging_Adjusted_Penalty>  (224) 
0

>  <i_epik_Tot_Q>  (224) 
0

>  <i_epik_Tot_abs_Q>  (224) 
0

>  <s_lp_Force_Field>  (224) 
OPLS3e

>  <r_lp_Energy>  (224) 
98.5489

>  <b_lp_Chiralities_Consistent>  (224) 
1

>  <s_lp_Variant>  (224) 
61:0-1

>  <s_i_glide_gridfile>  (224) 
pfpi4k_grid

>  <i_i_glide_lignum>  (224) 
42

>  <i_i_glide_rotatable_bonds>  (224) 
0

>  <r_i_docking_score>  (224) 
-2.70396

>  <r_i_glide_ligand_efficiency>  (224) 
-0.122907

>  <r_i_glide_ligand_efficiency_sa>  (224) 
-0.344392

>  <r_i_glide_ligand_efficiency_ln>  (224) 
-0.660948

>  <r_i_glide_gscore>  (224) 
-2.70396

>  <r_i_glide_lipo>  (224) 
-0.534593

>  <r_i_glide_hbond>  (224) 
0

>  <r_i_glide_metal>  (224) 
-0

>  <r_i_glide_rewards>  (224) 
-1.2511

>  <r_i_glide_evdw>  (224) 
-16.7999

>  <r_i_glide_ecoul>  (224) 
-0.521836

>  <r_i_glide_erotb>  (224) 
0

>  <r_i_glide_esite>  (224) 
0

>  <r_i_glide_emodel>  (224) 
-20.3014

>  <r_i_glide_energy>  (224) 
-17.3217

>  <r_i_glide_einternal>  (224) 
0

>  <r_i_glide_intrahb_reward>  (224) 
-0

>  <i_i_glide_confnum>  (224) 
1

>  <i_i_glide_posenum>  (224) 
1

>  <r_i_glide_eff_state_penalty>  (224) 
0

>  <ligand_id>  (224) 
61

>  <original_smiles>  (224) 
CC1C2CC3CCc4nnsc4C2(C2CCC1(C)C2)C3(C)C

>  <smiles>  (224) 
[H]C([H])([H])C1([H])C2([H])C([H])([H])C3([H])C([H])([H])C([H])([H])c4nnsc4C2(C2([H])C([H])([H])C([H])([H])C1(C([H])([H])[H])C2([H])[H])C3(C([H])([H])[H])C([H])([H])[H]

$$$$
61:0:2
     RDKit          3D

 50 54  0  0  1  0  0  0  0  0999 V2000
    2.4972   -2.7923   -0.1016 C   0  0  0  0  0  0  0  0  0  0  0  0
    3.4005   -3.8467   -0.5819 C   0  0  2  0  0  0  0  0  0  0  0  0
    3.9837   -4.7178    0.5354 C   0  0  2  0  0  0  0  0  0  0  0  0
    3.2254   -5.3167    1.7099 C   0  0  0  0  0  0  0  0  0  0  0  0
    4.3695   -6.0609    2.4660 C   0  0  2  0  0  0  0  0  0  0  0  0
    4.3435   -5.8291    3.9776 C   0  0  0  0  0  0  0  0  0  0  0  0
    5.0295   -4.5590    4.4765 C   0  0  0  0  0  0  0  0  0  0  0  0
    5.0056   -3.3338    3.5992 C   0  0  0  0  0  0  0  0  0  0  0  0
    4.8082   -2.1608    4.2442 N   0  0  0  0  0  0  0  0  0  0  0  0
    4.7705   -1.0834    3.4993 N   0  0  0  0  0  0  0  0  0  0  0  0
    4.9452   -1.5167    1.9203 S   0  0  0  0  0  0  0  0  0  0  0  0
    5.1787   -3.2257    2.1731 C   0  0  0  0  0  0  0  0  0  0  0  0
    5.3587   -4.2912    1.0866 C   0  0  2  0  0  0  0  0  0  0  0  0
    6.2776   -3.8985   -0.1751 C   0  0  2  0  0  0  0  0  0  0  0  0
    6.5009   -2.4336   -0.5707 C   0  0  0  0  0  0  0  0  0  0  0  0
    5.1988   -2.0137   -1.3187 C   0  0  0  0  0  0  0  0  0  0  0  0
    4.4314   -3.3286   -1.6530 C   0  0  2  0  0  0  0  0  0  0  0  0
    3.8704   -3.3024   -3.1013 C   0  0  0  0  0  0  0  0  0  0  0  0
    5.6082   -4.2457   -1.5237 C   0  0  0  0  0  0  0  0  0  0  0  0
    5.7167   -5.6885    1.7439 C   0  0  0  0  0  0  0  0  0  0  0  0
    7.0389   -5.6581    2.5176 C   0  0  0  0  0  0  0  0  0  0  0  0
    6.0339   -6.8575    0.8363 C   0  0  0  0  0  0  0  0  0  0  0  0
    2.8696   -1.9103    0.4074 H   0  0  0  0  0  0  0  0  0  0  0  0
    1.6964   -3.2006    0.4889 H   0  0  0  0  0  0  0  0  0  0  0  0
    2.1156   -2.5267   -1.0738 H   0  0  0  0  0  0  0  0  0  0  0  0
    2.7117   -4.5094   -1.1156 H   0  0  0  0  0  0  0  0  0  0  0  0
    4.0587   -5.6067   -0.0657 H   0  0  0  0  0  0  0  0  0  0  0  0
    2.7641   -4.5387    2.3161 H   0  0  0  0  0  0  0  0  0  0  0  0
    2.4412   -6.0028    1.3780 H   0  0  0  0  0  0  0  0  0  0  0  0
    4.1862   -7.1267    2.3327 H   0  0  0  0  0  0  0  0  0  0  0  0
    3.2986   -5.8312    4.2849 H   0  0  0  0  0  0  0  0  0  0  0  0
    4.7977   -6.6857    4.4750 H   0  0  0  0  0  0  0  0  0  0  0  0
    4.5534   -4.2998    5.4285 H   0  0  0  0  0  0  0  0  0  0  0  0
    6.0578   -4.7771    4.7634 H   0  0  0  0  0  0  0  0  0  0  0  0
    7.2476   -4.3825   -0.0911 H   0  0  0  0  0  0  0  0  0  0  0  0
    6.8486   -1.7901    0.2278 H   0  0  0  0  0  0  0  0  0  0  0  0
    7.3240   -2.4210   -1.2950 H   0  0  0  0  0  0  0  0  0  0  0  0
    4.5846   -1.3071   -0.7652 H   0  0  0  0  0  0  0  0  0  0  0  0
    5.4837   -1.5162   -2.2470 H   0  0  0  0  0  0  0  0  0  0  0  0
    4.6473   -3.0593   -3.8168 H   0  0  0  0  0  0  0  0  0  0  0  0
    3.0841   -2.5584   -3.1973 H   0  0  0  0  0  0  0  0  0  0  0  0
    3.4794   -4.2699   -3.4267 H   0  0  0  0  0  0  0  0  0  0  0  0
    6.2571   -4.0756   -2.3796 H   0  0  0  0  0  0  0  0  0  0  0  0
    5.3150   -5.2822   -1.5882 H   0  0  0  0  0  0  0  0  0  0  0  0
    7.9155   -5.8351    1.8865 H   0  0  0  0  0  0  0  0  0  0  0  0
    7.0713   -6.3900    3.3266 H   0  0  0  0  0  0  0  0  0  0  0  0
    7.1763   -4.6592    2.8642 H   0  0  0  0  0  0  0  0  0  0  0  0
    6.7802   -6.5572    0.0719 H   0  0  0  0  0  0  0  0  0  0  0  0
    5.1927   -7.1993    0.2393 H   0  0  0  0  0  0  0  0  0  0  0  0
    6.3810   -7.7450    1.3789 H   0  0  0  0  0  0  0  0  0  0  0  0
  1  2  1  0
  1 23  1  0
  1 24  1  0
  1 25  1  0
  2 17  1  0
  2  3  1  0
  2 26  1  6
  3 13  1  0
  3  4  1  0
  3 27  1  6
  4  5  1  0
  4 28  1  0
  4 29  1  0
  5 20  1  0
  5  6  1  0
  5 30  1  1
  6  7  1  0
  6 31  1  0
  6 32  1  0
  7  8  1  0
  7 33  1  0
  7 34  1  0
  8 12  2  0
  8  9  1  0
  9 10  2  0
 10 11  1  0
 11 12  1  0
 13 12  1  1
 13 14  1  0
 13 20  1  0
 14 19  1  0
 14 15  1  0
 14 35  1  1
 15 16  1  0
 15 36  1  0
 15 37  1  0
 16 17  1  0
 16 38  1  0
 16 39  1  0
 17 18  1  6
 17 19  1  0
 18 40  1  0
 18 41  1  0
 18 42  1  0
 19 43  1  0
 19 44  1  0
 20 21  1  0
 20 22  1  0
 21 45  1  0
 21 46  1  0
 21 47  1  0
 22 48  1  0
 22 49  1  0
 22 50  1  0
M  END
>  <i_m_ct_stereo_status>  (225) 
1

>  <s_m_source_file>  (225) 
/var/tmp/pbs.5076255.sched01/tmpn9kf4o8v/46f5dlbpu8.sdf

>  <i_m_source_file_index>  (225) 
42

>  <i_lp_mmshare_version>  (225) 
48012

>  <i_f3d_flags>  (225) 
0

>  <s_epik_input>  (225) 
W0NIMl0xW0NASF0yW0NIMl1bQ0gyXVtDQF0xKFtDSDNdKVtDQEhdKFtDSDNdKVtDQEBIXShbQ0BAXTIzNClbQ0gyXVtDQEBIXShDNChbQ0gzXSlbQ0gzXSlbQ0gyXVtDSDJdYzVjM3NubjU=

>  <s_epik_cmdline>  (225) 
J2VwaWtfcHl0aG9uJywgJy1waHQnLCAnMi4wJywgJy1waCcsICc3LjAnLCAnLXRuJywgJzgnLCAnLW1hJywgJzIwMCcsICctaW1hZScsICc8aW5maWxlLm1hZT4nLCAnLW9tYWUnLCAnPG91dGZpbGUubWFlPic=

>  <r_lp_tautomer_probability>  (225) 
1

>  <r_epik_Ionization_Penalty>  (225) 
5.48686e-07

>  <r_epik_Ionization_Penalty_Charging>  (225) 
0

>  <r_epik_Ionization_Penalty_Neutral>  (225) 
5.48686e-07

>  <r_epik_State_Penalty>  (225) 
-0

>  <r_epik_Charging_Adjusted_Penalty>  (225) 
0

>  <i_epik_Tot_Q>  (225) 
0

>  <i_epik_Tot_abs_Q>  (225) 
0

>  <s_lp_Force_Field>  (225) 
OPLS3e

>  <r_lp_Energy>  (225) 
98.5489

>  <b_lp_Chiralities_Consistent>  (225) 
1

>  <s_lp_Variant>  (225) 
61:0-1

>  <s_i_glide_gridfile>  (225) 
pfpi4k_grid

>  <i_i_glide_lignum>  (225) 
42

>  <i_i_glide_rotatable_bonds>  (225) 
0

>  <r_i_docking_score>  (225) 
-1.80352

>  <r_i_glide_ligand_efficiency>  (225) 
-0.0819781

>  <r_i_glide_ligand_efficiency_sa>  (225) 
-0.229706

>  <r_i_glide_ligand_efficiency_ln>  (225) 
-0.440845

>  <r_i_glide_gscore>  (225) 
-1.80352

>  <r_i_glide_lipo>  (225) 
-0.47817

>  <r_i_glide_hbond>  (225) 
0

>  <r_i_glide_metal>  (225) 
-0

>  <r_i_glide_rewards>  (225) 
-1.2511

>  <r_i_glide_evdw>  (225) 
-0.412245

>  <r_i_glide_ecoul>  (225) 
-0.357556

>  <r_i_glide_erotb>  (225) 
0

>  <r_i_glide_esite>  (225) 
0

>  <r_i_glide_emodel>  (225) 
-0.420524

>  <r_i_glide_energy>  (225) 
-0.769801

>  <r_i_glide_einternal>  (225) 
0

>  <r_i_glide_intrahb_reward>  (225) 
-0

>  <i_i_glide_confnum>  (225) 
2

>  <i_i_glide_posenum>  (225) 
28

>  <r_i_glide_eff_state_penalty>  (225) 
0

>  <ligand_id>  (225) 
61

>  <original_smiles>  (225) 
CC1C2CC3CCc4nnsc4C2(C2CCC1(C)C2)C3(C)C

>  <smiles>  (225) 
[H]C([H])([H])C1([H])C2([H])C([H])([H])C3([H])C([H])([H])C([H])([H])c4nnsc4C2(C2([H])C([H])([H])C([H])([H])C1(C([H])([H])[H])C2([H])[H])C3(C([H])([H])[H])C([H])([H])[H]

$$$$
62:0:0
     RDKit          3D

 38 42  0  0  1  0  0  0  0  0999 V2000
    7.2624   -3.9142   -0.0445 C   0  0  0  0  0  0  0  0  0  0  0  0
    6.0982   -3.6312    0.8936 C   0  0  0  0  0  0  0  0  0  0  0  0
    5.4257   -4.5829    1.6597 C   0  0  0  0  0  0  0  0  0  0  0  0
    5.7737   -6.0213    1.7108 C   0  0  0  0  0  0  0  0  0  0  0  0
    7.0976   -6.4896    1.6979 C   0  0  0  0  0  0  0  0  0  0  0  0
    7.2845   -7.8766    1.6977 C   0  0  0  0  0  0  0  0  0  0  0  0
    6.2422   -8.7304    1.7327 N   0  0  0  0  0  0  0  0  0  0  0  0
    5.0285   -8.1997    1.7935 C   0  0  0  0  0  0  0  0  0  0  0  0
    3.9986   -9.1175    1.8511 N   0  0  0  0  0  0  0  0  0  0  0  0
    2.6467   -9.0913    2.1358 C   0  0  0  0  0  0  0  0  0  0  0  0
    2.0462  -10.2746    2.6550 C   0  0  0  0  0  0  0  0  0  0  0  0
    0.6955  -10.3288    2.9166 C   0  0  0  0  0  0  0  0  0  0  0  0
   -0.0570   -9.2277    2.6765 N   0  0  0  0  0  0  0  0  0  0  0  0
   -1.3916   -9.1099    2.8670 N   0  0  0  0  0  0  0  0  0  0  0  0
   -1.6091   -7.8569    2.5060 C   0  0  0  0  0  0  0  0  0  0  0  0
   -0.5254   -7.1311    2.0823 N   0  0  0  0  0  0  0  0  0  0  0  0
    0.4674   -8.0155    2.1847 C   0  0  0  0  0  0  0  0  0  0  0  0
    1.8605   -7.9787    1.9120 C   0  0  0  0  0  0  0  0  0  0  0  0
    4.7456   -6.8945    1.7881 N   0  0  0  0  0  0  0  0  0  0  0  0
    4.3479   -4.1013    2.4547 C   0  0  0  0  0  0  0  0  0  0  0  0
    3.9556   -2.8310    2.5420 N   0  0  0  0  0  0  0  0  0  0  0  0
    4.6287   -1.9426    1.8052 C   0  0  0  0  0  0  0  0  0  0  0  0
    4.4659   -0.6258    1.6993 N   0  0  0  0  0  0  0  0  0  0  0  0
    5.4333   -0.2806    0.7940 C   0  0  0  0  0  0  0  0  0  0  0  0
    6.2107   -1.2571    0.3361 N   0  0  0  0  0  0  0  0  0  0  0  0
    5.6959   -2.3319    0.9788 N   0  0  0  0  0  0  0  0  0  0  0  0
    4.3633  -10.0587    1.8052 H   0  0  0  0  0  0  0  0  0  0  0  0
    7.2831   -4.9645   -0.3020 H   0  0  0  0  0  0  0  0  0  0  0  0
    8.2132   -3.6525    0.4199 H   0  0  0  0  0  0  0  0  0  0  0  0
    7.1656   -3.3711   -0.9869 H   0  0  0  0  0  0  0  0  0  0  0  0
    7.9554   -5.8388    1.6739 H   0  0  0  0  0  0  0  0  0  0  0  0
    8.2919   -8.2615    1.6437 H   0  0  0  0  0  0  0  0  0  0  0  0
    2.6312  -11.1774    2.8248 H   0  0  0  0  0  0  0  0  0  0  0  0
    0.1940  -11.2075    3.3074 H   0  0  0  0  0  0  0  0  0  0  0  0
   -2.6036   -7.4367    2.5467 H   0  0  0  0  0  0  0  0  0  0  0  0
    2.2894   -7.0743    1.5066 H   0  0  0  0  0  0  0  0  0  0  0  0
    3.7898   -4.7936    3.0796 H   0  0  0  0  0  0  0  0  0  0  0  0
    5.5809    0.7364    0.4857 H   0  0  0  0  0  0  0  0  0  0  0  0
  1  2  1  0
  1 28  1  0
  1 29  1  0
  1 30  1  0
  2 26  1  0
  2  3  2  0
  3 20  1  0
  3  4  1  0
  4 19  1  0
  4  5  2  0
  5 31  1  0
  5  6  1  0
  6 32  1  0
  6  7  2  0
  7  8  1  0
  8  9  1  0
  8 19  2  0
  9 10  1  0
  9 27  1  0
 10 18  2  0
 10 11  1  0
 11 12  2  0
 11 33  1  0
 12 13  1  0
 12 34  1  0
 13 17  1  0
 13 14  1  0
 14 15  2  0
 15 16  1  0
 15 35  1  0
 16 17  2  0
 17 18  1  0
 18 36  1  0
 20 21  2  0
 20 37  1  0
 21 22  1  0
 22 26  1  0
 22 23  2  0
 23 24  1  0
 24 25  2  0
 24 38  1  0
 25 26  1  0
M  END
>  <i_m_ct_stereo_status>  (226) 
1

>  <s_m_source_file>  (226) 
/var/tmp/pbs.5076255.sched01/tmpn9kf4o8v/46f5dlbpu8.sdf

>  <i_m_source_file_index>  (226) 
43

>  <i_lp_mmshare_version>  (226) 
48012

>  <i_f3d_flags>  (226) 
0

>  <s_epik_input>  (226) 
bjFbY0hdbm4oYzEyKWMoW0NIM10pYyhbY0hdbjIpLWMzW2NIXVtjSF1bbkhdL2MobjMpPU4vYyhbY0hdW2NIXTQpW2NIXWMobjQ1KW5bY0hdbjU=

>  <s_epik_cmdline>  (226) 
J2VwaWtfcHl0aG9uJywgJy1waHQnLCAnMi4wJywgJy1waCcsICc3LjAnLCAnLXRuJywgJzgnLCAnLW1hJywgJzIwMCcsICctaW1hZScsICc8aW5maWxlLm1hZT4nLCAnLW9tYWUnLCAnPG91dGZpbGUubWFlPic=

>  <r_lp_tautomer_probability>  (226) 
1

>  <r_epik_Ionization_Penalty>  (226) 
0.025183

>  <r_epik_Ionization_Penalty_Charging>  (226) 
0

>  <r_epik_Ionization_Penalty_Neutral>  (226) 
0.025183

>  <r_epik_State_Penalty>  (226) 
0.0202918

>  <r_epik_Charging_Adjusted_Penalty>  (226) 
0.0202918

>  <i_epik_Tot_Q>  (226) 
0

>  <i_epik_Tot_abs_Q>  (226) 
0

>  <s_lp_Force_Field>  (226) 
OPLS3e

>  <r_lp_Energy>  (226) 
41.183

>  <b_lp_Chiralities_Consistent>  (226) 
1

>  <s_lp_Variant>  (226) 
62:0-1

>  <s_i_glide_gridfile>  (226) 
pfpi4k_grid

>  <i_i_glide_lignum>  (226) 
43

>  <i_i_glide_rotatable_bonds>  (226) 
3

>  <r_i_docking_score>  (226) 
-4.12634

>  <r_i_glide_ligand_efficiency>  (226) 
-0.158705

>  <r_i_glide_ligand_efficiency_sa>  (226) 
-0.470164

>  <r_i_glide_ligand_efficiency_ln>  (226) 
-0.969057

>  <r_i_glide_gscore>  (226) 
-4.12634

>  <r_i_glide_lipo>  (226) 
-0.643606

>  <r_i_glide_hbond>  (226) 
-0.0999754

>  <r_i_glide_metal>  (226) 
-0

>  <r_i_glide_rewards>  (226) 
-1.44175

>  <r_i_glide_evdw>  (226) 
-31.5536

>  <r_i_glide_ecoul>  (226) 
-4.61692

>  <r_i_glide_erotb>  (226) 
0.480396

>  <r_i_glide_esite>  (226) 
-0.151191

>  <r_i_glide_emodel>  (226) 
-47.2093

>  <r_i_glide_energy>  (226) 
-36.1705

>  <r_i_glide_einternal>  (226) 
0.742451

>  <r_i_glide_intrahb_reward>  (226) 
-0

>  <i_i_glide_confnum>  (226) 
3

>  <i_i_glide_posenum>  (226) 
23

>  <r_i_glide_eff_state_penalty>  (226) 
0

>  <ligand_id>  (226) 
62

>  <original_smiles>  (226) 
Cc1c(-c2cc[nH]c(=Nc3ccn4ncnc4c3)n2)cnc2ncnn12

>  <smiles>  (226) 
[H]c1nc2nc([H])c(-c3nc(N([H])c4c([H])c([H])n5nc([H])nc5c4[H])nc([H])c3[H])c(C([H])([H])[H])n2n1

$$$$
62:0:1
     RDKit          3D

 38 42  0  0  1  0  0  0  0  0999 V2000
    3.3922   -5.1084    0.5987 C   0  0  0  0  0  0  0  0  0  0  0  0
    4.7772   -4.5588    0.3384 C   0  0  0  0  0  0  0  0  0  0  0  0
    5.9921   -5.1655    0.6944 C   0  0  0  0  0  0  0  0  0  0  0  0
    6.1657   -6.5293    1.3022 C   0  0  0  0  0  0  0  0  0  0  0  0
    7.4018   -6.9980    1.8197 C   0  0  0  0  0  0  0  0  0  0  0  0
    7.4400   -8.2962    2.3556 C   0  0  0  0  0  0  0  0  0  0  0  0
    6.3362   -9.0864    2.3718 N   0  0  0  0  0  0  0  0  0  0  0  0
    5.1980   -8.5780    1.8798 C   0  0  0  0  0  0  0  0  0  0  0  0
    4.0888   -9.4154    1.9415 N   0  0  0  0  0  0  0  0  0  0  0  0
    2.7329   -9.2545    2.2153 C   0  0  0  0  0  0  0  0  0  0  0  0
    2.0296  -10.3375    2.8081 C   0  0  0  0  0  0  0  0  0  0  0  0
    0.6560  -10.2745    3.0640 C   0  0  0  0  0  0  0  0  0  0  0  0
    0.0016   -9.1108    2.7613 N   0  0  0  0  0  0  0  0  0  0  0  0
   -1.3285   -8.8600    2.9215 N   0  0  0  0  0  0  0  0  0  0  0  0
   -1.4272   -7.6116    2.5001 C   0  0  0  0  0  0  0  0  0  0  0  0
   -0.2718   -7.0231    2.0494 N   0  0  0  0  0  0  0  0  0  0  0  0
    0.6356   -7.9913    2.2043 C   0  0  0  0  0  0  0  0  0  0  0  0
    2.0267   -8.1041    1.9081 C   0  0  0  0  0  0  0  0  0  0  0  0
    5.0821   -7.3558    1.3446 N   0  0  0  0  0  0  0  0  0  0  0  0
    7.1480   -4.3421    0.4545 C   0  0  0  0  0  0  0  0  0  0  0  0
    7.1563   -3.1247   -0.0994 N   0  0  0  0  0  0  0  0  0  0  0  0
    5.9804   -2.6156   -0.4620 C   0  0  0  0  0  0  0  0  0  0  0  0
    5.6889   -1.4486   -1.0468 N   0  0  0  0  0  0  0  0  0  0  0  0
    4.3170   -1.4935   -1.1327 C   0  0  0  0  0  0  0  0  0  0  0  0
    3.7415   -2.5956   -0.6669 N   0  0  0  0  0  0  0  0  0  0  0  0
    4.7894   -3.3183   -0.2464 N   0  0  0  0  0  0  0  0  0  0  0  0
    4.3778  -10.3913    1.9830 H   0  0  0  0  0  0  0  0  0  0  0  0
    3.4742   -5.6438    1.5476 H   0  0  0  0  0  0  0  0  0  0  0  0
    3.0545   -5.7391   -0.2327 H   0  0  0  0  0  0  0  0  0  0  0  0
    2.6297   -4.3525    0.8236 H   0  0  0  0  0  0  0  0  0  0  0  0
    8.3133   -6.4358    1.8326 H   0  0  0  0  0  0  0  0  0  0  0  0
    8.3800   -8.6819    2.7433 H   0  0  0  0  0  0  0  0  0  0  0  0
    2.5315  -11.2838    3.0260 H   0  0  0  0  0  0  0  0  0  0  0  0
    0.0617  -11.0795    3.4786 H   0  0  0  0  0  0  0  0  0  0  0  0
   -2.3679   -7.0755    2.4913 H   0  0  0  0  0  0  0  0  0  0  0  0
    2.5082   -7.2757    1.3710 H   0  0  0  0  0  0  0  0  0  0  0  0
    8.1470   -4.7088    0.6975 H   0  0  0  0  0  0  0  0  0  0  0  0
    3.7222   -0.7060   -1.5539 H   0  0  0  0  0  0  0  0  0  0  0  0
  1  2  1  0
  1 28  1  0
  1 29  1  0
  1 30  1  0
  2 26  1  0
  2  3  2  0
  3 20  1  0
  3  4  1  0
  4 19  1  0
  4  5  2  0
  5 31  1  0
  5  6  1  0
  6 32  1  0
  6  7  2  0
  7  8  1  0
  8  9  1  0
  8 19  2  0
  9 10  1  0
  9 27  1  0
 10 18  2  0
 10 11  1  0
 11 12  2  0
 11 33  1  0
 12 13  1  0
 12 34  1  0
 13 17  1  0
 13 14  1  0
 14 15  2  0
 15 16  1  0
 15 35  1  0
 16 17  2  0
 17 18  1  0
 18 36  1  0
 20 21  2  0
 20 37  1  0
 21 22  1  0
 22 26  1  0
 22 23  2  0
 23 24  1  0
 24 25  2  0
 24 38  1  0
 25 26  1  0
M  END
>  <i_m_ct_stereo_status>  (227) 
1

>  <s_m_source_file>  (227) 
/var/tmp/pbs.5076255.sched01/tmpn9kf4o8v/46f5dlbpu8.sdf

>  <i_m_source_file_index>  (227) 
43

>  <i_lp_mmshare_version>  (227) 
48012

>  <i_f3d_flags>  (227) 
0

>  <s_epik_input>  (227) 
bjFbY0hdbm4oYzEyKWMoW0NIM10pYyhbY0hdbjIpLWMzW2NIXVtjSF1bbkhdL2MobjMpPU4vYyhbY0hdW2NIXTQpW2NIXWMobjQ1KW5bY0hdbjU=

>  <s_epik_cmdline>  (227) 
J2VwaWtfcHl0aG9uJywgJy1waHQnLCAnMi4wJywgJy1waCcsICc3LjAnLCAnLXRuJywgJzgnLCAnLW1hJywgJzIwMCcsICctaW1hZScsICc8aW5maWxlLm1hZT4nLCAnLW9tYWUnLCAnPG91dGZpbGUubWFlPic=

>  <r_lp_tautomer_probability>  (227) 
1

>  <r_epik_Ionization_Penalty>  (227) 
0.025183

>  <r_epik_Ionization_Penalty_Charging>  (227) 
0

>  <r_epik_Ionization_Penalty_Neutral>  (227) 
0.025183

>  <r_epik_State_Penalty>  (227) 
0.0202918

>  <r_epik_Charging_Adjusted_Penalty>  (227) 
0.0202918

>  <i_epik_Tot_Q>  (227) 
0

>  <i_epik_Tot_abs_Q>  (227) 
0

>  <s_lp_Force_Field>  (227) 
OPLS3e

>  <r_lp_Energy>  (227) 
41.183

>  <b_lp_Chiralities_Consistent>  (227) 
1

>  <s_lp_Variant>  (227) 
62:0-1

>  <s_i_glide_gridfile>  (227) 
pfpi4k_grid

>  <i_i_glide_lignum>  (227) 
43

>  <i_i_glide_rotatable_bonds>  (227) 
3

>  <r_i_docking_score>  (227) 
-4.04988

>  <r_i_glide_ligand_efficiency>  (227) 
-0.155765

>  <r_i_glide_ligand_efficiency_sa>  (227) 
-0.461453

>  <r_i_glide_ligand_efficiency_ln>  (227) 
-0.951102

>  <r_i_glide_gscore>  (227) 
-4.04988

>  <r_i_glide_lipo>  (227) 
-0.55596

>  <r_i_glide_hbond>  (227) 
-0.117153

>  <r_i_glide_metal>  (227) 
-0

>  <r_i_glide_rewards>  (227) 
-1.12129

>  <r_i_glide_evdw>  (227) 
-35.7098

>  <r_i_glide_ecoul>  (227) 
-4.70617

>  <r_i_glide_erotb>  (227) 
0.480396

>  <r_i_glide_esite>  (227) 
-0.244462

>  <r_i_glide_emodel>  (227) 
-47.6572

>  <r_i_glide_energy>  (227) 
-40.4159

>  <r_i_glide_einternal>  (227) 
5.2356

>  <r_i_glide_intrahb_reward>  (227) 
-0

>  <i_i_glide_confnum>  (227) 
1

>  <i_i_glide_posenum>  (227) 
31

>  <r_i_glide_eff_state_penalty>  (227) 
0

>  <ligand_id>  (227) 
62

>  <original_smiles>  (227) 
Cc1c(-c2cc[nH]c(=Nc3ccn4ncnc4c3)n2)cnc2ncnn12

>  <smiles>  (227) 
[H]c1nc2nc([H])c(-c3nc(N([H])c4c([H])c([H])n5nc([H])nc5c4[H])nc([H])c3[H])c(C([H])([H])[H])n2n1

$$$$
62:0:2
     RDKit          3D

 38 42  0  0  1  0  0  0  0  0999 V2000
    3.4949   -4.5308    2.4724 C   0  0  0  0  0  0  0  0  0  0  0  0
    4.5120   -3.9255    1.5073 C   0  0  0  0  0  0  0  0  0  0  0  0
    5.6137   -4.5953    0.9728 C   0  0  0  0  0  0  0  0  0  0  0  0
    5.9521   -6.0175    1.2245 C   0  0  0  0  0  0  0  0  0  0  0  0
    7.2802   -6.4760    1.3275 C   0  0  0  0  0  0  0  0  0  0  0  0
    7.4665   -7.8518    1.5518 C   0  0  0  0  0  0  0  0  0  0  0  0
    6.4212   -8.7020    1.6523 N   0  0  0  0  0  0  0  0  0  0  0  0
    5.2018   -8.1780    1.5408 C   0  0  0  0  0  0  0  0  0  0  0  0
    4.1595   -9.0798    1.6720 N   0  0  0  0  0  0  0  0  0  0  0  0
    2.8159   -9.0185    2.0013 C   0  0  0  0  0  0  0  0  0  0  0  0
    2.2012  -10.1838    2.5420 C   0  0  0  0  0  0  0  0  0  0  0  0
    0.8600  -10.2019    2.8568 C   0  0  0  0  0  0  0  0  0  0  0  0
    0.1256   -9.0800    2.6426 N   0  0  0  0  0  0  0  0  0  0  0  0
   -1.2003   -8.9305    2.8752 N   0  0  0  0  0  0  0  0  0  0  0  0
   -1.3999   -7.6714    2.5202 C   0  0  0  0  0  0  0  0  0  0  0  0
   -0.3150   -6.9768    2.0628 N   0  0  0  0  0  0  0  0  0  0  0  0
    0.6627   -7.8864    2.1315 C   0  0  0  0  0  0  0  0  0  0  0  0
    2.0469   -7.8862    1.8071 C   0  0  0  0  0  0  0  0  0  0  0  0
    4.9260   -6.8921    1.3174 N   0  0  0  0  0  0  0  0  0  0  0  0
    6.4711   -3.8151    0.1408 C   0  0  0  0  0  0  0  0  0  0  0  0
    6.2983   -2.5357   -0.1767 N   0  0  0  0  0  0  0  0  0  0  0  0
    5.2079   -1.9317    0.3207 C   0  0  0  0  0  0  0  0  0  0  0  0
    4.7763   -0.6857    0.1591 N   0  0  0  0  0  0  0  0  0  0  0  0
    3.6220   -0.6648    0.8873 C   0  0  0  0  0  0  0  0  0  0  0  0
    3.3123   -1.7848    1.5314 N   0  0  0  0  0  0  0  0  0  0  0  0
    4.3172   -2.6172    1.1599 N   0  0  0  0  0  0  0  0  0  0  0  0
    4.5152  -10.0266    1.6939 H   0  0  0  0  0  0  0  0  0  0  0  0
    3.8760   -5.3986    3.0092 H   0  0  0  0  0  0  0  0  0  0  0  0
    2.6005   -4.8170    1.9170 H   0  0  0  0  0  0  0  0  0  0  0  0
    3.2046   -3.8183    3.2466 H   0  0  0  0  0  0  0  0  0  0  0  0
    8.1283   -5.8217    1.2385 H   0  0  0  0  0  0  0  0  0  0  0  0
    8.4612   -8.2567    1.6226 H   0  0  0  0  0  0  0  0  0  0  0  0
    2.7709  -11.1013    2.6867 H   0  0  0  0  0  0  0  0  0  0  0  0
    0.3342  -11.0677    3.2504 H   0  0  0  0  0  0  0  0  0  0  0  0
   -2.3811   -7.2290    2.5926 H   0  0  0  0  0  0  0  0  0  0  0  0
    2.4839   -6.9943    1.3801 H   0  0  0  0  0  0  0  0  0  0  0  0
    7.3607   -4.2688   -0.2882 H   0  0  0  0  0  0  0  0  0  0  0  0
    3.0004    0.2146    0.9618 H   0  0  0  0  0  0  0  0  0  0  0  0
  1  2  1  0
  1 28  1  0
  1 29  1  0
  1 30  1  0
  2 26  1  0
  2  3  2  0
  3 20  1  0
  3  4  1  0
  4 19  1  0
  4  5  2  0
  5 31  1  0
  5  6  1  0
  6 32  1  0
  6  7  2  0
  7  8  1  0
  8  9  1  0
  8 19  2  0
  9 10  1  0
  9 27  1  0
 10 18  2  0
 10 11  1  0
 11 12  2  0
 11 33  1  0
 12 13  1  0
 12 34  1  0
 13 17  1  0
 13 14  1  0
 14 15  2  0
 15 16  1  0
 15 35  1  0
 16 17  2  0
 17 18  1  0
 18 36  1  0
 20 21  2  0
 20 37  1  0
 21 22  1  0
 22 26  1  0
 22 23  2  0
 23 24  1  0
 24 25  2  0
 24 38  1  0
 25 26  1  0
M  END
>  <i_m_ct_stereo_status>  (228) 
1

>  <s_m_source_file>  (228) 
/var/tmp/pbs.5076255.sched01/tmpn9kf4o8v/46f5dlbpu8.sdf

>  <i_m_source_file_index>  (228) 
43

>  <i_lp_mmshare_version>  (228) 
48012

>  <i_f3d_flags>  (228) 
0

>  <s_epik_input>  (228) 
bjFbY0hdbm4oYzEyKWMoW0NIM10pYyhbY0hdbjIpLWMzW2NIXVtjSF1bbkhdL2MobjMpPU4vYyhbY0hdW2NIXTQpW2NIXWMobjQ1KW5bY0hdbjU=

>  <s_epik_cmdline>  (228) 
J2VwaWtfcHl0aG9uJywgJy1waHQnLCAnMi4wJywgJy1waCcsICc3LjAnLCAnLXRuJywgJzgnLCAnLW1hJywgJzIwMCcsICctaW1hZScsICc8aW5maWxlLm1hZT4nLCAnLW9tYWUnLCAnPG91dGZpbGUubWFlPic=

>  <r_lp_tautomer_probability>  (228) 
1

>  <r_epik_Ionization_Penalty>  (228) 
0.025183

>  <r_epik_Ionization_Penalty_Charging>  (228) 
0

>  <r_epik_Ionization_Penalty_Neutral>  (228) 
0.025183

>  <r_epik_State_Penalty>  (228) 
0.0202918

>  <r_epik_Charging_Adjusted_Penalty>  (228) 
0.0202918

>  <i_epik_Tot_Q>  (228) 
0

>  <i_epik_Tot_abs_Q>  (228) 
0

>  <s_lp_Force_Field>  (228) 
OPLS3e

>  <r_lp_Energy>  (228) 
41.183

>  <b_lp_Chiralities_Consistent>  (228) 
1

>  <s_lp_Variant>  (228) 
62:0-1

>  <s_i_glide_gridfile>  (228) 
pfpi4k_grid

>  <i_i_glide_lignum>  (228) 
43

>  <i_i_glide_rotatable_bonds>  (228) 
3

>  <r_i_docking_score>  (228) 
-3.82029

>  <r_i_glide_ligand_efficiency>  (228) 
-0.146934

>  <r_i_glide_ligand_efficiency_sa>  (228) 
-0.435292

>  <r_i_glide_ligand_efficiency_ln>  (228) 
-0.897183

>  <r_i_glide_gscore>  (228) 
-3.82029

>  <r_i_glide_lipo>  (228) 
-0.499294

>  <r_i_glide_hbond>  (228) 
-0.111329

>  <r_i_glide_metal>  (228) 
-0

>  <r_i_glide_rewards>  (228) 
-1.21185

>  <r_i_glide_evdw>  (228) 
-34.33

>  <r_i_glide_ecoul>  (228) 
-3.65415

>  <r_i_glide_erotb>  (228) 
0.480396

>  <r_i_glide_esite>  (228) 
-0.213587

>  <r_i_glide_emodel>  (228) 
-47.9874

>  <r_i_glide_energy>  (228) 
-37.9842

>  <r_i_glide_einternal>  (228) 
1.11544

>  <r_i_glide_intrahb_reward>  (228) 
-0

>  <i_i_glide_confnum>  (228) 
1

>  <i_i_glide_posenum>  (228) 
36

>  <r_i_glide_eff_state_penalty>  (228) 
0

>  <ligand_id>  (228) 
62

>  <original_smiles>  (228) 
Cc1c(-c2cc[nH]c(=Nc3ccn4ncnc4c3)n2)cnc2ncnn12

>  <smiles>  (228) 
[H]c1nc2nc([H])c(-c3nc(N([H])c4c([H])c([H])n5nc([H])nc5c4[H])nc([H])c3[H])c(C([H])([H])[H])n2n1

$$$$
62:1:0
     RDKit          3D

 39 43  0  0  1  0  0  0  0  0999 V2000
    3.8749   -0.6379   -0.1088 C   0  0  0  0  0  0  0  0  0  0  0  0
    4.0985   -1.6995   -1.1849 C   0  0  0  0  0  0  0  0  0  0  0  0
    4.3427   -3.0518   -0.9293 C   0  0  0  0  0  0  0  0  0  0  0  0
    4.3429   -3.6850    0.4160 C   0  0  0  0  0  0  0  0  0  0  0  0
    5.0927   -4.8404    0.7264 C   0  0  0  0  0  0  0  0  0  0  0  0
    5.0203   -5.3211    2.0440 C   0  0  0  0  0  0  0  0  0  0  0  0
    4.2829   -4.6876    2.9851 N   0  0  0  0  0  0  0  0  0  0  0  0
    3.5884   -3.6187    2.5945 C   0  0  0  0  0  0  0  0  0  0  0  0
    2.8622   -2.9908    3.5918 N   0  0  0  0  0  0  0  0  0  0  0  0
    2.0592   -1.8587    3.7054 C   0  0  0  0  0  0  0  0  0  0  0  0
    1.7221   -1.4240    5.0236 C   0  0  0  0  0  0  0  0  0  0  0  0
    0.8997   -0.3354    5.2250 C   0  0  0  0  0  0  0  0  0  0  0  0
    0.4088    0.3301    4.1325 N   0  0  0  0  0  0  0  0  0  0  0  0
   -0.4067    1.4009    4.2010 N   0  0  0  0  0  0  0  0  0  0  0  0
   -0.5741    1.6712    2.9054 C   0  0  0  0  0  0  0  0  0  0  0  0
    0.1078    0.7607    2.0733 N   0  0  0  0  0  0  0  0  0  0  0  0
    0.7266   -0.0640    2.9101 C   0  0  0  0  0  0  0  0  0  0  0  0
    1.5426   -1.1556    2.6279 C   0  0  0  0  0  0  0  0  0  0  0  0
    3.5612   -3.1184    1.3636 N   0  0  0  0  0  0  0  0  0  0  0  0
    4.6141   -3.8565   -2.0782 C   0  0  0  0  0  0  0  0  0  0  0  0
    4.6053   -3.4398   -3.3442 N   0  0  0  0  0  0  0  0  0  0  0  0
    4.2949   -2.1533   -3.5578 C   0  0  0  0  0  0  0  0  0  0  0  0
    4.1873   -1.4750   -4.6989 N   0  0  0  0  0  0  0  0  0  0  0  0
    3.8427   -0.2321   -4.2954 C   0  0  0  0  0  0  0  0  0  0  0  0
    3.8318   -0.0451   -2.9894 N   0  0  0  0  0  0  0  0  0  0  0  0
    4.0624   -1.2853   -2.4917 N   0  0  0  0  0  0  0  0  0  0  0  0
    3.0189   -3.4571    4.4719 H   0  0  0  0  0  0  0  0  0  0  0  0
    4.2895   -0.8758    0.8690 H   0  0  0  0  0  0  0  0  0  0  0  0
    2.8099   -0.4279   -0.0025 H   0  0  0  0  0  0  0  0  0  0  0  0
    4.3812    0.2837   -0.3671 H   0  0  0  0  0  0  0  0  0  0  0  0
    5.6981   -5.3477   -0.0029 H   0  0  0  0  0  0  0  0  0  0  0  0
    5.5478   -6.2262    2.3248 H   0  0  0  0  0  0  0  0  0  0  0  0
    2.1049   -1.9488    5.8970 H   0  0  0  0  0  0  0  0  0  0  0  0
    0.6035    0.0566    6.1899 H   0  0  0  0  0  0  0  0  0  0  0  0
   -1.1757    2.4950    2.5379 H   0  0  0  0  0  0  0  0  0  0  0  0
    1.7147   -1.4165    1.5929 H   0  0  0  0  0  0  0  0  0  0  0  0
    4.8239   -4.9135   -1.9550 H   0  0  0  0  0  0  0  0  0  0  0  0
    3.7304    0.5926   -4.9833 H   0  0  0  0  0  0  0  0  0  0  0  0
    0.1168    0.7384    1.0527 H   0  0  0  0  0  0  0  0  0  0  0  0
  1  2  1  0
  1 28  1  0
  1 29  1  0
  1 30  1  0
  2 26  1  0
  2  3  2  0
  3 20  1  0
  3  4  1  0
  4 19  1  0
  4  5  2  0
  5 31  1  0
  5  6  1  0
  6 32  1  0
  6  7  2  0
  7  8  1  0
  8  9  1  0
  8 19  2  0
  9 10  1  0
  9 27  1  0
 10 18  2  0
 10 11  1  0
 11 12  2  0
 11 33  1  0
 12 13  1  0
 12 34  1  0
 13 17  1  0
 13 14  1  0
 14 15  2  0
 15 16  1  0
 15 35  1  0
 16 17  2  0
 16 39  1  0
 17 18  1  0
 18 36  1  0
 20 21  2  0
 20 37  1  0
 21 22  1  0
 22 26  1  0
 22 23  2  0
 23 24  1  0
 24 25  2  0
 24 38  1  0
 25 26  1  0
M  CHG  1  16   1
M  END
>  <i_m_ct_stereo_status>  (229) 
1

>  <s_m_source_file>  (229) 
/var/tmp/pbs.5076255.sched01/tmpn9kf4o8v/46f5dlbpu8.sdf

>  <i_m_source_file_index>  (229) 
44

>  <i_lp_mmshare_version>  (229) 
48012

>  <i_f3d_flags>  (229) 
0

>  <s_epik_input>  (229) 
bjFbY0hdbm4oYzEyKWMoW0NIM10pYyhbY0hdbjIpLWMzW2NIXVtjSF1bbkhdL2MobjMpPU4vYyhbY0hdW2NIXTQpW2NIXWMobjQ1KW5bY0hdbjU=

>  <s_epik_cmdline>  (229) 
J2VwaWtfcHl0aG9uJywgJy1waHQnLCAnMi4wJywgJy1waCcsICc3LjAnLCAnLXRuJywgJzgnLCAnLW1hJywgJzIwMCcsICctaW1hZScsICc8aW5maWxlLm1hZT4nLCAnLW9tYWUnLCAnPG91dGZpbGUubWFlPic=

>  <r_lp_tautomer_probability>  (229) 
1

>  <r_epik_Ionization_Penalty>  (229) 
1.8891

>  <r_epik_Ionization_Penalty_Charging>  (229) 
1.88887

>  <r_epik_Ionization_Penalty_Neutral>  (229) 
0.00023526

>  <r_epik_State_Penalty>  (229) 
2.00923

>  <r_epik_Charging_Adjusted_Penalty>  (229) 
3.89809

>  <i_epik_Tot_Q>  (229) 
1

>  <i_epik_Tot_abs_Q>  (229) 
1

>  <s_lp_Force_Field>  (229) 
OPLS3e

>  <r_lp_Energy>  (229) 
40.6439

>  <b_lp_Chiralities_Consistent>  (229) 
1

>  <s_lp_Variant>  (229) 
62:0-2

>  <s_i_glide_gridfile>  (229) 
pfpi4k_grid

>  <i_i_glide_lignum>  (229) 
44

>  <i_i_glide_rotatable_bonds>  (229) 
3

>  <r_i_docking_score>  (229) 
-4.41837

>  <r_i_glide_ligand_efficiency>  (229) 
-0.169937

>  <r_i_glide_ligand_efficiency_sa>  (229) 
-0.503439

>  <r_i_glide_ligand_efficiency_ln>  (229) 
-1.03764

>  <r_i_glide_gscore>  (229) 
-4.41837

>  <r_i_glide_lipo>  (229) 
-0.10514

>  <r_i_glide_hbond>  (229) 
-0.402875

>  <r_i_glide_metal>  (229) 
-0

>  <r_i_glide_rewards>  (229) 
-1.65279

>  <r_i_glide_evdw>  (229) 
-22.1547

>  <r_i_glide_ecoul>  (229) 
-9.5108

>  <r_i_glide_erotb>  (229) 
0.477909

>  <r_i_glide_esite>  (229) 
-0.201122

>  <r_i_glide_emodel>  (229) 
-44.3357

>  <r_i_glide_energy>  (229) 
-31.6655

>  <r_i_glide_einternal>  (229) 
0.581518

>  <r_i_glide_intrahb_reward>  (229) 
-0

>  <i_i_glide_confnum>  (229) 
2

>  <i_i_glide_posenum>  (229) 
5

>  <r_i_glide_eff_state_penalty>  (229) 
0

>  <ligand_id>  (229) 
62

>  <original_smiles>  (229) 
Cc1c(-c2cc[nH]c(=Nc3ccn4ncnc4c3)n2)cnc2ncnn12

>  <smiles>  (229) 
[H]c1nc2nc([H])c(-c3nc(N([H])c4c([H])c([H])n5nc([H])[n+]([H])c5c4[H])nc([H])c3[H])c(C([H])([H])[H])n2n1

$$$$
62:1:1
     RDKit          3D

 39 43  0  0  1  0  0  0  0  0999 V2000
    3.1092   -5.0933    0.1156 C   0  0  0  0  0  0  0  0  0  0  0  0
    2.5302   -4.9107    1.5257 C   0  0  0  0  0  0  0  0  0  0  0  0
    2.7348   -3.8168    2.3632 C   0  0  0  0  0  0  0  0  0  0  0  0
    3.5974   -2.6559    2.0488 C   0  0  0  0  0  0  0  0  0  0  0  0
    4.9290   -2.7921    1.6114 C   0  0  0  0  0  0  0  0  0  0  0  0
    5.6343   -1.6155    1.3293 C   0  0  0  0  0  0  0  0  0  0  0  0
    5.0781   -0.4009    1.5171 N   0  0  0  0  0  0  0  0  0  0  0  0
    3.8179   -0.3821    1.9464 C   0  0  0  0  0  0  0  0  0  0  0  0
    3.3205    0.8881    2.1178 N   0  0  0  0  0  0  0  0  0  0  0  0
    2.1475    1.4444    2.5702 C   0  0  0  0  0  0  0  0  0  0  0  0
    2.2110    2.5273    3.5003 C   0  0  0  0  0  0  0  0  0  0  0  0
    1.0559    3.1578    3.9091 C   0  0  0  0  0  0  0  0  0  0  0  0
   -0.1296    2.7319    3.4149 N   0  0  0  0  0  0  0  0  0  0  0  0
   -1.3190    3.2605    3.7366 N   0  0  0  0  0  0  0  0  0  0  0  0
   -2.1193    2.5410    2.9618 C   0  0  0  0  0  0  0  0  0  0  0  0
   -1.4193    1.5685    2.2161 N   0  0  0  0  0  0  0  0  0  0  0  0
   -0.1636    1.7372    2.5353 C   0  0  0  0  0  0  0  0  0  0  0  0
    0.9339    1.0494    2.0727 C   0  0  0  0  0  0  0  0  0  0  0  0
    3.0513   -1.4315    2.2313 N   0  0  0  0  0  0  0  0  0  0  0  0
    2.0609   -3.8360    3.6183 C   0  0  0  0  0  0  0  0  0  0  0  0
    1.2463   -4.8035    4.0404 N   0  0  0  0  0  0  0  0  0  0  0  0
    1.0308   -5.8243    3.2025 C   0  0  0  0  0  0  0  0  0  0  0  0
    0.1903   -6.8589    3.2977 N   0  0  0  0  0  0  0  0  0  0  0  0
    0.4023   -7.5443    2.1415 C   0  0  0  0  0  0  0  0  0  0  0  0
    1.2161   -6.9681    1.2645 N   0  0  0  0  0  0  0  0  0  0  0  0
    1.6634   -5.8832    1.9520 N   0  0  0  0  0  0  0  0  0  0  0  0
    4.0734    1.5626    2.0867 H   0  0  0  0  0  0  0  0  0  0  0  0
    3.9836   -4.4954   -0.1210 H   0  0  0  0  0  0  0  0  0  0  0  0
    2.3680   -4.8325   -0.6435 H   0  0  0  0  0  0  0  0  0  0  0  0
    3.4145   -6.1353   -0.0193 H   0  0  0  0  0  0  0  0  0  0  0  0
    5.4061   -3.7491    1.4849 H   0  0  0  0  0  0  0  0  0  0  0  0
    6.6344   -1.6666    0.9260 H   0  0  0  0  0  0  0  0  0  0  0  0
    3.1576    2.8962    3.8809 H   0  0  0  0  0  0  0  0  0  0  0  0
    0.9826    3.9898    4.6018 H   0  0  0  0  0  0  0  0  0  0  0  0
   -3.1949    2.6519    2.9546 H   0  0  0  0  0  0  0  0  0  0  0  0
    0.8100    0.2880    1.3057 H   0  0  0  0  0  0  0  0  0  0  0  0
    2.2230   -3.0261    4.3269 H   0  0  0  0  0  0  0  0  0  0  0  0
   -0.0980   -8.4815    1.9104 H   0  0  0  0  0  0  0  0  0  0  0  0
   -1.7629    0.9160    1.5109 H   0  0  0  0  0  0  0  0  0  0  0  0
  1  2  1  0
  1 28  1  0
  1 29  1  0
  1 30  1  0
  2 26  1  0
  2  3  2  0
  3 20  1  0
  3  4  1  0
  4 19  1  0
  4  5  2  0
  5 31  1  0
  5  6  1  0
  6 32  1  0
  6  7  2  0
  7  8  1  0
  8  9  1  0
  8 19  2  0
  9 10  1  0
  9 27  1  0
 10 18  2  0
 10 11  1  0
 11 12  2  0
 11 33  1  0
 12 13  1  0
 12 34  1  0
 13 17  1  0
 13 14  1  0
 14 15  2  0
 15 16  1  0
 15 35  1  0
 16 17  2  0
 16 39  1  0
 17 18  1  0
 18 36  1  0
 20 21  2  0
 20 37  1  0
 21 22  1  0
 22 26  1  0
 22 23  2  0
 23 24  1  0
 24 25  2  0
 24 38  1  0
 25 26  1  0
M  CHG  1  16   1
M  END
>  <i_m_ct_stereo_status>  (230) 
1

>  <s_m_source_file>  (230) 
/var/tmp/pbs.5076255.sched01/tmpn9kf4o8v/46f5dlbpu8.sdf

>  <i_m_source_file_index>  (230) 
44

>  <i_lp_mmshare_version>  (230) 
48012

>  <i_f3d_flags>  (230) 
0

>  <s_epik_input>  (230) 
bjFbY0hdbm4oYzEyKWMoW0NIM10pYyhbY0hdbjIpLWMzW2NIXVtjSF1bbkhdL2MobjMpPU4vYyhbY0hdW2NIXTQpW2NIXWMobjQ1KW5bY0hdbjU=

>  <s_epik_cmdline>  (230) 
J2VwaWtfcHl0aG9uJywgJy1waHQnLCAnMi4wJywgJy1waCcsICc3LjAnLCAnLXRuJywgJzgnLCAnLW1hJywgJzIwMCcsICctaW1hZScsICc8aW5maWxlLm1hZT4nLCAnLW9tYWUnLCAnPG91dGZpbGUubWFlPic=

>  <r_lp_tautomer_probability>  (230) 
1

>  <r_epik_Ionization_Penalty>  (230) 
1.8891

>  <r_epik_Ionization_Penalty_Charging>  (230) 
1.88887

>  <r_epik_Ionization_Penalty_Neutral>  (230) 
0.00023526

>  <r_epik_State_Penalty>  (230) 
2.00923

>  <r_epik_Charging_Adjusted_Penalty>  (230) 
3.89809

>  <i_epik_Tot_Q>  (230) 
1

>  <i_epik_Tot_abs_Q>  (230) 
1

>  <s_lp_Force_Field>  (230) 
OPLS3e

>  <r_lp_Energy>  (230) 
40.6439

>  <b_lp_Chiralities_Consistent>  (230) 
1

>  <s_lp_Variant>  (230) 
62:0-2

>  <s_i_glide_gridfile>  (230) 
pfpi4k_grid

>  <i_i_glide_lignum>  (230) 
44

>  <i_i_glide_rotatable_bonds>  (230) 
3

>  <r_i_docking_score>  (230) 
-4.33551

>  <r_i_glide_ligand_efficiency>  (230) 
-0.16675

>  <r_i_glide_ligand_efficiency_sa>  (230) 
-0.493997

>  <r_i_glide_ligand_efficiency_ln>  (230) 
-1.01818

>  <r_i_glide_gscore>  (230) 
-4.33551

>  <r_i_glide_lipo>  (230) 
-0.222331

>  <r_i_glide_hbond>  (230) 
-0.358021

>  <r_i_glide_metal>  (230) 
-0

>  <r_i_glide_rewards>  (230) 
-1.10271

>  <r_i_glide_evdw>  (230) 
-26.9537

>  <r_i_glide_ecoul>  (230) 
-9.70872

>  <r_i_glide_erotb>  (230) 
0.477909

>  <r_i_glide_esite>  (230) 
-0.326369

>  <r_i_glide_emodel>  (230) 
-48.9796

>  <r_i_glide_energy>  (230) 
-36.6624

>  <r_i_glide_einternal>  (230) 
1.68765

>  <r_i_glide_intrahb_reward>  (230) 
-0

>  <i_i_glide_confnum>  (230) 
2

>  <i_i_glide_posenum>  (230) 
38

>  <r_i_glide_eff_state_penalty>  (230) 
0

>  <ligand_id>  (230) 
62

>  <original_smiles>  (230) 
Cc1c(-c2cc[nH]c(=Nc3ccn4ncnc4c3)n2)cnc2ncnn12

>  <smiles>  (230) 
[H]c1nc2nc([H])c(-c3nc(N([H])c4c([H])c([H])n5nc([H])[n+]([H])c5c4[H])nc([H])c3[H])c(C([H])([H])[H])n2n1

$$$$
62:1:2
     RDKit          3D

 39 43  0  0  1  0  0  0  0  0999 V2000
   -0.9170    1.4315    3.0093 C   0  0  0  0  0  0  0  0  0  0  0  0
   -0.8334    1.0727    4.4777 C   0  0  0  0  0  0  0  0  0  0  0  0
   -0.0866    0.0076    4.9890 C   0  0  0  0  0  0  0  0  0  0  0  0
    0.7556   -0.8971    4.1755 C   0  0  0  0  0  0  0  0  0  0  0  0
    0.6491   -2.2935    4.3274 C   0  0  0  0  0  0  0  0  0  0  0  0
    1.5036   -3.0821    3.5393 C   0  0  0  0  0  0  0  0  0  0  0  0
    2.3495   -2.5523    2.6425 N   0  0  0  0  0  0  0  0  0  0  0  0
    2.3582   -1.2266    2.5577 C   0  0  0  0  0  0  0  0  0  0  0  0
    3.1851   -0.6540    1.6300 N   0  0  0  0  0  0  0  0  0  0  0  0
    4.1653   -1.1712    0.8043 C   0  0  0  0  0  0  0  0  0  0  0  0
    5.5473   -0.9596    1.0917 C   0  0  0  0  0  0  0  0  0  0  0  0
    6.5195   -1.4642    0.2409 C   0  0  0  0  0  0  0  0  0  0  0  0
    6.1373   -2.1218   -0.8664 N   0  0  0  0  0  0  0  0  0  0  0  0
    6.9751   -2.6364   -1.7629 N   0  0  0  0  0  0  0  0  0  0  0  0
    6.1220   -3.1548   -2.6346 C   0  0  0  0  0  0  0  0  0  0  0  0
    4.7701   -2.9617   -2.2674 N   0  0  0  0  0  0  0  0  0  0  0  0
    4.8469   -2.3050   -1.1308 C   0  0  0  0  0  0  0  0  0  0  0  0
    3.8203   -1.8603   -0.3357 C   0  0  0  0  0  0  0  0  0  0  0  0
    1.6463   -0.3811    3.2965 N   0  0  0  0  0  0  0  0  0  0  0  0
   -0.2148   -0.2103    6.3888 C   0  0  0  0  0  0  0  0  0  0  0  0
   -0.9458    0.5044    7.2404 N   0  0  0  0  0  0  0  0  0  0  0  0
   -1.5863    1.5567    6.7217 C   0  0  0  0  0  0  0  0  0  0  0  0
   -2.3610    2.4368    7.3216 N   0  0  0  0  0  0  0  0  0  0  0  0
   -2.7024    3.2793    6.3082 C   0  0  0  0  0  0  0  0  0  0  0  0
   -2.2768    2.9564    5.0938 N   0  0  0  0  0  0  0  0  0  0  0  0
   -1.5406    1.8418    5.3509 N   0  0  0  0  0  0  0  0  0  0  0  0
    3.2630    0.3368    1.7872 H   0  0  0  0  0  0  0  0  0  0  0  0
   -0.6316    0.5985    2.3722 H   0  0  0  0  0  0  0  0  0  0  0  0
   -0.2503    2.2706    2.8096 H   0  0  0  0  0  0  0  0  0  0  0  0
   -1.9347    1.7213    2.7285 H   0  0  0  0  0  0  0  0  0  0  0  0
   -0.0483   -2.7600    5.0078 H   0  0  0  0  0  0  0  0  0  0  0  0
    1.4862   -4.1598    3.5974 H   0  0  0  0  0  0  0  0  0  0  0  0
    5.8876   -0.4174    1.9685 H   0  0  0  0  0  0  0  0  0  0  0  0
    7.5868   -1.3727    0.3924 H   0  0  0  0  0  0  0  0  0  0  0  0
    6.4768   -3.6871   -3.5122 H   0  0  0  0  0  0  0  0  0  0  0  0
    2.7913   -2.0163   -0.6428 H   0  0  0  0  0  0  0  0  0  0  0  0
    0.2858   -1.0482    6.8604 H   0  0  0  0  0  0  0  0  0  0  0  0
   -3.3547    4.1151    6.4685 H   0  0  0  0  0  0  0  0  0  0  0  0
    3.9232   -3.2999   -2.7151 H   0  0  0  0  0  0  0  0  0  0  0  0
  1  2  1  0
  1 28  1  0
  1 29  1  0
  1 30  1  0
  2 26  1  0
  2  3  2  0
  3 20  1  0
  3  4  1  0
  4 19  1  0
  4  5  2  0
  5 31  1  0
  5  6  1  0
  6 32  1  0
  6  7  2  0
  7  8  1  0
  8  9  1  0
  8 19  2  0
  9 10  1  0
  9 27  1  0
 10 18  2  0
 10 11  1  0
 11 12  2  0
 11 33  1  0
 12 13  1  0
 12 34  1  0
 13 17  1  0
 13 14  1  0
 14 15  2  0
 15 16  1  0
 15 35  1  0
 16 17  2  0
 16 39  1  0
 17 18  1  0
 18 36  1  0
 20 21  2  0
 20 37  1  0
 21 22  1  0
 22 26  1  0
 22 23  2  0
 23 24  1  0
 24 25  2  0
 24 38  1  0
 25 26  1  0
M  CHG  1  16   1
M  END
>  <i_m_ct_stereo_status>  (231) 
1

>  <s_m_source_file>  (231) 
/var/tmp/pbs.5076255.sched01/tmpn9kf4o8v/46f5dlbpu8.sdf

>  <i_m_source_file_index>  (231) 
44

>  <i_lp_mmshare_version>  (231) 
48012

>  <i_f3d_flags>  (231) 
0

>  <s_epik_input>  (231) 
bjFbY0hdbm4oYzEyKWMoW0NIM10pYyhbY0hdbjIpLWMzW2NIXVtjSF1bbkhdL2MobjMpPU4vYyhbY0hdW2NIXTQpW2NIXWMobjQ1KW5bY0hdbjU=

>  <s_epik_cmdline>  (231) 
J2VwaWtfcHl0aG9uJywgJy1waHQnLCAnMi4wJywgJy1waCcsICc3LjAnLCAnLXRuJywgJzgnLCAnLW1hJywgJzIwMCcsICctaW1hZScsICc8aW5maWxlLm1hZT4nLCAnLW9tYWUnLCAnPG91dGZpbGUubWFlPic=

>  <r_lp_tautomer_probability>  (231) 
1

>  <r_epik_Ionization_Penalty>  (231) 
1.8891

>  <r_epik_Ionization_Penalty_Charging>  (231) 
1.88887

>  <r_epik_Ionization_Penalty_Neutral>  (231) 
0.00023526

>  <r_epik_State_Penalty>  (231) 
2.00923

>  <r_epik_Charging_Adjusted_Penalty>  (231) 
3.89809

>  <i_epik_Tot_Q>  (231) 
1

>  <i_epik_Tot_abs_Q>  (231) 
1

>  <s_lp_Force_Field>  (231) 
OPLS3e

>  <r_lp_Energy>  (231) 
40.6439

>  <b_lp_Chiralities_Consistent>  (231) 
1

>  <s_lp_Variant>  (231) 
62:0-2

>  <s_i_glide_gridfile>  (231) 
pfpi4k_grid

>  <i_i_glide_lignum>  (231) 
44

>  <i_i_glide_rotatable_bonds>  (231) 
3

>  <r_i_docking_score>  (231) 
-4.06904

>  <r_i_glide_ligand_efficiency>  (231) 
-0.156502

>  <r_i_glide_ligand_efficiency_sa>  (231) 
-0.463636

>  <r_i_glide_ligand_efficiency_ln>  (231) 
-0.955602

>  <r_i_glide_gscore>  (231) 
-4.06904

>  <r_i_glide_lipo>  (231) 
-0.194023

>  <r_i_glide_hbond>  (231) 
-0.245841

>  <r_i_glide_metal>  (231) 
-0

>  <r_i_glide_rewards>  (231) 
-1.56894

>  <r_i_glide_evdw>  (231) 
-26.8905

>  <r_i_glide_ecoul>  (231) 
-6.94462

>  <r_i_glide_erotb>  (231) 
0.477909

>  <r_i_glide_esite>  (231) 
-0.151935

>  <r_i_glide_emodel>  (231) 
-44.2383

>  <r_i_glide_energy>  (231) 
-33.8351

>  <r_i_glide_einternal>  (231) 
3.87194

>  <r_i_glide_intrahb_reward>  (231) 
-0

>  <i_i_glide_confnum>  (231) 
5

>  <i_i_glide_posenum>  (231) 
4

>  <r_i_glide_eff_state_penalty>  (231) 
0

>  <ligand_id>  (231) 
62

>  <original_smiles>  (231) 
Cc1c(-c2cc[nH]c(=Nc3ccn4ncnc4c3)n2)cnc2ncnn12

>  <smiles>  (231) 
[H]c1nc2nc([H])c(-c3nc(N([H])c4c([H])c([H])n5nc([H])[n+]([H])c5c4[H])nc([H])c3[H])c(C([H])([H])[H])n2n1

$$$$
63:0:0
     RDKit          3D

 52 55  0  0  1  0  0  0  0  0999 V2000
    4.5238  -10.7493    2.9031 C   0  0  0  0  0  0  0  0  0  0  0  0
    3.8762  -11.1492    4.2336 C   0  0  2  0  0  0  0  0  0  0  0  0
    2.8341  -12.2599    4.0838 C   0  0  0  0  0  0  0  0  0  0  0  0
    1.5000  -11.6928    4.5874 C   0  0  0  0  0  0  0  0  0  0  0  0
    1.8895  -10.5902    5.4798 N   0  0  2  0  0  0  0  0  0  0  0  0
    0.7771   -9.6533    5.8547 C   0  0  0  0  0  0  0  0  0  0  0  0
    1.1826   -8.1925    5.8245 C   0  0  0  0  0  0  0  0  0  0  0  0
    1.7502   -7.4857    6.8161 C   0  0  0  0  0  0  0  0  0  0  0  0
    2.0321   -6.0684    6.3910 C   0  0  2  0  0  0  0  0  0  0  0  0
    3.5662   -5.8427    6.3590 C   0  0  0  0  0  0  0  0  0  0  0  0
    1.3504   -4.9560    7.2398 C   0  0  1  0  0  0  0  0  0  0  0  0
    1.1308   -3.6577    6.3918 C   0  0  2  0  0  0  0  0  0  0  0  0
   -0.3867   -3.4270    6.5372 C   0  0  0  0  0  0  0  0  0  0  0  0
   -0.9768   -2.4789    6.0396 O   0  0  0  0  0  0  0  0  0  0  0  0
   -0.9635   -4.3813    7.2819 N   0  0  0  0  0  0  0  0  0  0  0  0
   -2.3756   -4.3867    7.6423 C   0  0  0  0  0  0  0  0  0  0  0  0
   -0.0780   -5.2795    7.7257 C   0  0  0  0  0  0  0  0  0  0  0  0
   -0.3263   -6.2263    8.4654 O   0  0  0  0  0  0  0  0  0  0  0  0
    1.4949   -3.7727    4.9557 N   0  0  0  0  0  0  0  0  0  0  0  0
    1.7991   -2.5062    4.2912 C   0  0  0  0  0  0  0  0  0  0  0  0
    1.3732   -4.9290    4.2595 C   0  0  0  0  0  0  0  0  0  0  0  0
    1.1990   -4.9853    3.0464 O   0  0  0  0  0  0  0  0  0  0  0  0
    1.4681   -6.0335    5.0286 N   0  0  0  0  0  0  0  0  0  0  0  0
    1.0189   -7.3458    4.5888 C   0  0  0  0  0  0  0  0  0  0  0  0
    3.0865  -10.0008    4.8346 C   0  0  0  0  0  0  0  0  0  0  0  0
    3.7772  -10.4359    2.1727 H   0  0  0  0  0  0  0  0  0  0  0  0
    5.0635  -11.5835    2.4653 H   0  0  0  0  0  0  0  0  0  0  0  0
    5.2153   -9.9205    3.0335 H   0  0  0  0  0  0  0  0  0  0  0  0
    4.6351  -11.4674    4.9514 H   0  0  0  0  0  0  0  0  0  0  0  0
    2.7420  -12.6195    3.0589 H   0  0  0  0  0  0  0  0  0  0  0  0
    3.1285  -13.0966    4.7119 H   0  0  0  0  0  0  0  0  0  0  0  0
    0.9457  -11.2955    3.7338 H   0  0  0  0  0  0  0  0  0  0  0  0
    0.8653  -12.4355    5.0764 H   0  0  0  0  0  0  0  0  0  0  0  0
   -0.0835   -9.7560    5.1889 H   0  0  0  0  0  0  0  0  0  0  0  0
    0.4056   -9.9388    6.8414 H   0  0  0  0  0  0  0  0  0  0  0  0
    1.9965   -7.8704    7.7899 H   0  0  0  0  0  0  0  0  0  0  0  0
    4.0070   -5.9605    7.3529 H   0  0  0  0  0  0  0  0  0  0  0  0
    3.8296   -4.8416    6.0140 H   0  0  0  0  0  0  0  0  0  0  0  0
    4.0661   -6.5523    5.6973 H   0  0  0  0  0  0  0  0  0  0  0  0
    1.6532   -2.8178    6.8487 H   0  0  0  0  0  0  0  0  0  0  0  0
   -2.7487   -5.3987    7.7554 H   0  0  0  0  0  0  0  0  0  0  0  0
   -2.9823   -3.9085    6.8804 H   0  0  0  0  0  0  0  0  0  0  0  0
   -2.5460   -3.8737    8.5875 H   0  0  0  0  0  0  0  0  0  0  0  0
    1.9469   -4.7408    8.1283 H   0  0  0  0  0  0  0  0  0  0  0  0
    2.2480   -2.6526    3.3075 H   0  0  0  0  0  0  0  0  0  0  0  0
    2.5115   -1.9269    4.8788 H   0  0  0  0  0  0  0  0  0  0  0  0
    0.8963   -1.9099    4.1600 H   0  0  0  0  0  0  0  0  0  0  0  0
    1.6372   -7.6582    3.7504 H   0  0  0  0  0  0  0  0  0  0  0  0
   -0.0219   -7.3375    4.2651 H   0  0  0  0  0  0  0  0  0  0  0  0
    3.6841   -9.3632    5.4894 H   0  0  0  0  0  0  0  0  0  0  0  0
    2.7483   -9.4214    3.9808 H   0  0  0  0  0  0  0  0  0  0  0  0
    2.1916  -11.0544    6.3314 H   0  0  0  0  0  0  0  0  0  0  0  0
  1  2  1  0
  1 26  1  0
  1 27  1  0
  1 28  1  0
  2 25  1  0
  2  3  1  0
  2 29  1  1
  3  4  1  0
  3 30  1  0
  3 31  1  0
  4  5  1  0
  4 32  1  0
  4 33  1  0
  5  6  1  0
  5 25  1  0
  5 52  1  1
  6  7  1  0
  6 34  1  0
  6 35  1  0
  7 24  1  0
  7  8  2  0
  8  9  1  0
  8 36  1  0
  9 23  1  0
  9 10  1  6
  9 11  1  0
 10 37  1  0
 10 38  1  0
 10 39  1  0
 11 12  1  0
 11 44  1  1
 11 17  1  0
 12 13  1  0
 12 19  1  0
 12 40  1  1
 13 14  2  0
 13 15  1  0
 15 17  1  0
 15 16  1  0
 16 41  1  0
 16 42  1  0
 16 43  1  0
 17 18  2  0
 19 20  1  0
 19 21  1  0
 20 45  1  0
 20 46  1  0
 20 47  1  0
 21 22  2  0
 21 23  1  0
 23 24  1  0
 24 48  1  0
 24 49  1  0
 25 50  1  0
 25 51  1  0
M  CHG  1   5   1
M  END
>  <i_m_ct_stereo_status>  (232) 
1

>  <s_m_source_file>  (232) 
/var/tmp/pbs.5076255.sched01/tmpn9kf4o8v/46f5dlbpu8.sdf

>  <i_m_source_file_index>  (232) 
45

>  <i_lp_mmshare_version>  (232) 
48012

>  <i_f3d_flags>  (232) 
0

>  <s_epik_input>  (232) 
W0NIM11bQ0BASF0xW0NIMl1bQ0gyXU4oW0NIMl0xKVtDSDJdQyg9W0NIXTIpW0NIMl1OM0MoPU8pTihbQ0gzXSljKGM0W0NAQF0yM1tDSDNdKWMoW09IXSluKFtDSDNdKWM0W09IXQ==

>  <s_epik_cmdline>  (232) 
J2VwaWtfcHl0aG9uJywgJy1waHQnLCAnMi4wJywgJy1waCcsICc3LjAnLCAnLXRuJywgJzgnLCAnLW1hJywgJzIwMCcsICctaW1hZScsICc8aW5maWxlLm1hZT4nLCAnLW9tYWUnLCAnPG91dGZpbGUubWFlPic=

>  <r_lp_tautomer_probability>  (232) 
1

>  <r_epik_Ionization_Penalty>  (232) 
0.0174188

>  <r_epik_Ionization_Penalty_Charging>  (232) 
0.0174019

>  <r_epik_Ionization_Penalty_Neutral>  (232) 
1.69653e-05

>  <r_epik_State_Penalty>  (232) 
0.0137905

>  <r_epik_Charging_Adjusted_Penalty>  (232) 
0.0311924

>  <i_epik_Tot_Q>  (232) 
1

>  <i_epik_Tot_abs_Q>  (232) 
1

>  <s_lp_Force_Field>  (232) 
OPLS3e

>  <r_lp_Energy>  (232) 
19.1151

>  <b_lp_Chiralities_Consistent>  (232) 
1

>  <s_lp_Variant>  (232) 
63:0-1

>  <s_i_glide_gridfile>  (232) 
pfpi4k_grid

>  <i_i_glide_lignum>  (232) 
45

>  <i_i_glide_rotatable_bonds>  (232) 
2

>  <r_i_docking_score>  (232) 
-3.02329

>  <r_i_glide_ligand_efficiency>  (232) 
-0.120932

>  <r_i_glide_ligand_efficiency_sa>  (232) 
-0.353607

>  <r_i_glide_ligand_efficiency_ln>  (232) 
-0.716611

>  <r_i_glide_gscore>  (232) 
-3.02329

>  <r_i_glide_lipo>  (232) 
-0.00313931

>  <r_i_glide_hbond>  (232) 
-0.280533

>  <r_i_glide_metal>  (232) 
-0

>  <r_i_glide_rewards>  (232) 
-1.06637

>  <r_i_glide_evdw>  (232) 
-17.5197

>  <r_i_glide_ecoul>  (232) 
-6.60974

>  <r_i_glide_erotb>  (232) 
0.315209

>  <r_i_glide_esite>  (232) 
-0.121013

>  <r_i_glide_emodel>  (232) 
-27.1317

>  <r_i_glide_energy>  (232) 
-24.1294

>  <r_i_glide_einternal>  (232) 
8.75592

>  <r_i_glide_intrahb_reward>  (232) 
-0

>  <i_i_glide_confnum>  (232) 
4

>  <i_i_glide_posenum>  (232) 
2

>  <r_i_glide_eff_state_penalty>  (232) 
0

>  <ligand_id>  (232) 
63

>  <original_smiles>  (232) 
CC1CCN(CC2=CC3(C)c4c(c(O)n(C)c4O)N(C)C(=O)N3C2)C1

>  <smiles>  (232) 
[H]C1=C(C([H])([H])[N+]2([H])C([H])([H])C([H])([H])C([H])(C([H])([H])[H])C2([H])[H])C([H])([H])N2C(=O)N(C([H])([H])[H])C3([H])C(=O)N(C([H])([H])[H])C(=O)C3([H])C12C([H])([H])[H]

$$$$
63:0:1
     RDKit          3D

 52 55  0  0  1  0  0  0  0  0999 V2000
   -1.2351   -9.2737    2.3379 C   0  0  0  0  0  0  0  0  0  0  0  0
    0.2726   -9.3819    2.5752 C   0  0  2  0  0  0  0  0  0  0  0  0
    0.6842   -9.9410    3.9443 C   0  0  0  0  0  0  0  0  0  0  0  0
    1.5428   -8.8455    4.5800 C   0  0  0  0  0  0  0  0  0  0  0  0
    2.0666   -8.0552    3.4415 N   0  0  2  0  0  0  0  0  0  0  0  0
    2.6321   -6.7363    3.8179 C   0  0  0  0  0  0  0  0  0  0  0  0
    3.2339   -5.9920    2.6305 C   0  0  0  0  0  0  0  0  0  0  0  0
    4.5329   -5.7556    2.4074 C   0  0  0  0  0  0  0  0  0  0  0  0
    4.7340   -4.9269    1.1563 C   0  0  2  0  0  0  0  0  0  0  0  0
    5.4361   -5.8127    0.0998 C   0  0  0  0  0  0  0  0  0  0  0  0
    5.4961   -3.5781    1.3218 C   0  0  1  0  0  0  0  0  0  0  0  0
    5.0896   -2.5561    0.2005 C   0  0  2  0  0  0  0  0  0  0  0  0
    4.6195   -1.3407    1.0178 C   0  0  0  0  0  0  0  0  0  0  0  0
    4.2315   -0.2979    0.4915 O   0  0  0  0  0  0  0  0  0  0  0  0
    4.6967   -1.5691    2.3338 N   0  0  0  0  0  0  0  0  0  0  0  0
    4.3816   -0.5731    3.3587 C   0  0  0  0  0  0  0  0  0  0  0  0
    5.1605   -2.7955    2.6062 C   0  0  0  0  0  0  0  0  0  0  0  0
    5.3453   -3.2523    3.7373 O   0  0  0  0  0  0  0  0  0  0  0  0
    4.0118   -3.0218   -0.7033 N   0  0  0  0  0  0  0  0  0  0  0  0
    3.9543   -2.3753   -2.0161 C   0  0  0  0  0  0  0  0  0  0  0  0
    3.0110   -3.8336   -0.2862 C   0  0  0  0  0  0  0  0  0  0  0  0
    1.8984   -3.8816   -0.8012 O   0  0  0  0  0  0  0  0  0  0  0  0
    3.3553   -4.6121    0.7574 N   0  0  0  0  0  0  0  0  0  0  0  0
    2.3829   -5.3344    1.5731 C   0  0  0  0  0  0  0  0  0  0  0  0
    0.9466   -8.0219    2.4765 C   0  0  0  0  0  0  0  0  0  0  0  0
   -1.7110   -8.6444    3.0877 H   0  0  0  0  0  0  0  0  0  0  0  0
   -1.7049  -10.2458    2.3823 H   0  0  0  0  0  0  0  0  0  0  0  0
   -1.4513   -8.8522    1.3555 H   0  0  0  0  0  0  0  0  0  0  0  0
    0.7273  -10.0095    1.8091 H   0  0  0  0  0  0  0  0  0  0  0  0
   -0.1684  -10.1945    4.5701 H   0  0  0  0  0  0  0  0  0  0  0  0
    1.2717  -10.8511    3.8014 H   0  0  0  0  0  0  0  0  0  0  0  0
    0.8939   -8.1986    5.1759 H   0  0  0  0  0  0  0  0  0  0  0  0
    2.3243   -9.2339    5.2344 H   0  0  0  0  0  0  0  0  0  0  0  0
    1.8742   -6.0996    4.2800 H   0  0  0  0  0  0  0  0  0  0  0  0
    3.3962   -6.8738    4.5791 H   0  0  0  0  0  0  0  0  0  0  0  0
    5.3476   -6.0955    3.0204 H   0  0  0  0  0  0  0  0  0  0  0  0
    6.4347   -6.1103    0.4362 H   0  0  0  0  0  0  0  0  0  0  0  0
    5.5484   -5.2866   -0.8480 H   0  0  0  0  0  0  0  0  0  0  0  0
    4.8731   -6.7269   -0.1006 H   0  0  0  0  0  0  0  0  0  0  0  0
    5.9628   -2.2704   -0.3856 H   0  0  0  0  0  0  0  0  0  0  0  0
    4.0126   -1.0360    4.2742 H   0  0  0  0  0  0  0  0  0  0  0  0
    3.6188    0.1323    3.0276 H   0  0  0  0  0  0  0  0  0  0  0  0
    5.2683    0.0049    3.6198 H   0  0  0  0  0  0  0  0  0  0  0  0
    6.5745   -3.7480    1.3102 H   0  0  0  0  0  0  0  0  0  0  0  0
    3.2665   -2.8791   -2.6990 H   0  0  0  0  0  0  0  0  0  0  0  0
    4.9360   -2.3903   -2.4884 H   0  0  0  0  0  0  0  0  0  0  0  0
    3.6239   -1.3395   -1.9226 H   0  0  0  0  0  0  0  0  0  0  0  0
    1.8765   -6.0161    0.9032 H   0  0  0  0  0  0  0  0  0  0  0  0
    1.6718   -4.6422    2.0353 H   0  0  0  0  0  0  0  0  0  0  0  0
    1.2382   -7.8705    1.4432 H   0  0  0  0  0  0  0  0  0  0  0  0
    0.2500   -7.2319    2.7938 H   0  0  0  0  0  0  0  0  0  0  0  0
    2.7863   -8.6250    3.0140 H   0  0  0  0  0  0  0  0  0  0  0  0
  1  2  1  0
  1 26  1  0
  1 27  1  0
  1 28  1  0
  2 25  1  0
  2  3  1  0
  2 29  1  6
  3  4  1  0
  3 30  1  0
  3 31  1  0
  4  5  1  0
  4 32  1  0
  4 33  1  0
  5  6  1  0
  5 25  1  0
  5 52  1  6
  6  7  1  0
  6 34  1  0
  6 35  1  0
  7 24  1  0
  7  8  2  0
  8  9  1  0
  8 36  1  0
  9 23  1  0
  9 10  1  6
  9 11  1  0
 10 37  1  0
 10 38  1  0
 10 39  1  0
 11 12  1  0
 11 44  1  1
 11 17  1  0
 12 13  1  0
 12 19  1  0
 12 40  1  6
 13 14  2  0
 13 15  1  0
 15 17  1  0
 15 16  1  0
 16 41  1  0
 16 42  1  0
 16 43  1  0
 17 18  2  0
 19 20  1  0
 19 21  1  0
 20 45  1  0
 20 46  1  0
 20 47  1  0
 21 22  2  0
 21 23  1  0
 23 24  1  0
 24 48  1  0
 24 49  1  0
 25 50  1  0
 25 51  1  0
M  CHG  1   5   1
M  END
>  <i_m_ct_stereo_status>  (233) 
1

>  <s_m_source_file>  (233) 
/var/tmp/pbs.5076255.sched01/tmpn9kf4o8v/46f5dlbpu8.sdf

>  <i_m_source_file_index>  (233) 
45

>  <i_lp_mmshare_version>  (233) 
48012

>  <i_f3d_flags>  (233) 
0

>  <s_epik_input>  (233) 
W0NIM11bQ0BASF0xW0NIMl1bQ0gyXU4oW0NIMl0xKVtDSDJdQyg9W0NIXTIpW0NIMl1OM0MoPU8pTihbQ0gzXSljKGM0W0NAQF0yM1tDSDNdKWMoW09IXSluKFtDSDNdKWM0W09IXQ==

>  <s_epik_cmdline>  (233) 
J2VwaWtfcHl0aG9uJywgJy1waHQnLCAnMi4wJywgJy1waCcsICc3LjAnLCAnLXRuJywgJzgnLCAnLW1hJywgJzIwMCcsICctaW1hZScsICc8aW5maWxlLm1hZT4nLCAnLW9tYWUnLCAnPG91dGZpbGUubWFlPic=

>  <r_lp_tautomer_probability>  (233) 
1

>  <r_epik_Ionization_Penalty>  (233) 
0.0174188

>  <r_epik_Ionization_Penalty_Charging>  (233) 
0.0174019

>  <r_epik_Ionization_Penalty_Neutral>  (233) 
1.69653e-05

>  <r_epik_State_Penalty>  (233) 
0.0137905

>  <r_epik_Charging_Adjusted_Penalty>  (233) 
0.0311924

>  <i_epik_Tot_Q>  (233) 
1

>  <i_epik_Tot_abs_Q>  (233) 
1

>  <s_lp_Force_Field>  (233) 
OPLS3e

>  <r_lp_Energy>  (233) 
19.1151

>  <b_lp_Chiralities_Consistent>  (233) 
1

>  <s_lp_Variant>  (233) 
63:0-1

>  <s_i_glide_gridfile>  (233) 
pfpi4k_grid

>  <i_i_glide_lignum>  (233) 
45

>  <i_i_glide_rotatable_bonds>  (233) 
2

>  <r_i_docking_score>  (233) 
-2.86231

>  <r_i_glide_ligand_efficiency>  (233) 
-0.114493

>  <r_i_glide_ligand_efficiency_sa>  (233) 
-0.334778

>  <r_i_glide_ligand_efficiency_ln>  (233) 
-0.678454

>  <r_i_glide_gscore>  (233) 
-2.86231

>  <r_i_glide_lipo>  (233) 
-0.5005

>  <r_i_glide_hbond>  (233) 
-0.00965911

>  <r_i_glide_metal>  (233) 
-0

>  <r_i_glide_rewards>  (233) 
-1.21775

>  <r_i_glide_evdw>  (233) 
-23.5003

>  <r_i_glide_ecoul>  (233) 
-1.63947

>  <r_i_glide_erotb>  (233) 
0.315209

>  <r_i_glide_esite>  (233) 
-0.0286824

>  <r_i_glide_emodel>  (233) 
-31.4921

>  <r_i_glide_energy>  (233) 
-25.1397

>  <r_i_glide_einternal>  (233) 
1.08963

>  <r_i_glide_intrahb_reward>  (233) 
-0

>  <i_i_glide_confnum>  (233) 
4

>  <i_i_glide_posenum>  (233) 
32

>  <r_i_glide_eff_state_penalty>  (233) 
0

>  <ligand_id>  (233) 
63

>  <original_smiles>  (233) 
CC1CCN(CC2=CC3(C)c4c(c(O)n(C)c4O)N(C)C(=O)N3C2)C1

>  <smiles>  (233) 
[H]C1=C(C([H])([H])[N+]2([H])C([H])([H])C([H])([H])C([H])(C([H])([H])[H])C2([H])[H])C([H])([H])N2C(=O)N(C([H])([H])[H])C3([H])C(=O)N(C([H])([H])[H])C(=O)C3([H])C12C([H])([H])[H]

$$$$
63:0:2
     RDKit          3D

 52 55  0  0  1  0  0  0  0  0999 V2000
    0.2587  -10.2288    2.9198 C   0  0  0  0  0  0  0  0  0  0  0  0
    0.5449   -9.1353    3.9451 C   0  0  2  0  0  0  0  0  0  0  0  0
   -0.7001   -8.5845    4.6538 C   0  0  0  0  0  0  0  0  0  0  0  0
   -0.6857   -7.0826    4.3602 C   0  0  0  0  0  0  0  0  0  0  0  0
    0.7268   -6.7698    4.0669 N   0  0  2  0  0  0  0  0  0  0  0  0
    0.9376   -5.4511    3.4137 C   0  0  0  0  0  0  0  0  0  0  0  0
    2.4011   -5.1417    3.1644 C   0  0  0  0  0  0  0  0  0  0  0  0
    3.1878   -4.3307    3.8683 C   0  0  0  0  0  0  0  0  0  0  0  0
    4.5771   -4.2409    3.2761 C   0  0  2  0  0  0  0  0  0  0  0  0
    5.5748   -4.8995    4.2670 C   0  0  0  0  0  0  0  0  0  0  0  0
    5.0650   -2.8215    2.8713 C   0  0  1  0  0  0  0  0  0  0  0  0
    6.1076   -2.8921    1.7177 C   0  0  2  0  0  0  0  0  0  0  0  0
    5.5296   -1.9791    0.6376 C   0  0  0  0  0  0  0  0  0  0  0  0
    6.1046   -1.7477   -0.4293 O   0  0  0  0  0  0  0  0  0  0  0  0
    4.3615   -1.4726    1.0427 N   0  0  0  0  0  0  0  0  0  0  0  0
    3.5827   -0.5238    0.2572 C   0  0  0  0  0  0  0  0  0  0  0  0
    3.9989   -1.8899    2.2660 C   0  0  0  0  0  0  0  0  0  0  0  0
    2.9740   -1.5569    2.8688 O   0  0  0  0  0  0  0  0  0  0  0  0
    6.3740   -4.2518    1.1899 N   0  0  0  0  0  0  0  0  0  0  0  0
    7.6760   -4.4422    0.5396 C   0  0  0  0  0  0  0  0  0  0  0  0
    5.4039   -5.1931    1.1161 C   0  0  0  0  0  0  0  0  0  0  0  0
    5.3910   -6.1108    0.3018 O   0  0  0  0  0  0  0  0  0  0  0  0
    4.4374   -5.0410    2.0448 N   0  0  0  0  0  0  0  0  0  0  0  0
    3.1430   -5.7069    1.9745 C   0  0  0  0  0  0  0  0  0  0  0  0
    1.2138   -7.9308    3.3030 C   0  0  0  0  0  0  0  0  0  0  0  0
   -0.4343   -9.8893    2.1473 H   0  0  0  0  0  0  0  0  0  0  0  0
   -0.1765  -11.0818    3.4281 H   0  0  0  0  0  0  0  0  0  0  0  0
    1.1670  -10.5765    2.4249 H   0  0  0  0  0  0  0  0  0  0  0  0
    1.2241   -9.5351    4.7005 H   0  0  0  0  0  0  0  0  0  0  0  0
   -1.6232   -9.0539    4.3113 H   0  0  0  0  0  0  0  0  0  0  0  0
   -0.6154   -8.7648    5.7277 H   0  0  0  0  0  0  0  0  0  0  0  0
   -1.2792   -6.9053    3.4629 H   0  0  0  0  0  0  0  0  0  0  0  0
   -1.1016   -6.4765    5.1678 H   0  0  0  0  0  0  0  0  0  0  0  0
    0.4158   -5.4052    2.4579 H   0  0  0  0  0  0  0  0  0  0  0  0
    0.5032   -4.6593    4.0304 H   0  0  0  0  0  0  0  0  0  0  0  0
    2.8947   -3.7843    4.7561 H   0  0  0  0  0  0  0  0  0  0  0  0
    5.6122   -4.3477    5.2116 H   0  0  0  0  0  0  0  0  0  0  0  0
    6.5881   -4.9395    3.8667 H   0  0  0  0  0  0  0  0  0  0  0  0
    5.2868   -5.9263    4.4959 H   0  0  0  0  0  0  0  0  0  0  0  0
    7.0123   -2.4222    2.0569 H   0  0  0  0  0  0  0  0  0  0  0  0
    2.5252   -0.6268    0.4826 H   0  0  0  0  0  0  0  0  0  0  0  0
    3.7132   -0.6649   -0.8172 H   0  0  0  0  0  0  0  0  0  0  0  0
    3.8650    0.5012    0.4956 H   0  0  0  0  0  0  0  0  0  0  0  0
    5.4816   -2.3016    3.7431 H   0  0  0  0  0  0  0  0  0  0  0  0
    7.8808   -5.4923    0.3303 H   0  0  0  0  0  0  0  0  0  0  0  0
    8.4768   -4.0885    1.1838 H   0  0  0  0  0  0  0  0  0  0  0  0
    7.7254   -3.8993   -0.4014 H   0  0  0  0  0  0  0  0  0  0  0  0
    3.3134   -6.7815    2.0162 H   0  0  0  0  0  0  0  0  0  0  0  0
    2.6318   -5.4584    1.0435 H   0  0  0  0  0  0  0  0  0  0  0  0
    2.2962   -8.0647    3.3415 H   0  0  0  0  0  0  0  0  0  0  0  0
    0.8918   -7.8306    2.2623 H   0  0  0  0  0  0  0  0  0  0  0  0
    1.2225   -6.7851    4.9484 H   0  0  0  0  0  0  0  0  0  0  0  0
  1  2  1  0
  1 26  1  0
  1 27  1  0
  1 28  1  0
  2 25  1  0
  2  3  1  0
  2 29  1  1
  3  4  1  0
  3 30  1  0
  3 31  1  0
  4  5  1  0
  4 32  1  0
  4 33  1  0
  5  6  1  0
  5 25  1  0
  5 52  1  1
  6  7  1  0
  6 34  1  0
  6 35  1  0
  7 24  1  0
  7  8  2  0
  8  9  1  0
  8 36  1  0
  9 23  1  0
  9 10  1  1
  9 11  1  0
 10 37  1  0
 10 38  1  0
 10 39  1  0
 11 12  1  0
 11 44  1  1
 11 17  1  0
 12 13  1  0
 12 19  1  0
 12 40  1  1
 13 14  2  0
 13 15  1  0
 15 17  1  0
 15 16  1  0
 16 41  1  0
 16 42  1  0
 16 43  1  0
 17 18  2  0
 19 20  1  0
 19 21  1  0
 20 45  1  0
 20 46  1  0
 20 47  1  0
 21 22  2  0
 21 23  1  0
 23 24  1  0
 24 48  1  0
 24 49  1  0
 25 50  1  0
 25 51  1  0
M  CHG  1   5   1
M  END
>  <i_m_ct_stereo_status>  (234) 
1

>  <s_m_source_file>  (234) 
/var/tmp/pbs.5076255.sched01/tmpn9kf4o8v/46f5dlbpu8.sdf

>  <i_m_source_file_index>  (234) 
45

>  <i_lp_mmshare_version>  (234) 
48012

>  <i_f3d_flags>  (234) 
0

>  <s_epik_input>  (234) 
W0NIM11bQ0BASF0xW0NIMl1bQ0gyXU4oW0NIMl0xKVtDSDJdQyg9W0NIXTIpW0NIMl1OM0MoPU8pTihbQ0gzXSljKGM0W0NAQF0yM1tDSDNdKWMoW09IXSluKFtDSDNdKWM0W09IXQ==

>  <s_epik_cmdline>  (234) 
J2VwaWtfcHl0aG9uJywgJy1waHQnLCAnMi4wJywgJy1waCcsICc3LjAnLCAnLXRuJywgJzgnLCAnLW1hJywgJzIwMCcsICctaW1hZScsICc8aW5maWxlLm1hZT4nLCAnLW9tYWUnLCAnPG91dGZpbGUubWFlPic=

>  <r_lp_tautomer_probability>  (234) 
1

>  <r_epik_Ionization_Penalty>  (234) 
0.0174188

>  <r_epik_Ionization_Penalty_Charging>  (234) 
0.0174019

>  <r_epik_Ionization_Penalty_Neutral>  (234) 
1.69653e-05

>  <r_epik_State_Penalty>  (234) 
0.0137905

>  <r_epik_Charging_Adjusted_Penalty>  (234) 
0.0311924

>  <i_epik_Tot_Q>  (234) 
1

>  <i_epik_Tot_abs_Q>  (234) 
1

>  <s_lp_Force_Field>  (234) 
OPLS3e

>  <r_lp_Energy>  (234) 
19.1151

>  <b_lp_Chiralities_Consistent>  (234) 
1

>  <s_lp_Variant>  (234) 
63:0-1

>  <s_i_glide_gridfile>  (234) 
pfpi4k_grid

>  <i_i_glide_lignum>  (234) 
45

>  <i_i_glide_rotatable_bonds>  (234) 
2

>  <r_i_docking_score>  (234) 
-2.80972

>  <r_i_glide_ligand_efficiency>  (234) 
-0.112389

>  <r_i_glide_ligand_efficiency_sa>  (234) 
-0.328626

>  <r_i_glide_ligand_efficiency_ln>  (234) 
-0.665987

>  <r_i_glide_gscore>  (234) 
-2.80972

>  <r_i_glide_lipo>  (234) 
-0.350428

>  <r_i_glide_hbond>  (234) 
-0.0214974

>  <r_i_glide_metal>  (234) 
-0

>  <r_i_glide_rewards>  (234) 
-1.36573

>  <r_i_glide_evdw>  (234) 
-21.0209

>  <r_i_glide_ecoul>  (234) 
-2.07404

>  <r_i_glide_erotb>  (234) 
0.315209

>  <r_i_glide_esite>  (234) 
-0.0251158

>  <r_i_glide_emodel>  (234) 
-29.4451

>  <r_i_glide_energy>  (234) 
-23.095

>  <r_i_glide_einternal>  (234) 
1.12629

>  <r_i_glide_intrahb_reward>  (234) 
-0

>  <i_i_glide_confnum>  (234) 
4

>  <i_i_glide_posenum>  (234) 
21

>  <r_i_glide_eff_state_penalty>  (234) 
0

>  <ligand_id>  (234) 
63

>  <original_smiles>  (234) 
CC1CCN(CC2=CC3(C)c4c(c(O)n(C)c4O)N(C)C(=O)N3C2)C1

>  <smiles>  (234) 
[H]C1=C(C([H])([H])[N+]2([H])C([H])([H])C([H])([H])C([H])(C([H])([H])[H])C2([H])[H])C([H])([H])N2C(=O)N(C([H])([H])[H])C3([H])C(=O)N(C([H])([H])[H])C(=O)C3([H])C12C([H])([H])[H]

$$$$
63:1:0
     RDKit          3D

 52 55  0  0  1  0  0  0  0  0999 V2000
   -0.7919   -8.5210    3.8325 C   0  0  0  0  0  0  0  0  0  0  0  0
    0.1241   -8.9127    2.6742 C   0  0  2  0  0  0  0  0  0  0  0  0
    0.5390  -10.3936    2.6334 C   0  0  0  0  0  0  0  0  0  0  0  0
    2.0764  -10.3693    2.6578 C   0  0  0  0  0  0  0  0  0  0  0  0
    2.4466   -9.0385    2.1387 N   0  0  2  0  0  0  0  0  0  0  0  0
    3.8623   -8.6681    2.3694 C   0  0  0  0  0  0  0  0  0  0  0  0
    4.2152   -7.2295    1.9734 C   0  0  0  0  0  0  0  0  0  0  0  0
    3.4739   -6.3384    1.3304 C   0  0  0  0  0  0  0  0  0  0  0  0
    4.1876   -5.0133    1.2496 C   0  0  2  0  0  0  0  0  0  0  0  0
    3.6253   -4.0278    2.3064 C   0  0  0  0  0  0  0  0  0  0  0  0
    4.2007   -4.4704   -0.1718 C   0  0  2  0  0  0  0  0  0  0  0  0
    5.2420   -3.3868   -0.2497 C   0  0  2  0  0  0  0  0  0  0  0  0
    4.8034   -2.7351   -1.5589 C   0  0  0  0  0  0  0  0  0  0  0  0
    5.5511   -2.0403   -2.2842 O   0  0  0  0  0  0  0  0  0  0  0  0
    3.4925   -2.9451   -1.7567 N   0  0  0  0  0  0  0  0  0  0  0  0
    2.6816   -2.2780   -2.7786 C   0  0  0  0  0  0  0  0  0  0  0  0
    3.0229   -3.8378   -0.8834 C   0  0  0  0  0  0  0  0  0  0  0  0
    1.8290   -4.1965   -0.7207 O   0  0  0  0  0  0  0  0  0  0  0  0
    6.5716   -3.9657    0.0401 N   0  0  0  0  0  0  0  0  0  0  0  0
    7.7364   -3.3980   -0.6514 C   0  0  0  0  0  0  0  0  0  0  0  0
    6.7175   -4.7991    1.1253 C   0  0  0  0  0  0  0  0  0  0  0  0
    7.8341   -5.1085    1.5639 O   0  0  0  0  0  0  0  0  0  0  0  0
    5.5854   -5.3794    1.5964 N   0  0  0  0  0  0  0  0  0  0  0  0
    5.5652   -6.6610    2.3268 C   0  0  0  0  0  0  0  0  0  0  0  0
    1.4335   -8.1268    2.7346 C   0  0  0  0  0  0  0  0  0  0  0  0
   -0.3040   -8.7261    4.7839 H   0  0  0  0  0  0  0  0  0  0  0  0
   -1.7276   -9.0689    3.8001 H   0  0  0  0  0  0  0  0  0  0  0  0
   -1.0203   -7.4550    3.8036 H   0  0  0  0  0  0  0  0  0  0  0  0
   -0.3548   -8.6669    1.7288 H   0  0  0  0  0  0  0  0  0  0  0  0
    0.1287  -10.9653    3.4655 H   0  0  0  0  0  0  0  0  0  0  0  0
    0.1743  -10.8498    1.7098 H   0  0  0  0  0  0  0  0  0  0  0  0
    2.3934  -10.4449    3.6957 H   0  0  0  0  0  0  0  0  0  0  0  0
    2.5744  -11.1868    2.1221 H   0  0  0  0  0  0  0  0  0  0  0  0
    4.1045   -8.7903    3.4270 H   0  0  0  0  0  0  0  0  0  0  0  0
    4.5242   -9.3580    1.8412 H   0  0  0  0  0  0  0  0  0  0  0  0
    2.5030   -6.4585    0.8934 H   0  0  0  0  0  0  0  0  0  0  0  0
    2.6146   -3.7058    2.0644 H   0  0  0  0  0  0  0  0  0  0  0  0
    4.2430   -3.1383    2.4131 H   0  0  0  0  0  0  0  0  0  0  0  0
    3.5948   -4.4931    3.2888 H   0  0  0  0  0  0  0  0  0  0  0  0
    5.0880   -2.6109    0.4984 H   0  0  0  0  0  0  0  0  0  0  0  0
    1.8400   -2.8973   -3.0873 H   0  0  0  0  0  0  0  0  0  0  0  0
    3.2688   -2.0482   -3.6652 H   0  0  0  0  0  0  0  0  0  0  0  0
    2.2878   -1.3424   -2.3872 H   0  0  0  0  0  0  0  0  0  0  0  0
    4.4933   -5.2986   -0.8269 H   0  0  0  0  0  0  0  0  0  0  0  0
    8.6596   -3.9186   -0.4099 H   0  0  0  0  0  0  0  0  0  0  0  0
    7.8534   -2.3579   -0.3559 H   0  0  0  0  0  0  0  0  0  0  0  0
    7.6284   -3.4562   -1.7333 H   0  0  0  0  0  0  0  0  0  0  0  0
    5.6543   -6.4885    3.3990 H   0  0  0  0  0  0  0  0  0  0  0  0
    6.3535   -7.3407    2.0025 H   0  0  0  0  0  0  0  0  0  0  0  0
    1.2747   -7.1694    2.2710 H   0  0  0  0  0  0  0  0  0  0  0  0
    1.7261   -7.9713    3.7817 H   0  0  0  0  0  0  0  0  0  0  0  0
    2.2702   -9.0775    1.1436 H   0  0  0  0  0  0  0  0  0  0  0  0
  1  2  1  0
  1 26  1  0
  1 27  1  0
  1 28  1  0
  2 25  1  0
  2  3  1  0
  2 29  1  6
  3  4  1  0
  3 30  1  0
  3 31  1  0
  4  5  1  0
  4 32  1  0
  4 33  1  0
  5  6  1  0
  5 25  1  0
  5 52  1  6
  6  7  1  0
  6 34  1  0
  6 35  1  0
  7 24  1  0
  7  8  2  0
  8  9  1  0
  8 36  1  0
  9 23  1  0
  9 10  1  1
  9 11  1  0
 10 37  1  0
 10 38  1  0
 10 39  1  0
 11 12  1  0
 11 44  1  6
 11 17  1  0
 12 13  1  0
 12 19  1  0
 12 40  1  1
 13 14  2  0
 13 15  1  0
 15 17  1  0
 15 16  1  0
 16 41  1  0
 16 42  1  0
 16 43  1  0
 17 18  2  0
 19 20  1  0
 19 21  1  0
 20 45  1  0
 20 46  1  0
 20 47  1  0
 21 22  2  0
 21 23  1  0
 23 24  1  0
 24 48  1  0
 24 49  1  0
 25 50  1  0
 25 51  1  0
M  CHG  1   5   1
M  END
>  <i_m_ct_stereo_status>  (235) 
1

>  <s_m_source_file>  (235) 
/var/tmp/pbs.5076255.sched01/tmpn9kf4o8v/46f5dlbpu8.sdf

>  <i_m_source_file_index>  (235) 
46

>  <i_lp_mmshare_version>  (235) 
48012

>  <i_f3d_flags>  (235) 
0

>  <s_epik_input>  (235) 
W0NIM11bQ0BASF0xW0NIMl1bQ0gyXU4oW0NIMl0xKVtDSDJdQyg9W0NIXTIpW0NIMl1OM0MoPU8pTihbQ0gzXSljKGM0W0NAQF0yM1tDSDNdKWMoW09IXSluKFtDSDNdKWM0W09IXQ==

>  <s_epik_cmdline>  (235) 
J2VwaWtfcHl0aG9uJywgJy1waHQnLCAnMi4wJywgJy1waCcsICc3LjAnLCAnLXRuJywgJzgnLCAnLW1hJywgJzIwMCcsICctaW1hZScsICc8aW5maWxlLm1hZT4nLCAnLW9tYWUnLCAnPG91dGZpbGUubWFlPic=

>  <r_lp_tautomer_probability>  (235) 
1

>  <r_epik_Ionization_Penalty>  (235) 
0.0174188

>  <r_epik_Ionization_Penalty_Charging>  (235) 
0.0174019

>  <r_epik_Ionization_Penalty_Neutral>  (235) 
1.69653e-05

>  <r_epik_State_Penalty>  (235) 
0.0137905

>  <r_epik_Charging_Adjusted_Penalty>  (235) 
0.0311924

>  <i_epik_Tot_Q>  (235) 
1

>  <i_epik_Tot_abs_Q>  (235) 
1

>  <s_lp_Force_Field>  (235) 
OPLS3e

>  <r_lp_Energy>  (235) 
31.728

>  <b_lp_Chiralities_Consistent>  (235) 
1

>  <s_lp_Variant>  (235) 
63:0-2

>  <s_i_glide_gridfile>  (235) 
pfpi4k_grid

>  <i_i_glide_lignum>  (235) 
46

>  <i_i_glide_rotatable_bonds>  (235) 
2

>  <r_i_docking_score>  (235) 
-3.76549

>  <r_i_glide_ligand_efficiency>  (235) 
-0.150619

>  <r_i_glide_ligand_efficiency_sa>  (235) 
-0.440414

>  <r_i_glide_ligand_efficiency_ln>  (235) 
-0.892533

>  <r_i_glide_gscore>  (235) 
-3.76549

>  <r_i_glide_lipo>  (235) 
-0.621111

>  <r_i_glide_hbond>  (235) 
-7.38418e-05

>  <r_i_glide_metal>  (235) 
-0

>  <r_i_glide_rewards>  (235) 
-1.37938

>  <r_i_glide_evdw>  (235) 
-25.5472

>  <r_i_glide_ecoul>  (235) 
-5.13023

>  <r_i_glide_erotb>  (235) 
0.315209

>  <r_i_glide_esite>  (235) 
-0.0332361

>  <r_i_glide_emodel>  (235) 
-38.0081

>  <r_i_glide_energy>  (235) 
-30.6774

>  <r_i_glide_einternal>  (235) 
3.09536

>  <r_i_glide_intrahb_reward>  (235) 
-0

>  <i_i_glide_confnum>  (235) 
5

>  <i_i_glide_posenum>  (235) 
39

>  <r_i_glide_eff_state_penalty>  (235) 
0

>  <ligand_id>  (235) 
63

>  <original_smiles>  (235) 
CC1CCN(CC2=CC3(C)c4c(c(O)n(C)c4O)N(C)C(=O)N3C2)C1

>  <smiles>  (235) 
[H]C1=C(C([H])([H])[N+]2([H])C([H])([H])C([H])([H])C([H])(C([H])([H])[H])C2([H])[H])C([H])([H])N2C(=O)N(C([H])([H])[H])C3([H])C(=O)N(C([H])([H])[H])C(=O)C3([H])C12C([H])([H])[H]

$$$$
63:1:1
     RDKit          3D

 52 55  0  0  1  0  0  0  0  0999 V2000
    1.0417  -11.8596    4.4839 C   0  0  0  0  0  0  0  0  0  0  0  0
    1.7802  -10.5271    4.4912 C   0  0  2  0  0  0  0  0  0  0  0  0
    0.8411   -9.3222    4.3788 C   0  0  0  0  0  0  0  0  0  0  0  0
    1.3117   -8.5744    3.1299 C   0  0  0  0  0  0  0  0  0  0  0  0
    2.7229   -8.9707    2.9534 N   0  0  2  0  0  0  0  0  0  0  0  0
    3.2896   -8.6618    1.6184 C   0  0  0  0  0  0  0  0  0  0  0  0
    3.7117   -7.2077    1.5204 C   0  0  0  0  0  0  0  0  0  0  0  0
    3.0558   -6.2072    0.9348 C   0  0  0  0  0  0  0  0  0  0  0  0
    3.8316   -4.9172    1.0462 C   0  0  2  0  0  0  0  0  0  0  0  0
    3.1834   -4.0150    2.1261 C   0  0  0  0  0  0  0  0  0  0  0  0
    4.0764   -4.2151   -0.2937 C   0  0  2  0  0  0  0  0  0  0  0  0
    5.1509   -3.1679   -0.0998 C   0  0  2  0  0  0  0  0  0  0  0  0
    4.9396   -2.3383   -1.3762 C   0  0  0  0  0  0  0  0  0  0  0  0
    5.7857   -1.5937   -1.8712 O   0  0  0  0  0  0  0  0  0  0  0  0
    3.6550   -2.4818   -1.7759 N   0  0  0  0  0  0  0  0  0  0  0  0
    3.0171   -1.6519   -2.7954 C   0  0  0  0  0  0  0  0  0  0  0  0
    3.0240   -3.4596   -1.0908 C   0  0  0  0  0  0  0  0  0  0  0  0
    1.8288   -3.7736   -1.1225 O   0  0  0  0  0  0  0  0  0  0  0  0
    6.4107   -3.8307    0.2860 N   0  0  0  0  0  0  0  0  0  0  0  0
    7.6779   -3.2288   -0.1530 C   0  0  0  0  0  0  0  0  0  0  0  0
    6.3773   -4.7923    1.2719 C   0  0  0  0  0  0  0  0  0  0  0  0
    7.3982   -5.1980    1.8221 O   0  0  0  0  0  0  0  0  0  0  0  0
    5.1639   -5.3779    1.5133 N   0  0  0  0  0  0  0  0  0  0  0  0
    5.0251   -6.7270    2.0841 C   0  0  0  0  0  0  0  0  0  0  0  0
    2.7545  -10.3985    3.3098 C   0  0  0  0  0  0  0  0  0  0  0  0
    0.4931  -12.0229    3.5555 H   0  0  0  0  0  0  0  0  0  0  0  0
    0.3310  -11.9335    5.3042 H   0  0  0  0  0  0  0  0  0  0  0  0
    1.7709  -12.6608    4.5992 H   0  0  0  0  0  0  0  0  0  0  0  0
    2.3476  -10.4478    5.4210 H   0  0  0  0  0  0  0  0  0  0  0  0
   -0.2068   -9.6146    4.2982 H   0  0  0  0  0  0  0  0  0  0  0  0
    0.9385   -8.6953    5.2664 H   0  0  0  0  0  0  0  0  0  0  0  0
    0.7312   -8.9382    2.2796 H   0  0  0  0  0  0  0  0  0  0  0  0
    1.1696   -7.4945    3.1994 H   0  0  0  0  0  0  0  0  0  0  0  0
    4.1621   -9.2854    1.4144 H   0  0  0  0  0  0  0  0  0  0  0  0
    2.5613   -8.9125    0.8472 H   0  0  0  0  0  0  0  0  0  0  0  0
    2.1013   -6.2772    0.4398 H   0  0  0  0  0  0  0  0  0  0  0  0
    2.2244   -3.6149    1.7940 H   0  0  0  0  0  0  0  0  0  0  0  0
    3.8207   -3.1771    2.4066 H   0  0  0  0  0  0  0  0  0  0  0  0
    3.0090   -4.5824    3.0403 H   0  0  0  0  0  0  0  0  0  0  0  0
    4.9232   -2.4742    0.7087 H   0  0  0  0  0  0  0  0  0  0  0  0
    2.2077   -2.1894   -3.2869 H   0  0  0  0  0  0  0  0  0  0  0  0
    3.7243   -1.3448   -3.5614 H   0  0  0  0  0  0  0  0  0  0  0  0
    2.6053   -0.7517   -2.3429 H   0  0  0  0  0  0  0  0  0  0  0  0
    4.4449   -4.9748   -0.9950 H   0  0  0  0  0  0  0  0  0  0  0  0
    8.5518   -3.8048    0.1494 H   0  0  0  0  0  0  0  0  0  0  0  0
    7.7833   -2.2334    0.2748 H   0  0  0  0  0  0  0  0  0  0  0  0
    7.7334   -3.1506   -1.2375 H   0  0  0  0  0  0  0  0  0  0  0  0
    4.9892   -6.6671    3.1711 H   0  0  0  0  0  0  0  0  0  0  0  0
    5.8405   -7.3869    1.7863 H   0  0  0  0  0  0  0  0  0  0  0  0
    3.7617  -10.7609    3.5344 H   0  0  0  0  0  0  0  0  0  0  0  0
    2.3846  -10.9728    2.4597 H   0  0  0  0  0  0  0  0  0  0  0  0
    3.2615   -8.4952    3.6615 H   0  0  0  0  0  0  0  0  0  0  0  0
  1  2  1  0
  1 26  1  0
  1 27  1  0
  1 28  1  0
  2 25  1  0
  2  3  1  0
  2 29  1  1
  3  4  1  0
  3 30  1  0
  3 31  1  0
  4  5  1  0
  4 32  1  0
  4 33  1  0
  5  6  1  0
  5 25  1  0
  5 52  1  1
  6  7  1  0
  6 34  1  0
  6 35  1  0
  7 24  1  0
  7  8  2  0
  8  9  1  0
  8 36  1  0
  9 23  1  0
  9 10  1  1
  9 11  1  0
 10 37  1  0
 10 38  1  0
 10 39  1  0
 11 12  1  0
 11 44  1  6
 11 17  1  0
 12 13  1  0
 12 19  1  0
 12 40  1  1
 13 14  2  0
 13 15  1  0
 15 17  1  0
 15 16  1  0
 16 41  1  0
 16 42  1  0
 16 43  1  0
 17 18  2  0
 19 20  1  0
 19 21  1  0
 20 45  1  0
 20 46  1  0
 20 47  1  0
 21 22  2  0
 21 23  1  0
 23 24  1  0
 24 48  1  0
 24 49  1  0
 25 50  1  0
 25 51  1  0
M  CHG  1   5   1
M  END
>  <i_m_ct_stereo_status>  (236) 
1

>  <s_m_source_file>  (236) 
/var/tmp/pbs.5076255.sched01/tmpn9kf4o8v/46f5dlbpu8.sdf

>  <i_m_source_file_index>  (236) 
46

>  <i_lp_mmshare_version>  (236) 
48012

>  <i_f3d_flags>  (236) 
0

>  <s_epik_input>  (236) 
W0NIM11bQ0BASF0xW0NIMl1bQ0gyXU4oW0NIMl0xKVtDSDJdQyg9W0NIXTIpW0NIMl1OM0MoPU8pTihbQ0gzXSljKGM0W0NAQF0yM1tDSDNdKWMoW09IXSluKFtDSDNdKWM0W09IXQ==

>  <s_epik_cmdline>  (236) 
J2VwaWtfcHl0aG9uJywgJy1waHQnLCAnMi4wJywgJy1waCcsICc3LjAnLCAnLXRuJywgJzgnLCAnLW1hJywgJzIwMCcsICctaW1hZScsICc8aW5maWxlLm1hZT4nLCAnLW9tYWUnLCAnPG91dGZpbGUubWFlPic=

>  <r_lp_tautomer_probability>  (236) 
1

>  <r_epik_Ionization_Penalty>  (236) 
0.0174188

>  <r_epik_Ionization_Penalty_Charging>  (236) 
0.0174019

>  <r_epik_Ionization_Penalty_Neutral>  (236) 
1.69653e-05

>  <r_epik_State_Penalty>  (236) 
0.0137905

>  <r_epik_Charging_Adjusted_Penalty>  (236) 
0.0311924

>  <i_epik_Tot_Q>  (236) 
1

>  <i_epik_Tot_abs_Q>  (236) 
1

>  <s_lp_Force_Field>  (236) 
OPLS3e

>  <r_lp_Energy>  (236) 
31.728

>  <b_lp_Chiralities_Consistent>  (236) 
1

>  <s_lp_Variant>  (236) 
63:0-2

>  <s_i_glide_gridfile>  (236) 
pfpi4k_grid

>  <i_i_glide_lignum>  (236) 
46

>  <i_i_glide_rotatable_bonds>  (236) 
2

>  <r_i_docking_score>  (236) 
-3.66406

>  <r_i_glide_ligand_efficiency>  (236) 
-0.146562

>  <r_i_glide_ligand_efficiency_sa>  (236) 
-0.428551

>  <r_i_glide_ligand_efficiency_ln>  (236) 
-0.868492

>  <r_i_glide_gscore>  (236) 
-3.66406

>  <r_i_glide_lipo>  (236) 
-0.316948

>  <r_i_glide_hbond>  (236) 
-0.0686612

>  <r_i_glide_metal>  (236) 
-0

>  <r_i_glide_rewards>  (236) 
-1.45031

>  <r_i_glide_evdw>  (236) 
-28.2255

>  <r_i_glide_ecoul>  (236) 
-4.47423

>  <r_i_glide_erotb>  (236) 
0.315209

>  <r_i_glide_esite>  (236) 
-0.0609409

>  <r_i_glide_emodel>  (236) 
-41.0074

>  <r_i_glide_energy>  (236) 
-32.6997

>  <r_i_glide_einternal>  (236) 
2.09073

>  <r_i_glide_intrahb_reward>  (236) 
-0

>  <i_i_glide_confnum>  (236) 
6

>  <i_i_glide_posenum>  (236) 
14

>  <r_i_glide_eff_state_penalty>  (236) 
0

>  <ligand_id>  (236) 
63

>  <original_smiles>  (236) 
CC1CCN(CC2=CC3(C)c4c(c(O)n(C)c4O)N(C)C(=O)N3C2)C1

>  <smiles>  (236) 
[H]C1=C(C([H])([H])[N+]2([H])C([H])([H])C([H])([H])C([H])(C([H])([H])[H])C2([H])[H])C([H])([H])N2C(=O)N(C([H])([H])[H])C3([H])C(=O)N(C([H])([H])[H])C(=O)C3([H])C12C([H])([H])[H]

$$$$
63:1:2
     RDKit          3D

 52 55  0  0  1  0  0  0  0  0999 V2000
    4.4899  -11.7039    5.9157 C   0  0  0  0  0  0  0  0  0  0  0  0
    3.4899  -10.8113    5.1781 C   0  0  2  0  0  0  0  0  0  0  0  0
    2.3604  -11.5826    4.4841 C   0  0  0  0  0  0  0  0  0  0  0  0
    2.4542  -11.1943    3.0050 C   0  0  0  0  0  0  0  0  0  0  0  0
    3.1301   -9.8851    3.0058 N   0  0  2  0  0  0  0  0  0  0  0  0
    3.6341   -9.4585    1.6738 C   0  0  0  0  0  0  0  0  0  0  0  0
    4.1405   -8.0260    1.6908 C   0  0  0  0  0  0  0  0  0  0  0  0
    3.4910   -6.9309    1.2951 C   0  0  0  0  0  0  0  0  0  0  0  0
    4.3511   -5.7036    1.4690 C   0  0  2  0  0  0  0  0  0  0  0  0
    3.8724   -4.9095    2.7135 C   0  0  0  0  0  0  0  0  0  0  0  0
    4.5058   -4.8574    0.2047 C   0  0  2  0  0  0  0  0  0  0  0  0
    5.6640   -3.8941    0.4008 C   0  0  2  0  0  0  0  0  0  0  0  0
    5.3809   -2.9059   -0.7402 C   0  0  0  0  0  0  0  0  0  0  0  0
    6.2195   -2.1452   -1.2387 O   0  0  0  0  0  0  0  0  0  0  0  0
    4.0570   -2.9321   -1.0115 N   0  0  0  0  0  0  0  0  0  0  0  0
    3.3695   -1.9615   -1.8561 C   0  0  0  0  0  0  0  0  0  0  0  0
    3.4337   -3.9494   -0.3819 C   0  0  0  0  0  0  0  0  0  0  0  0
    2.2201   -4.1786   -0.3185 O   0  0  0  0  0  0  0  0  0  0  0  0
    6.9093   -4.6611    0.5778 N   0  0  0  0  0  0  0  0  0  0  0  0
    8.1616   -4.0752    0.0839 C   0  0  0  0  0  0  0  0  0  0  0  0
    6.9105   -5.7248    1.4481 C   0  0  0  0  0  0  0  0  0  0  0  0
    7.9507   -6.2385    1.8609 O   0  0  0  0  0  0  0  0  0  0  0  0
    5.6943   -6.2824    1.7241 N   0  0  0  0  0  0  0  0  0  0  0  0
    5.5383   -7.6764    2.1472 C   0  0  0  0  0  0  0  0  0  0  0  0
    4.1508   -9.9994    4.0642 C   0  0  0  0  0  0  0  0  0  0  0  0
    4.9705  -12.4014    5.2305 H   0  0  0  0  0  0  0  0  0  0  0  0
    3.9939  -12.2888    6.6888 H   0  0  0  0  0  0  0  0  0  0  0  0
    5.2748  -11.1144    6.3891 H   0  0  0  0  0  0  0  0  0  0  0  0
    3.0380  -10.1170    5.8886 H   0  0  0  0  0  0  0  0  0  0  0  0
    2.4498  -12.6579    4.6189 H   0  0  0  0  0  0  0  0  0  0  0  0
    1.3931  -11.2907    4.9001 H   0  0  0  0  0  0  0  0  0  0  0  0
    3.0862  -11.9179    2.4832 H   0  0  0  0  0  0  0  0  0  0  0  0
    1.4828  -11.1663    2.5100 H   0  0  0  0  0  0  0  0  0  0  0  0
    4.4368  -10.1168    1.3332 H   0  0  0  0  0  0  0  0  0  0  0  0
    2.8361   -9.5527    0.9331 H   0  0  0  0  0  0  0  0  0  0  0  0
    2.4835   -6.8947    0.9097 H   0  0  0  0  0  0  0  0  0  0  0  0
    2.9104   -4.4265    2.5341 H   0  0  0  0  0  0  0  0  0  0  0  0
    4.5835   -4.1448    3.0220 H   0  0  0  0  0  0  0  0  0  0  0  0
    3.7522   -5.5756    3.5685 H   0  0  0  0  0  0  0  0  0  0  0  0
    5.5590   -3.2959    1.3055 H   0  0  0  0  0  0  0  0  0  0  0  0
    2.4874   -2.3993   -2.3229 H   0  0  0  0  0  0  0  0  0  0  0  0
    4.0156   -1.5969   -2.6522 H   0  0  0  0  0  0  0  0  0  0  0  0
    3.0381   -1.1060   -1.2685 H   0  0  0  0  0  0  0  0  0  0  0  0
    4.7506   -5.5439   -0.6149 H   0  0  0  0  0  0  0  0  0  0  0  0
    9.0166   -4.7400    0.2222 H   0  0  0  0  0  0  0  0  0  0  0  0
    8.3725   -3.1492    0.6159 H   0  0  0  0  0  0  0  0  0  0  0  0
    8.1151   -3.8563   -0.9810 H   0  0  0  0  0  0  0  0  0  0  0  0
    5.6463   -7.7002    3.2278 H   0  0  0  0  0  0  0  0  0  0  0  0
    6.2744   -8.3416    1.6959 H   0  0  0  0  0  0  0  0  0  0  0  0
    4.4977   -9.0418    4.4499 H   0  0  0  0  0  0  0  0  0  0  0  0
    5.0081  -10.5431    3.6556 H   0  0  0  0  0  0  0  0  0  0  0  0
    2.4465   -9.2170    3.3294 H   0  0  0  0  0  0  0  0  0  0  0  0
  1  2  1  0
  1 26  1  0
  1 27  1  0
  1 28  1  0
  2 25  1  0
  2  3  1  0
  2 29  1  1
  3  4  1  0
  3 30  1  0
  3 31  1  0
  4  5  1  0
  4 32  1  0
  4 33  1  0
  5  6  1  0
  5 25  1  0
  5 52  1  1
  6  7  1  0
  6 34  1  0
  6 35  1  0
  7 24  1  0
  7  8  2  0
  8  9  1  0
  8 36  1  0
  9 23  1  0
  9 10  1  1
  9 11  1  0
 10 37  1  0
 10 38  1  0
 10 39  1  0
 11 12  1  0
 11 44  1  6
 11 17  1  0
 12 13  1  0
 12 19  1  0
 12 40  1  1
 13 14  2  0
 13 15  1  0
 15 17  1  0
 15 16  1  0
 16 41  1  0
 16 42  1  0
 16 43  1  0
 17 18  2  0
 19 20  1  0
 19 21  1  0
 20 45  1  0
 20 46  1  0
 20 47  1  0
 21 22  2  0
 21 23  1  0
 23 24  1  0
 24 48  1  0
 24 49  1  0
 25 50  1  0
 25 51  1  0
M  CHG  1   5   1
M  END
>  <i_m_ct_stereo_status>  (237) 
1

>  <s_m_source_file>  (237) 
/var/tmp/pbs.5076255.sched01/tmpn9kf4o8v/46f5dlbpu8.sdf

>  <i_m_source_file_index>  (237) 
46

>  <i_lp_mmshare_version>  (237) 
48012

>  <i_f3d_flags>  (237) 
0

>  <s_epik_input>  (237) 
W0NIM11bQ0BASF0xW0NIMl1bQ0gyXU4oW0NIMl0xKVtDSDJdQyg9W0NIXTIpW0NIMl1OM0MoPU8pTihbQ0gzXSljKGM0W0NAQF0yM1tDSDNdKWMoW09IXSluKFtDSDNdKWM0W09IXQ==

>  <s_epik_cmdline>  (237) 
J2VwaWtfcHl0aG9uJywgJy1waHQnLCAnMi4wJywgJy1waCcsICc3LjAnLCAnLXRuJywgJzgnLCAnLW1hJywgJzIwMCcsICctaW1hZScsICc8aW5maWxlLm1hZT4nLCAnLW9tYWUnLCAnPG91dGZpbGUubWFlPic=

>  <r_lp_tautomer_probability>  (237) 
1

>  <r_epik_Ionization_Penalty>  (237) 
0.0174188

>  <r_epik_Ionization_Penalty_Charging>  (237) 
0.0174019

>  <r_epik_Ionization_Penalty_Neutral>  (237) 
1.69653e-05

>  <r_epik_State_Penalty>  (237) 
0.0137905

>  <r_epik_Charging_Adjusted_Penalty>  (237) 
0.0311924

>  <i_epik_Tot_Q>  (237) 
1

>  <i_epik_Tot_abs_Q>  (237) 
1

>  <s_lp_Force_Field>  (237) 
OPLS3e

>  <r_lp_Energy>  (237) 
31.728

>  <b_lp_Chiralities_Consistent>  (237) 
1

>  <s_lp_Variant>  (237) 
63:0-2

>  <s_i_glide_gridfile>  (237) 
pfpi4k_grid

>  <i_i_glide_lignum>  (237) 
46

>  <i_i_glide_rotatable_bonds>  (237) 
2

>  <r_i_docking_score>  (237) 
-3.64391

>  <r_i_glide_ligand_efficiency>  (237) 
-0.145757

>  <r_i_glide_ligand_efficiency_sa>  (237) 
-0.426195

>  <r_i_glide_ligand_efficiency_ln>  (237) 
-0.863717

>  <r_i_glide_gscore>  (237) 
-3.64391

>  <r_i_glide_lipo>  (237) 
-0.382723

>  <r_i_glide_hbond>  (237) 
-0.0860768

>  <r_i_glide_metal>  (237) 
-0

>  <r_i_glide_rewards>  (237) 
-1.43505

>  <r_i_glide_evdw>  (237) 
-26.1663

>  <r_i_glide_ecoul>  (237) 
-4.64992

>  <r_i_glide_erotb>  (237) 
0.315209

>  <r_i_glide_esite>  (237) 
-0.0494723

>  <r_i_glide_emodel>  (237) 
-39.545

>  <r_i_glide_energy>  (237) 
-30.8162

>  <r_i_glide_einternal>  (237) 
1.10063

>  <r_i_glide_intrahb_reward>  (237) 
-0

>  <i_i_glide_confnum>  (237) 
5

>  <i_i_glide_posenum>  (237) 
22

>  <r_i_glide_eff_state_penalty>  (237) 
0

>  <ligand_id>  (237) 
63

>  <original_smiles>  (237) 
CC1CCN(CC2=CC3(C)c4c(c(O)n(C)c4O)N(C)C(=O)N3C2)C1

>  <smiles>  (237) 
[H]C1=C(C([H])([H])[N+]2([H])C([H])([H])C([H])([H])C([H])(C([H])([H])[H])C2([H])[H])C([H])([H])N2C(=O)N(C([H])([H])[H])C3([H])C(=O)N(C([H])([H])[H])C(=O)C3([H])C12C([H])([H])[H]

$$$$
63:2:0
     RDKit          3D

 52 55  0  0  1  0  0  0  0  0999 V2000
    0.9748   -9.3193    4.0698 C   0  0  0  0  0  0  0  0  0  0  0  0
    2.1414  -10.1364    3.4942 C   0  0  2  0  0  0  0  0  0  0  0  0
    3.4232  -10.0666    4.3396 C   0  0  0  0  0  0  0  0  0  0  0  0
    4.4568   -9.4920    3.3857 C   0  0  0  0  0  0  0  0  0  0  0  0
    3.9866   -9.8176    2.0148 N   0  0  2  0  0  0  0  0  0  0  0  0
    4.6372   -9.0876    0.8926 C   0  0  0  0  0  0  0  0  0  0  0  0
    4.8395   -7.6089    1.1910 C   0  0  0  0  0  0  0  0  0  0  0  0
    4.0404   -6.5970    0.8641 C   0  0  0  0  0  0  0  0  0  0  0  0
    4.5872   -5.3001    1.4034 C   0  0  2  0  0  0  0  0  0  0  0  0
    3.8599   -4.9412    2.7215 C   0  0  0  0  0  0  0  0  0  0  0  0
    4.5551   -4.0836    0.4673 C   0  0  1  0  0  0  0  0  0  0  0  0
    5.7234   -4.1563   -0.4842 C   0  0  1  0  0  0  0  0  0  0  0  0
    5.2801   -3.1406   -1.5369 C   0  0  0  0  0  0  0  0  0  0  0  0
    6.0465   -2.5761   -2.3212 O   0  0  0  0  0  0  0  0  0  0  0  0
    3.9325   -3.0557   -1.5210 N   0  0  0  0  0  0  0  0  0  0  0  0
    3.1419   -2.3814   -2.5425 C   0  0  0  0  0  0  0  0  0  0  0  0
    3.4104   -3.7150   -0.4699 C   0  0  0  0  0  0  0  0  0  0  0  0
    2.2150   -3.9661   -0.2486 O   0  0  0  0  0  0  0  0  0  0  0  0
    6.9554   -4.0612    0.3212 N   0  0  0  0  0  0  0  0  0  0  0  0
    8.0509   -3.2013   -0.1171 C   0  0  0  0  0  0  0  0  0  0  0  0
    7.1367   -5.0350    1.2584 C   0  0  0  0  0  0  0  0  0  0  0  0
    8.2571   -5.3545    1.6676 O   0  0  0  0  0  0  0  0  0  0  0  0
    6.0114   -5.6810    1.6626 N   0  0  0  0  0  0  0  0  0  0  0  0
    6.0562   -7.1134    1.9449 C   0  0  0  0  0  0  0  0  0  0  0  0
    2.5284   -9.6464    2.0854 C   0  0  0  0  0  0  0  0  0  0  0  0
    1.2164   -8.2568    4.1223 H   0  0  0  0  0  0  0  0  0  0  0  0
    0.7284   -9.6502    5.0771 H   0  0  0  0  0  0  0  0  0  0  0  0
    0.0771   -9.4203    3.4568 H   0  0  0  0  0  0  0  0  0  0  0  0
    1.8537  -11.1859    3.4235 H   0  0  0  0  0  0  0  0  0  0  0  0
    3.3274   -9.3946    5.1905 H   0  0  0  0  0  0  0  0  0  0  0  0
    3.7217  -11.0441    4.7158 H   0  0  0  0  0  0  0  0  0  0  0  0
    4.3707   -8.4185    3.5746 H   0  0  0  0  0  0  0  0  0  0  0  0
    5.4893   -9.7925    3.5861 H   0  0  0  0  0  0  0  0  0  0  0  0
    5.6075   -9.5278    0.6645 H   0  0  0  0  0  0  0  0  0  0  0  0
    4.0543   -9.2136   -0.0175 H   0  0  0  0  0  0  0  0  0  0  0  0
    3.1074   -6.6526    0.3247 H   0  0  0  0  0  0  0  0  0  0  0  0
    2.8194   -4.6513    2.5513 H   0  0  0  0  0  0  0  0  0  0  0  0
    4.3497   -4.1098    3.2285 H   0  0  0  0  0  0  0  0  0  0  0  0
    3.8499   -5.7782    3.4205 H   0  0  0  0  0  0  0  0  0  0  0  0
    5.7248   -5.1243   -0.9928 H   0  0  0  0  0  0  0  0  0  0  0  0
    2.2188   -2.0132   -2.1153 H   0  0  0  0  0  0  0  0  0  0  0  0
    2.8842   -3.0634   -3.3529 H   0  0  0  0  0  0  0  0  0  0  0  0
    3.6605   -1.5172   -2.9559 H   0  0  0  0  0  0  0  0  0  0  0  0
    4.6996   -3.1922    1.0912 H   0  0  0  0  0  0  0  0  0  0  0  0
    8.8514   -3.1547    0.6247 H   0  0  0  0  0  0  0  0  0  0  0  0
    7.6993   -2.1816   -0.2549 H   0  0  0  0  0  0  0  0  0  0  0  0
    8.4808   -3.5642   -1.0529 H   0  0  0  0  0  0  0  0  0  0  0  0
    5.9729   -7.2039    3.0256 H   0  0  0  0  0  0  0  0  0  0  0  0
    6.9729   -7.6057    1.6096 H   0  0  0  0  0  0  0  0  0  0  0  0
    2.0086  -10.1743    1.2867 H   0  0  0  0  0  0  0  0  0  0  0  0
    2.2958   -8.5836    1.9758 H   0  0  0  0  0  0  0  0  0  0  0  0
    4.1306  -10.8093    1.8335 H   0  0  0  0  0  0  0  0  0  0  0  0
  1  2  1  0
  1 26  1  0
  1 27  1  0
  1 28  1  0
  2 25  1  0
  2  3  1  0
  2 29  1  6
  3  4  1  0
  3 30  1  0
  3 31  1  0
  4  5  1  0
  4 32  1  0
  4 33  1  0
  5  6  1  0
  5 25  1  0
  5 52  1  6
  6  7  1  0
  6 34  1  0
  6 35  1  0
  7 24  1  0
  7  8  2  0
  8  9  1  0
  8 36  1  0
  9 23  1  0
  9 10  1  1
  9 11  1  0
 10 37  1  0
 10 38  1  0
 10 39  1  0
 11 12  1  0
 11 44  1  1
 11 17  1  0
 12 13  1  0
 12 19  1  0
 12 40  1  6
 13 14  2  0
 13 15  1  0
 15 17  1  0
 15 16  1  0
 16 41  1  0
 16 42  1  0
 16 43  1  0
 17 18  2  0
 19 20  1  0
 19 21  1  0
 20 45  1  0
 20 46  1  0
 20 47  1  0
 21 22  2  0
 21 23  1  0
 23 24  1  0
 24 48  1  0
 24 49  1  0
 25 50  1  0
 25 51  1  0
M  CHG  1   5   1
M  END
>  <i_m_ct_stereo_status>  (238) 
1

>  <s_m_source_file>  (238) 
/var/tmp/pbs.5076255.sched01/tmp7rmqr72f/92ch8atech.sdf

>  <i_m_source_file_index>  (238) 
1

>  <i_lp_mmshare_version>  (238) 
48012

>  <i_f3d_flags>  (238) 
0

>  <s_epik_input>  (238) 
W0NIM11bQ0BASF0xW0NIMl1bQ0gyXU4oW0NIMl0xKVtDSDJdQyg9W0NIXTIpW0NIMl1OM0MoPU8pTihbQ0gzXSljKGM0W0NAQF0yM1tDSDNdKWMoW09IXSluKFtDSDNdKWM0W09IXQ==

>  <s_epik_cmdline>  (238) 
J2VwaWtfcHl0aG9uJywgJy1waHQnLCAnMi4wJywgJy1waCcsICc3LjAnLCAnLXRuJywgJzgnLCAnLW1hJywgJzIwMCcsICctaW1hZScsICc8aW5maWxlLm1hZT4nLCAnLW9tYWUnLCAnPG91dGZpbGUubWFlPic=

>  <r_lp_tautomer_probability>  (238) 
1

>  <r_epik_Ionization_Penalty>  (238) 
0.0174188

>  <r_epik_Ionization_Penalty_Charging>  (238) 
0.0174019

>  <r_epik_Ionization_Penalty_Neutral>  (238) 
1.69653e-05

>  <r_epik_State_Penalty>  (238) 
0.0137905

>  <r_epik_Charging_Adjusted_Penalty>  (238) 
0.0311924

>  <i_epik_Tot_Q>  (238) 
1

>  <i_epik_Tot_abs_Q>  (238) 
1

>  <s_lp_Force_Field>  (238) 
OPLS3e

>  <r_lp_Energy>  (238) 
34.3665

>  <b_lp_Chiralities_Consistent>  (238) 
1

>  <s_lp_Variant>  (238) 
63:0-3

>  <s_i_glide_gridfile>  (238) 
pfpi4k_grid

>  <i_i_glide_lignum>  (238) 
1

>  <i_i_glide_rotatable_bonds>  (238) 
2

>  <r_i_docking_score>  (238) 
-4.01013

>  <r_i_glide_ligand_efficiency>  (238) 
-0.160405

>  <r_i_glide_ligand_efficiency_sa>  (238) 
-0.469028

>  <r_i_glide_ligand_efficiency_ln>  (238) 
-0.950521

>  <r_i_glide_gscore>  (238) 
-4.01013

>  <r_i_glide_lipo>  (238) 
-0.567109

>  <r_i_glide_hbond>  (238) 
-0.158092

>  <r_i_glide_metal>  (238) 
-0

>  <r_i_glide_rewards>  (238) 
-1.54262

>  <r_i_glide_evdw>  (238) 
-26.7262

>  <r_i_glide_ecoul>  (238) 
-4.17248

>  <r_i_glide_erotb>  (238) 
0.315209

>  <r_i_glide_esite>  (238) 
-0.0953396

>  <r_i_glide_emodel>  (238) 
-37

>  <r_i_glide_energy>  (238) 
-30.8986

>  <r_i_glide_einternal>  (238) 
7.02499

>  <r_i_glide_intrahb_reward>  (238) 
-0

>  <i_i_glide_confnum>  (238) 
3

>  <i_i_glide_posenum>  (238) 
34

>  <r_i_glide_eff_state_penalty>  (238) 
0

>  <ligand_id>  (238) 
63

>  <original_smiles>  (238) 
CC1CCN(CC2=CC3(C)c4c(c(O)n(C)c4O)N(C)C(=O)N3C2)C1

>  <smiles>  (238) 
[H]C1=C(C([H])([H])[N+]2([H])C([H])([H])C([H])([H])C([H])(C([H])([H])[H])C2([H])[H])C([H])([H])N2C(=O)N(C([H])([H])[H])C3([H])C(=O)N(C([H])([H])[H])C(=O)C3([H])C12C([H])([H])[H]

$$$$
63:2:1
     RDKit          3D

 52 55  0  0  1  0  0  0  0  0999 V2000
   -1.8538   -9.0147    2.9779 C   0  0  0  0  0  0  0  0  0  0  0  0
   -0.3800   -9.0299    3.3923 C   0  0  2  0  0  0  0  0  0  0  0  0
    0.0107   -7.8311    4.2698 C   0  0  0  0  0  0  0  0  0  0  0  0
    1.1391   -7.1358    3.5142 C   0  0  0  0  0  0  0  0  0  0  0  0
    1.7291   -8.1768    2.6507 N   0  0  2  0  0  0  0  0  0  0  0  0
    2.5789   -7.6622    1.5459 C   0  0  0  0  0  0  0  0  0  0  0  0
    3.6796   -6.7538    2.0515 C   0  0  0  0  0  0  0  0  0  0  0  0
    3.6104   -5.4398    2.2734 C   0  0  0  0  0  0  0  0  0  0  0  0
    4.9281   -4.9240    2.7888 C   0  0  2  0  0  0  0  0  0  0  0  0
    4.8942   -4.8114    4.3346 C   0  0  0  0  0  0  0  0  0  0  0  0
    5.4267   -3.6025    2.1908 C   0  0  1  0  0  0  0  0  0  0  0  0
    6.0607   -3.8450    0.8438 C   0  0  1  0  0  0  0  0  0  0  0  0
    6.0988   -2.4077    0.3052 C   0  0  0  0  0  0  0  0  0  0  0  0
    6.8463   -2.0081   -0.5936 O   0  0  0  0  0  0  0  0  0  0  0  0
    5.1168   -1.7006    0.9042 N   0  0  0  0  0  0  0  0  0  0  0  0
    4.6833   -0.3779    0.4865 C   0  0  0  0  0  0  0  0  0  0  0  0
    4.5631   -2.3741    1.9287 C   0  0  0  0  0  0  0  0  0  0  0  0
    3.5742   -2.0593    2.5945 O   0  0  0  0  0  0  0  0  0  0  0  0
    7.2372   -4.6961    1.0805 N   0  0  0  0  0  0  0  0  0  0  0  0
    8.5028   -4.3783    0.4120 C   0  0  0  0  0  0  0  0  0  0  0  0
    6.9967   -5.9194    1.6513 C   0  0  0  0  0  0  0  0  0  0  0  0
    7.7415   -6.8852    1.4762 O   0  0  0  0  0  0  0  0  0  0  0  0
    5.8436   -6.0304    2.3778 N   0  0  0  0  0  0  0  0  0  0  0  0
    5.0593   -7.2736    2.3562 C   0  0  0  0  0  0  0  0  0  0  0  0
    0.5737   -8.9661    2.1916 C   0  0  0  0  0  0  0  0  0  0  0  0
   -2.1075   -8.1167    2.4164 H   0  0  0  0  0  0  0  0  0  0  0  0
   -2.4981   -9.0529    3.8540 H   0  0  0  0  0  0  0  0  0  0  0  0
   -2.1000   -9.8668    2.3481 H   0  0  0  0  0  0  0  0  0  0  0  0
   -0.1702   -9.9470    3.9479 H   0  0  0  0  0  0  0  0  0  0  0  0
   -0.8158   -7.1467    4.4623 H   0  0  0  0  0  0  0  0  0  0  0  0
    0.3751   -8.1827    5.2364 H   0  0  0  0  0  0  0  0  0  0  0  0
    0.7101   -6.3618    2.8733 H   0  0  0  0  0  0  0  0  0  0  0  0
    1.8601   -6.6631    4.1828 H   0  0  0  0  0  0  0  0  0  0  0  0
    3.0263   -8.4950    0.9973 H   0  0  0  0  0  0  0  0  0  0  0  0
    1.9778   -7.0994    0.8305 H   0  0  0  0  0  0  0  0  0  0  0  0
    2.7399   -4.8152    2.1411 H   0  0  0  0  0  0  0  0  0  0  0  0
    4.2339   -4.0085    4.6670 H   0  0  0  0  0  0  0  0  0  0  0  0
    5.8882   -4.6121    4.7338 H   0  0  0  0  0  0  0  0  0  0  0  0
    4.5447   -5.7354    4.7933 H   0  0  0  0  0  0  0  0  0  0  0  0
    5.3823   -4.3931    0.1829 H   0  0  0  0  0  0  0  0  0  0  0  0
    4.2925    0.2108    1.3172 H   0  0  0  0  0  0  0  0  0  0  0  0
    3.9085   -0.4424   -0.2765 H   0  0  0  0  0  0  0  0  0  0  0  0
    5.5371    0.1493    0.0730 H   0  0  0  0  0  0  0  0  0  0  0  0
    6.2072   -3.2239    2.8555 H   0  0  0  0  0  0  0  0  0  0  0  0
    9.3061   -5.0358    0.7462 H   0  0  0  0  0  0  0  0  0  0  0  0
    8.8171   -3.3614    0.6338 H   0  0  0  0  0  0  0  0  0  0  0  0
    8.4134   -4.4815   -0.6681 H   0  0  0  0  0  0  0  0  0  0  0  0
    5.0788   -7.7543    3.3339 H   0  0  0  0  0  0  0  0  0  0  0  0
    5.3876   -7.9855    1.6003 H   0  0  0  0  0  0  0  0  0  0  0  0
    0.8583   -9.9478    1.8039 H   0  0  0  0  0  0  0  0  0  0  0  0
    0.0891   -8.4021    1.3901 H   0  0  0  0  0  0  0  0  0  0  0  0
    2.2744   -8.7840    3.2466 H   0  0  0  0  0  0  0  0  0  0  0  0
  1  2  1  0
  1 26  1  0
  1 27  1  0
  1 28  1  0
  2 25  1  0
  2  3  1  0
  2 29  1  1
  3  4  1  0
  3 30  1  0
  3 31  1  0
  4  5  1  0
  4 32  1  0
  4 33  1  0
  5  6  1  0
  5 25  1  0
  5 52  1  1
  6  7  1  0
  6 34  1  0
  6 35  1  0
  7 24  1  0
  7  8  2  0
  8  9  1  0
  8 36  1  0
  9 23  1  0
  9 10  1  1
  9 11  1  0
 10 37  1  0
 10 38  1  0
 10 39  1  0
 11 12  1  0
 11 44  1  1
 11 17  1  0
 12 13  1  0
 12 19  1  0
 12 40  1  6
 13 14  2  0
 13 15  1  0
 15 17  1  0
 15 16  1  0
 16 41  1  0
 16 42  1  0
 16 43  1  0
 17 18  2  0
 19 20  1  0
 19 21  1  0
 20 45  1  0
 20 46  1  0
 20 47  1  0
 21 22  2  0
 21 23  1  0
 23 24  1  0
 24 48  1  0
 24 49  1  0
 25 50  1  0
 25 51  1  0
M  CHG  1   5   1
M  END
>  <i_m_ct_stereo_status>  (239) 
1

>  <s_m_source_file>  (239) 
/var/tmp/pbs.5076255.sched01/tmp7rmqr72f/92ch8atech.sdf

>  <i_m_source_file_index>  (239) 
1

>  <i_lp_mmshare_version>  (239) 
48012

>  <i_f3d_flags>  (239) 
0

>  <s_epik_input>  (239) 
W0NIM11bQ0BASF0xW0NIMl1bQ0gyXU4oW0NIMl0xKVtDSDJdQyg9W0NIXTIpW0NIMl1OM0MoPU8pTihbQ0gzXSljKGM0W0NAQF0yM1tDSDNdKWMoW09IXSluKFtDSDNdKWM0W09IXQ==

>  <s_epik_cmdline>  (239) 
J2VwaWtfcHl0aG9uJywgJy1waHQnLCAnMi4wJywgJy1waCcsICc3LjAnLCAnLXRuJywgJzgnLCAnLW1hJywgJzIwMCcsICctaW1hZScsICc8aW5maWxlLm1hZT4nLCAnLW9tYWUnLCAnPG91dGZpbGUubWFlPic=

>  <r_lp_tautomer_probability>  (239) 
1

>  <r_epik_Ionization_Penalty>  (239) 
0.0174188

>  <r_epik_Ionization_Penalty_Charging>  (239) 
0.0174019

>  <r_epik_Ionization_Penalty_Neutral>  (239) 
1.69653e-05

>  <r_epik_State_Penalty>  (239) 
0.0137905

>  <r_epik_Charging_Adjusted_Penalty>  (239) 
0.0311924

>  <i_epik_Tot_Q>  (239) 
1

>  <i_epik_Tot_abs_Q>  (239) 
1

>  <s_lp_Force_Field>  (239) 
OPLS3e

>  <r_lp_Energy>  (239) 
34.3665

>  <b_lp_Chiralities_Consistent>  (239) 
1

>  <s_lp_Variant>  (239) 
63:0-3

>  <s_i_glide_gridfile>  (239) 
pfpi4k_grid

>  <i_i_glide_lignum>  (239) 
1

>  <i_i_glide_rotatable_bonds>  (239) 
2

>  <r_i_docking_score>  (239) 
-3.48056

>  <r_i_glide_ligand_efficiency>  (239) 
-0.139223

>  <r_i_glide_ligand_efficiency_sa>  (239) 
-0.407089

>  <r_i_glide_ligand_efficiency_ln>  (239) 
-0.824998

>  <r_i_glide_gscore>  (239) 
-3.48056

>  <r_i_glide_lipo>  (239) 
-0.34639

>  <r_i_glide_hbond>  (239) 
-0.16

>  <r_i_glide_metal>  (239) 
-0

>  <r_i_glide_rewards>  (239) 
-1.51709

>  <r_i_glide_evdw>  (239) 
-23.9517

>  <r_i_glide_ecoul>  (239) 
-3.72534

>  <r_i_glide_erotb>  (239) 
0.315209

>  <r_i_glide_esite>  (239) 
-0.0159098

>  <r_i_glide_emodel>  (239) 
-33.892

>  <r_i_glide_energy>  (239) 
-27.677

>  <r_i_glide_einternal>  (239) 
4.77183

>  <r_i_glide_intrahb_reward>  (239) 
-0

>  <i_i_glide_confnum>  (239) 
3

>  <i_i_glide_posenum>  (239) 
17

>  <r_i_glide_eff_state_penalty>  (239) 
0

>  <ligand_id>  (239) 
63

>  <original_smiles>  (239) 
CC1CCN(CC2=CC3(C)c4c(c(O)n(C)c4O)N(C)C(=O)N3C2)C1

>  <smiles>  (239) 
[H]C1=C(C([H])([H])[N+]2([H])C([H])([H])C([H])([H])C([H])(C([H])([H])[H])C2([H])[H])C([H])([H])N2C(=O)N(C([H])([H])[H])C3([H])C(=O)N(C([H])([H])[H])C(=O)C3([H])C12C([H])([H])[H]

$$$$
63:2:2
     RDKit          3D

 52 55  0  0  1  0  0  0  0  0999 V2000
    0.8181  -11.6137    3.0777 C   0  0  0  0  0  0  0  0  0  0  0  0
    2.0135  -10.7648    3.5129 C   0  0  2  0  0  0  0  0  0  0  0  0
    1.6057   -9.4494    4.1972 C   0  0  0  0  0  0  0  0  0  0  0  0
    2.2621   -8.3491    3.3634 C   0  0  0  0  0  0  0  0  0  0  0  0
    3.3997   -9.0033    2.6883 N   0  0  2  0  0  0  0  0  0  0  0  0
    3.9557   -8.2416    1.5410 C   0  0  0  0  0  0  0  0  0  0  0  0
    4.7778   -7.0571    2.0089 C   0  0  0  0  0  0  0  0  0  0  0  0
    4.3454   -5.8345    2.3240 C   0  0  0  0  0  0  0  0  0  0  0  0
    5.5047   -4.9534    2.7210 C   0  0  2  0  0  0  0  0  0  0  0  0
    5.6206   -4.9149    4.2680 C   0  0  0  0  0  0  0  0  0  0  0  0
    5.5062   -3.5201    2.1570 C   0  0  1  0  0  0  0  0  0  0  0  0
    6.0113   -3.5152    0.7372 C   0  0  1  0  0  0  0  0  0  0  0  0
    5.5617   -2.1174    0.2925 C   0  0  0  0  0  0  0  0  0  0  0  0
    6.0579   -1.4885   -0.6473 O   0  0  0  0  0  0  0  0  0  0  0  0
    4.4960   -1.7523    1.0370 N   0  0  0  0  0  0  0  0  0  0  0  0
    3.6376   -0.6066    0.7547 C   0  0  0  0  0  0  0  0  0  0  0  0
    4.2948   -2.6008    2.0648 C   0  0  0  0  0  0  0  0  0  0  0  0
    3.3395   -2.6268    2.8461 O   0  0  0  0  0  0  0  0  0  0  0  0
    7.4079   -3.9693    0.7854 N   0  0  0  0  0  0  0  0  0  0  0  0
    8.4265   -3.2629    0.0036 C   0  0  0  0  0  0  0  0  0  0  0  0
    7.6228   -5.2228    1.2940 C   0  0  0  0  0  0  0  0  0  0  0  0
    8.6091   -5.8856    0.9713 O   0  0  0  0  0  0  0  0  0  0  0  0
    6.6527   -5.7105    2.1315 N   0  0  0  0  0  0  0  0  0  0  0  0
    6.2806   -7.1339    2.1193 C   0  0  0  0  0  0  0  0  0  0  0  0
    2.8995  -10.3408    2.3333 C   0  0  0  0  0  0  0  0  0  0  0  0
    0.1900  -11.0719    2.3703 H   0  0  0  0  0  0  0  0  0  0  0  0
    0.2156  -11.8846    3.9405 H   0  0  0  0  0  0  0  0  0  0  0  0
    1.1275  -12.5388    2.5917 H   0  0  0  0  0  0  0  0  0  0  0  0
    2.6224  -11.3409    4.2130 H   0  0  0  0  0  0  0  0  0  0  0  0
    0.5245   -9.3130    4.2536 H   0  0  0  0  0  0  0  0  0  0  0  0
    1.9897   -9.4263    5.2185 H   0  0  0  0  0  0  0  0  0  0  0  0
    1.5474   -8.0235    2.6046 H   0  0  0  0  0  0  0  0  0  0  0  0
    2.5471   -7.4757    3.9525 H   0  0  0  0  0  0  0  0  0  0  0  0
    4.6031   -8.8838    0.9408 H   0  0  0  0  0  0  0  0  0  0  0  0
    3.1638   -7.9073    0.8730 H   0  0  0  0  0  0  0  0  0  0  0  0
    3.3193   -5.5002    2.3211 H   0  0  0  0  0  0  0  0  0  0  0  0
    4.7984   -4.3551    4.7172 H   0  0  0  0  0  0  0  0  0  0  0  0
    6.5479   -4.4602    4.6062 H   0  0  0  0  0  0  0  0  0  0  0  0
    5.6136   -5.9180    4.6926 H   0  0  0  0  0  0  0  0  0  0  0  0
    5.4542   -4.2247    0.1188 H   0  0  0  0  0  0  0  0  0  0  0  0
    3.1854   -0.2115    1.6651 H   0  0  0  0  0  0  0  0  0  0  0  0
    2.8300   -0.8950    0.0835 H   0  0  0  0  0  0  0  0  0  0  0  0
    4.1971    0.2012    0.2847 H   0  0  0  0  0  0  0  0  0  0  0  0
    6.2154   -2.9426    2.7561 H   0  0  0  0  0  0  0  0  0  0  0  0
    9.4263   -3.6434    0.2056 H   0  0  0  0  0  0  0  0  0  0  0  0
    8.4528   -2.2047    0.2542 H   0  0  0  0  0  0  0  0  0  0  0  0
    8.2424   -3.3720   -1.0652 H   0  0  0  0  0  0  0  0  0  0  0  0
    6.5732   -7.6128    3.0544 H   0  0  0  0  0  0  0  0  0  0  0  0
    6.7122   -7.6867    1.2857 H   0  0  0  0  0  0  0  0  0  0  0  0
    3.7000  -11.0519    2.1257 H   0  0  0  0  0  0  0  0  0  0  0  0
    2.2966  -10.2437    1.4287 H   0  0  0  0  0  0  0  0  0  0  0  0
    4.1182   -9.1510    3.3823 H   0  0  0  0  0  0  0  0  0  0  0  0
  1  2  1  0
  1 26  1  0
  1 27  1  0
  1 28  1  0
  2 25  1  0
  2  3  1  0
  2 29  1  1
  3  4  1  0
  3 30  1  0
  3 31  1  0
  4  5  1  0
  4 32  1  0
  4 33  1  0
  5  6  1  0
  5 25  1  0
  5 52  1  1
  6  7  1  0
  6 34  1  0
  6 35  1  0
  7 24  1  0
  7  8  2  0
  8  9  1  0
  8 36  1  0
  9 23  1  0
  9 10  1  1
  9 11  1  0
 10 37  1  0
 10 38  1  0
 10 39  1  0
 11 12  1  0
 11 44  1  1
 11 17  1  0
 12 13  1  0
 12 19  1  0
 12 40  1  6
 13 14  2  0
 13 15  1  0
 15 17  1  0
 15 16  1  0
 16 41  1  0
 16 42  1  0
 16 43  1  0
 17 18  2  0
 19 20  1  0
 19 21  1  0
 20 45  1  0
 20 46  1  0
 20 47  1  0
 21 22  2  0
 21 23  1  0
 23 24  1  0
 24 48  1  0
 24 49  1  0
 25 50  1  0
 25 51  1  0
M  CHG  1   5   1
M  END
>  <i_m_ct_stereo_status>  (240) 
1

>  <s_m_source_file>  (240) 
/var/tmp/pbs.5076255.sched01/tmp7rmqr72f/92ch8atech.sdf

>  <i_m_source_file_index>  (240) 
1

>  <i_lp_mmshare_version>  (240) 
48012

>  <i_f3d_flags>  (240) 
0

>  <s_epik_input>  (240) 
W0NIM11bQ0BASF0xW0NIMl1bQ0gyXU4oW0NIMl0xKVtDSDJdQyg9W0NIXTIpW0NIMl1OM0MoPU8pTihbQ0gzXSljKGM0W0NAQF0yM1tDSDNdKWMoW09IXSluKFtDSDNdKWM0W09IXQ==

>  <s_epik_cmdline>  (240) 
J2VwaWtfcHl0aG9uJywgJy1waHQnLCAnMi4wJywgJy1waCcsICc3LjAnLCAnLXRuJywgJzgnLCAnLW1hJywgJzIwMCcsICctaW1hZScsICc8aW5maWxlLm1hZT4nLCAnLW9tYWUnLCAnPG91dGZpbGUubWFlPic=

>  <r_lp_tautomer_probability>  (240) 
1

>  <r_epik_Ionization_Penalty>  (240) 
0.0174188

>  <r_epik_Ionization_Penalty_Charging>  (240) 
0.0174019

>  <r_epik_Ionization_Penalty_Neutral>  (240) 
1.69653e-05

>  <r_epik_State_Penalty>  (240) 
0.0137905

>  <r_epik_Charging_Adjusted_Penalty>  (240) 
0.0311924

>  <i_epik_Tot_Q>  (240) 
1

>  <i_epik_Tot_abs_Q>  (240) 
1

>  <s_lp_Force_Field>  (240) 
OPLS3e

>  <r_lp_Energy>  (240) 
34.3665

>  <b_lp_Chiralities_Consistent>  (240) 
1

>  <s_lp_Variant>  (240) 
63:0-3

>  <s_i_glide_gridfile>  (240) 
pfpi4k_grid

>  <i_i_glide_lignum>  (240) 
1

>  <i_i_glide_rotatable_bonds>  (240) 
2

>  <r_i_docking_score>  (240) 
-3.47309

>  <r_i_glide_ligand_efficiency>  (240) 
-0.138924

>  <r_i_glide_ligand_efficiency_sa>  (240) 
-0.406216

>  <r_i_glide_ligand_efficiency_ln>  (240) 
-0.823227

>  <r_i_glide_gscore>  (240) 
-3.47309

>  <r_i_glide_lipo>  (240) 
-0.494576

>  <r_i_glide_hbond>  (240) 
-0.0716392

>  <r_i_glide_metal>  (240) 
-0

>  <r_i_glide_rewards>  (240) 
-1.5065

>  <r_i_glide_evdw>  (240) 
-23.4127

>  <r_i_glide_ecoul>  (240) 
-3.52722

>  <r_i_glide_erotb>  (240) 
0.315209

>  <r_i_glide_esite>  (240) 
-0.0158639

>  <r_i_glide_emodel>  (240) 
-34.1267

>  <r_i_glide_energy>  (240) 
-26.94

>  <r_i_glide_einternal>  (240) 
2.96833

>  <r_i_glide_intrahb_reward>  (240) 
-0

>  <i_i_glide_confnum>  (240) 
3

>  <i_i_glide_posenum>  (240) 
11

>  <r_i_glide_eff_state_penalty>  (240) 
0

>  <ligand_id>  (240) 
63

>  <original_smiles>  (240) 
CC1CCN(CC2=CC3(C)c4c(c(O)n(C)c4O)N(C)C(=O)N3C2)C1

>  <smiles>  (240) 
[H]C1=C(C([H])([H])[N+]2([H])C([H])([H])C([H])([H])C([H])(C([H])([H])[H])C2([H])[H])C([H])([H])N2C(=O)N(C([H])([H])[H])C3([H])C(=O)N(C([H])([H])[H])C(=O)C3([H])C12C([H])([H])[H]

$$$$
63:3:0
     RDKit          3D

 52 55  0  0  1  0  0  0  0  0999 V2000
    3.2780   -1.2010   -2.6577 C   0  0  0  0  0  0  0  0  0  0  0  0
    3.8398   -1.7013   -1.3274 C   0  0  2  0  0  0  0  0  0  0  0  0
    5.3359   -1.4259   -1.1373 C   0  0  0  0  0  0  0  0  0  0  0  0
    5.9685   -2.8060   -0.9156 C   0  0  0  0  0  0  0  0  0  0  0  0
    4.8695   -3.6473   -0.4061 N   0  0  2  0  0  0  0  0  0  0  0  0
    5.1440   -5.1071   -0.4509 C   0  0  0  0  0  0  0  0  0  0  0  0
    4.2557   -5.8876    0.4974 C   0  0  0  0  0  0  0  0  0  0  0  0
    4.6287   -6.8454    1.3447 C   0  0  0  0  0  0  0  0  0  0  0  0
    3.4413   -7.4189    2.0772 C   0  0  2  0  0  0  0  0  0  0  0  0
    3.5215   -7.0239    3.5785 C   0  0  0  0  0  0  0  0  0  0  0  0
    3.2086   -8.9243    1.7912 C   0  0  2  0  0  0  0  0  0  0  0  0
    1.7545   -9.3529    2.1117 C   0  0  1  0  0  0  0  0  0  0  0  0
    1.9664  -10.3106    3.2968 C   0  0  0  0  0  0  0  0  0  0  0  0
    1.0445  -10.8146    3.9417 O   0  0  0  0  0  0  0  0  0  0  0  0
    3.2732  -10.5649    3.4819 N   0  0  0  0  0  0  0  0  0  0  0  0
    3.7870  -11.5345    4.4481 C   0  0  0  0  0  0  0  0  0  0  0  0
    4.0539   -9.8564    2.6537 C   0  0  0  0  0  0  0  0  0  0  0  0
    5.2880   -9.8976    2.5798 O   0  0  0  0  0  0  0  0  0  0  0  0
    0.7999   -8.2155    2.2943 N   0  0  0  0  0  0  0  0  0  0  0  0
   -0.5494   -8.5315    2.7906 C   0  0  0  0  0  0  0  0  0  0  0  0
    1.0081   -7.0455    1.6323 C   0  0  0  0  0  0  0  0  0  0  0  0
    0.1065   -6.2949    1.2368 O   0  0  0  0  0  0  0  0  0  0  0  0
    2.3080   -6.7255    1.4606 N   0  0  0  0  0  0  0  0  0  0  0  0
    2.7679   -5.6877    0.5538 C   0  0  0  0  0  0  0  0  0  0  0  0
    3.6942   -3.2153   -1.1939 C   0  0  0  0  0  0  0  0  0  0  0  0
    3.7817   -1.6720   -3.5029 H   0  0  0  0  0  0  0  0  0  0  0  0
    3.3895   -0.1223   -2.7539 H   0  0  0  0  0  0  0  0  0  0  0  0
    2.2193   -1.4424   -2.7336 H   0  0  0  0  0  0  0  0  0  0  0  0
    3.2877   -1.2374   -0.5060 H   0  0  0  0  0  0  0  0  0  0  0  0
    5.7738   -0.9130   -1.9926 H   0  0  0  0  0  0  0  0  0  0  0  0
    5.4818   -0.7898   -0.2608 H   0  0  0  0  0  0  0  0  0  0  0  0
    6.2943   -3.2031   -1.8798 H   0  0  0  0  0  0  0  0  0  0  0  0
    6.8361   -2.7746   -0.2535 H   0  0  0  0  0  0  0  0  0  0  0  0
    5.0159   -5.4974   -1.4622 H   0  0  0  0  0  0  0  0  0  0  0  0
    6.1825   -5.3041   -0.1732 H   0  0  0  0  0  0  0  0  0  0  0  0
    5.6369   -7.1933    1.5079 H   0  0  0  0  0  0  0  0  0  0  0  0
    4.4249   -7.4099    4.0546 H   0  0  0  0  0  0  0  0  0  0  0  0
    2.6642   -7.3794    4.1529 H   0  0  0  0  0  0  0  0  0  0  0  0
    3.5475   -5.9391    3.6857 H   0  0  0  0  0  0  0  0  0  0  0  0
    1.4146   -9.9580    1.2803 H   0  0  0  0  0  0  0  0  0  0  0  0
    4.7806  -11.2600    4.8011 H   0  0  0  0  0  0  0  0  0  0  0  0
    3.8560  -12.5232    3.9953 H   0  0  0  0  0  0  0  0  0  0  0  0
    3.1445  -11.6182    5.3250 H   0  0  0  0  0  0  0  0  0  0  0  0
    3.4168   -9.1386    0.7410 H   0  0  0  0  0  0  0  0  0  0  0  0
   -1.2068   -7.6614    2.8263 H   0  0  0  0  0  0  0  0  0  0  0  0
   -0.5196   -8.9071    3.8111 H   0  0  0  0  0  0  0  0  0  0  0  0
   -1.0265   -9.2799    2.1585 H   0  0  0  0  0  0  0  0  0  0  0  0
    2.5127   -4.7204    0.9820 H   0  0  0  0  0  0  0  0  0  0  0  0
    2.3071   -5.8076   -0.4221 H   0  0  0  0  0  0  0  0  0  0  0  0
    2.7175   -3.4593   -0.7753 H   0  0  0  0  0  0  0  0  0  0  0  0
    3.7481   -3.6878   -2.1795 H   0  0  0  0  0  0  0  0  0  0  0  0
    4.7225   -3.3701    0.5533 H   0  0  0  0  0  0  0  0  0  0  0  0
  1  2  1  0
  1 26  1  0
  1 27  1  0
  1 28  1  0
  2 25  1  0
  2  3  1  0
  2 29  1  1
  3  4  1  0
  3 30  1  0
  3 31  1  0
  4  5  1  0
  4 32  1  0
  4 33  1  0
  5  6  1  0
  5 25  1  0
  5 52  1  1
  6  7  1  0
  6 34  1  0
  6 35  1  0
  7 24  1  0
  7  8  2  0
  8  9  1  0
  8 36  1  0
  9 23  1  0
  9 10  1  1
  9 11  1  0
 10 37  1  0
 10 38  1  0
 10 39  1  0
 11 12  1  0
 11 44  1  6
 11 17  1  0
 12 13  1  0
 12 19  1  0
 12 40  1  6
 13 14  2  0
 13 15  1  0
 15 17  1  0
 15 16  1  0
 16 41  1  0
 16 42  1  0
 16 43  1  0
 17 18  2  0
 19 20  1  0
 19 21  1  0
 20 45  1  0
 20 46  1  0
 20 47  1  0
 21 22  2  0
 21 23  1  0
 23 24  1  0
 24 48  1  0
 24 49  1  0
 25 50  1  0
 25 51  1  0
M  CHG  1   5   1
M  END
>  <i_m_ct_stereo_status>  (241) 
1

>  <s_m_source_file>  (241) 
/var/tmp/pbs.5076255.sched01/tmp7rmqr72f/92ch8atech.sdf

>  <i_m_source_file_index>  (241) 
2

>  <i_lp_mmshare_version>  (241) 
48012

>  <i_f3d_flags>  (241) 
0

>  <s_epik_input>  (241) 
W0NIM11bQ0BASF0xW0NIMl1bQ0gyXU4oW0NIMl0xKVtDSDJdQyg9W0NIXTIpW0NIMl1OM0MoPU8pTihbQ0gzXSljKGM0W0NAQF0yM1tDSDNdKWMoW09IXSluKFtDSDNdKWM0W09IXQ==

>  <s_epik_cmdline>  (241) 
J2VwaWtfcHl0aG9uJywgJy1waHQnLCAnMi4wJywgJy1waCcsICc3LjAnLCAnLXRuJywgJzgnLCAnLW1hJywgJzIwMCcsICctaW1hZScsICc8aW5maWxlLm1hZT4nLCAnLW9tYWUnLCAnPG91dGZpbGUubWFlPic=

>  <r_lp_tautomer_probability>  (241) 
1

>  <r_epik_Ionization_Penalty>  (241) 
0.0174188

>  <r_epik_Ionization_Penalty_Charging>  (241) 
0.0174019

>  <r_epik_Ionization_Penalty_Neutral>  (241) 
1.69653e-05

>  <r_epik_State_Penalty>  (241) 
0.0137905

>  <r_epik_Charging_Adjusted_Penalty>  (241) 
0.0311924

>  <i_epik_Tot_Q>  (241) 
1

>  <i_epik_Tot_abs_Q>  (241) 
1

>  <s_lp_Force_Field>  (241) 
OPLS3e

>  <r_lp_Energy>  (241) 
21.9101

>  <b_lp_Chiralities_Consistent>  (241) 
1

>  <s_lp_Variant>  (241) 
63:0-4

>  <s_i_glide_gridfile>  (241) 
pfpi4k_grid

>  <i_i_glide_lignum>  (241) 
2

>  <i_i_glide_rotatable_bonds>  (241) 
2

>  <r_i_docking_score>  (241) 
-4.21182

>  <r_i_glide_ligand_efficiency>  (241) 
-0.168473

>  <r_i_glide_ligand_efficiency_sa>  (241) 
-0.492617

>  <r_i_glide_ligand_efficiency_ln>  (241) 
-0.998328

>  <r_i_glide_gscore>  (241) 
-4.21182

>  <r_i_glide_lipo>  (241) 
-0.288946

>  <r_i_glide_hbond>  (241) 
-0.22415

>  <r_i_glide_metal>  (241) 
-0

>  <r_i_glide_rewards>  (241) 
-1.11853

>  <r_i_glide_evdw>  (241) 
-28.9294

>  <r_i_glide_ecoul>  (241) 
-8.46997

>  <r_i_glide_erotb>  (241) 
0.315209

>  <r_i_glide_esite>  (241) 
-0.178435

>  <r_i_glide_emodel>  (241) 
-45.9103

>  <r_i_glide_energy>  (241) 
-37.3994

>  <r_i_glide_einternal>  (241) 
3.15256

>  <r_i_glide_intrahb_reward>  (241) 
-0

>  <i_i_glide_confnum>  (241) 
2

>  <i_i_glide_posenum>  (241) 
11

>  <r_i_glide_eff_state_penalty>  (241) 
0

>  <ligand_id>  (241) 
63

>  <original_smiles>  (241) 
CC1CCN(CC2=CC3(C)c4c(c(O)n(C)c4O)N(C)C(=O)N3C2)C1

>  <smiles>  (241) 
[H]C1=C(C([H])([H])[N+]2([H])C([H])([H])C([H])([H])C([H])(C([H])([H])[H])C2([H])[H])C([H])([H])N2C(=O)N(C([H])([H])[H])C3([H])C(=O)N(C([H])([H])[H])C(=O)C3([H])C12C([H])([H])[H]

$$$$
63:3:1
     RDKit          3D

 52 55  0  0  1  0  0  0  0  0999 V2000
    4.9556   -3.0949   -2.1932 C   0  0  0  0  0  0  0  0  0  0  0  0
    3.9596   -2.0860   -1.6223 C   0  0  2  0  0  0  0  0  0  0  0  0
    4.6526   -0.7951   -1.1908 C   0  0  0  0  0  0  0  0  0  0  0  0
    4.3186   -0.6398    0.2793 C   0  0  0  0  0  0  0  0  0  0  0  0
    3.0489   -1.3925    0.4837 N   0  0  2  0  0  0  0  0  0  0  0  0
    2.7005   -1.6854    1.8911 C   0  0  0  0  0  0  0  0  0  0  0  0
    2.2039   -0.4541    2.6552 C   0  0  0  0  0  0  0  0  0  0  0  0
    1.3229   -0.4242    3.6365 C   0  0  0  0  0  0  0  0  0  0  0  0
    1.1506    0.9830    4.1694 C   0  0  2  0  0  0  0  0  0  0  0  0
    1.7365    1.0836    5.6046 C   0  0  0  0  0  0  0  0  0  0  0  0
   -0.2863    1.5302    3.9682 C   0  0  2  0  0  0  0  0  0  0  0  0
   -0.3204    3.0911    3.9974 C   0  0  1  0  0  0  0  0  0  0  0  0
   -1.1038    3.3207    5.2858 C   0  0  0  0  0  0  0  0  0  0  0  0
   -1.2640    4.4580    5.7839 O   0  0  0  0  0  0  0  0  0  0  0  0
   -1.6219    2.1968    5.7890 N   0  0  0  0  0  0  0  0  0  0  0  0
   -2.5197    2.1396    6.9388 C   0  0  0  0  0  0  0  0  0  0  0  0
   -1.2463    1.1343    5.0766 C   0  0  0  0  0  0  0  0  0  0  0  0
   -1.6021   -0.0556    5.2828 O   0  0  0  0  0  0  0  0  0  0  0  0
    1.0151    3.7395    3.8960 N   0  0  0  0  0  0  0  0  0  0  0  0
    1.0934    5.1947    4.0997 C   0  0  0  0  0  0  0  0  0  0  0  0
    1.9907    3.1241    3.1788 C   0  0  0  0  0  0  0  0  0  0  0  0
    2.8240    3.7520    2.5120 O   0  0  0  0  0  0  0  0  0  0  0  0
    2.0083    1.7862    3.2918 N   0  0  0  0  0  0  0  0  0  0  0  0
    2.7460    0.9190    2.3886 C   0  0  0  0  0  0  0  0  0  0  0  0
    3.2286   -2.5909   -0.3637 C   0  0  0  0  0  0  0  0  0  0  0  0
    5.7084   -3.3585   -1.4488 H   0  0  0  0  0  0  0  0  0  0  0  0
    5.4789   -2.6791   -3.0529 H   0  0  0  0  0  0  0  0  0  0  0  0
    4.4541   -4.0117   -2.5050 H   0  0  0  0  0  0  0  0  0  0  0  0
    3.2063   -1.8333   -2.3748 H   0  0  0  0  0  0  0  0  0  0  0  0
    5.7307   -0.7780   -1.3377 H   0  0  0  0  0  0  0  0  0  0  0  0
    4.2316    0.0405   -1.7483 H   0  0  0  0  0  0  0  0  0  0  0  0
    5.0961   -1.1300    0.8786 H   0  0  0  0  0  0  0  0  0  0  0  0
    4.3528    0.4264    0.4995 H   0  0  0  0  0  0  0  0  0  0  0  0
    1.9103   -2.4420    1.9405 H   0  0  0  0  0  0  0  0  0  0  0  0
    3.5466   -2.1331    2.4219 H   0  0  0  0  0  0  0  0  0  0  0  0
    0.7951   -1.2701    4.0631 H   0  0  0  0  0  0  0  0  0  0  0  0
    1.2386    0.4124    6.3023 H   0  0  0  0  0  0  0  0  0  0  0  0
    1.6830    2.0972    6.0069 H   0  0  0  0  0  0  0  0  0  0  0  0
    2.7938    0.8112    5.5997 H   0  0  0  0  0  0  0  0  0  0  0  0
   -0.9243    3.4533    3.1654 H   0  0  0  0  0  0  0  0  0  0  0  0
   -2.4375    1.1914    7.4646 H   0  0  0  0  0  0  0  0  0  0  0  0
   -3.5500    2.2631    6.6207 H   0  0  0  0  0  0  0  0  0  0  0  0
   -2.3140    2.9308    7.6563 H   0  0  0  0  0  0  0  0  0  0  0  0
   -0.6732    1.1883    3.0065 H   0  0  0  0  0  0  0  0  0  0  0  0
    2.0892    5.6009    3.9066 H   0  0  0  0  0  0  0  0  0  0  0  0
    0.8845    5.4549    5.1325 H   0  0  0  0  0  0  0  0  0  0  0  0
    0.4016    5.7171    3.4396 H   0  0  0  0  0  0  0  0  0  0  0  0
    3.8084    0.9785    2.6047 H   0  0  0  0  0  0  0  0  0  0  0  0
    2.5042    1.2380    1.3774 H   0  0  0  0  0  0  0  0  0  0  0  0
    2.2915   -3.1087   -0.5910 H   0  0  0  0  0  0  0  0  0  0  0  0
    3.8691   -3.2929    0.1788 H   0  0  0  0  0  0  0  0  0  0  0  0
    2.2699   -0.9052    0.0389 H   0  0  0  0  0  0  0  0  0  0  0  0
  1  2  1  0
  1 26  1  0
  1 27  1  0
  1 28  1  0
  2 25  1  0
  2  3  1  0
  2 29  1  6
  3  4  1  0
  3 30  1  0
  3 31  1  0
  4  5  1  0
  4 32  1  0
  4 33  1  0
  5  6  1  0
  5 25  1  0
  5 52  1  6
  6  7  1  0
  6 34  1  0
  6 35  1  0
  7 24  1  0
  7  8  2  0
  8  9  1  0
  8 36  1  0
  9 23  1  0
  9 10  1  1
  9 11  1  0
 10 37  1  0
 10 38  1  0
 10 39  1  0
 11 12  1  0
 11 44  1  6
 11 17  1  0
 12 13  1  0
 12 19  1  0
 12 40  1  6
 13 14  2  0
 13 15  1  0
 15 17  1  0
 15 16  1  0
 16 41  1  0
 16 42  1  0
 16 43  1  0
 17 18  2  0
 19 20  1  0
 19 21  1  0
 20 45  1  0
 20 46  1  0
 20 47  1  0
 21 22  2  0
 21 23  1  0
 23 24  1  0
 24 48  1  0
 24 49  1  0
 25 50  1  0
 25 51  1  0
M  CHG  1   5   1
M  END
>  <i_m_ct_stereo_status>  (242) 
1

>  <s_m_source_file>  (242) 
/var/tmp/pbs.5076255.sched01/tmp7rmqr72f/92ch8atech.sdf

>  <i_m_source_file_index>  (242) 
2

>  <i_lp_mmshare_version>  (242) 
48012

>  <i_f3d_flags>  (242) 
0

>  <s_epik_input>  (242) 
W0NIM11bQ0BASF0xW0NIMl1bQ0gyXU4oW0NIMl0xKVtDSDJdQyg9W0NIXTIpW0NIMl1OM0MoPU8pTihbQ0gzXSljKGM0W0NAQF0yM1tDSDNdKWMoW09IXSluKFtDSDNdKWM0W09IXQ==

>  <s_epik_cmdline>  (242) 
J2VwaWtfcHl0aG9uJywgJy1waHQnLCAnMi4wJywgJy1waCcsICc3LjAnLCAnLXRuJywgJzgnLCAnLW1hJywgJzIwMCcsICctaW1hZScsICc8aW5maWxlLm1hZT4nLCAnLW9tYWUnLCAnPG91dGZpbGUubWFlPic=

>  <r_lp_tautomer_probability>  (242) 
1

>  <r_epik_Ionization_Penalty>  (242) 
0.0174188

>  <r_epik_Ionization_Penalty_Charging>  (242) 
0.0174019

>  <r_epik_Ionization_Penalty_Neutral>  (242) 
1.69653e-05

>  <r_epik_State_Penalty>  (242) 
0.0137905

>  <r_epik_Charging_Adjusted_Penalty>  (242) 
0.0311924

>  <i_epik_Tot_Q>  (242) 
1

>  <i_epik_Tot_abs_Q>  (242) 
1

>  <s_lp_Force_Field>  (242) 
OPLS3e

>  <r_lp_Energy>  (242) 
21.9101

>  <b_lp_Chiralities_Consistent>  (242) 
1

>  <s_lp_Variant>  (242) 
63:0-4

>  <s_i_glide_gridfile>  (242) 
pfpi4k_grid

>  <i_i_glide_lignum>  (242) 
2

>  <i_i_glide_rotatable_bonds>  (242) 
2

>  <r_i_docking_score>  (242) 
-3.54166

>  <r_i_glide_ligand_efficiency>  (242) 
-0.141666

>  <r_i_glide_ligand_efficiency_sa>  (242) 
-0.414235

>  <r_i_glide_ligand_efficiency_ln>  (242) 
-0.839479

>  <r_i_glide_gscore>  (242) 
-3.54166

>  <r_i_glide_lipo>  (242) 
-0.22445

>  <r_i_glide_hbond>  (242) 
-0.19664

>  <r_i_glide_metal>  (242) 
-0

>  <r_i_glide_rewards>  (242) 
-1.04024

>  <r_i_glide_evdw>  (242) 
-24.592

>  <r_i_glide_ecoul>  (242) 
-6.1724

>  <r_i_glide_erotb>  (242) 
0.315209

>  <r_i_glide_esite>  (242) 
-0.240079

>  <r_i_glide_emodel>  (242) 
-36.8193

>  <r_i_glide_energy>  (242) 
-30.7644

>  <r_i_glide_einternal>  (242) 
3.51051

>  <r_i_glide_intrahb_reward>  (242) 
-0

>  <i_i_glide_confnum>  (242) 
3

>  <i_i_glide_posenum>  (242) 
1

>  <r_i_glide_eff_state_penalty>  (242) 
0

>  <ligand_id>  (242) 
63

>  <original_smiles>  (242) 
CC1CCN(CC2=CC3(C)c4c(c(O)n(C)c4O)N(C)C(=O)N3C2)C1

>  <smiles>  (242) 
[H]C1=C(C([H])([H])[N+]2([H])C([H])([H])C([H])([H])C([H])(C([H])([H])[H])C2([H])[H])C([H])([H])N2C(=O)N(C([H])([H])[H])C3([H])C(=O)N(C([H])([H])[H])C(=O)C3([H])C12C([H])([H])[H]

$$$$
63:3:2
     RDKit          3D

 52 55  0  0  1  0  0  0  0  0999 V2000
    0.4858   -9.5093    2.4759 C   0  0  0  0  0  0  0  0  0  0  0  0
    1.9727   -9.6889    2.1560 C   0  0  2  0  0  0  0  0  0  0  0  0
    2.6098  -10.9091    2.8358 C   0  0  0  0  0  0  0  0  0  0  0  0
    3.7683  -10.3534    3.6653 C   0  0  0  0  0  0  0  0  0  0  0  0
    4.1136   -9.0713    3.0228 N   0  0  2  0  0  0  0  0  0  0  0  0
    4.9534   -8.1753    3.8658 C   0  0  0  0  0  0  0  0  0  0  0  0
    5.4016   -6.9375    3.1154 C   0  0  0  0  0  0  0  0  0  0  0  0
    4.6655   -5.8855    2.7658 C   0  0  0  0  0  0  0  0  0  0  0  0
    5.4820   -4.8412    2.0599 C   0  0  2  0  0  0  0  0  0  0  0  0
    5.5292   -3.5705    2.9499 C   0  0  0  0  0  0  0  0  0  0  0  0
    5.0441   -4.5912    0.5902 C   0  0  2  0  0  0  0  0  0  0  0  0
    6.1733   -3.9121   -0.2275 C   0  0  1  0  0  0  0  0  0  0  0  0
    5.5754   -2.5313   -0.5221 C   0  0  0  0  0  0  0  0  0  0  0  0
    6.1905   -1.6283   -1.0994 O   0  0  0  0  0  0  0  0  0  0  0  0
    4.2862   -2.4846   -0.1538 N   0  0  0  0  0  0  0  0  0  0  0  0
    3.4179   -1.3533   -0.4429 C   0  0  0  0  0  0  0  0  0  0  0  0
    3.8731   -3.6159    0.4405 C   0  0  0  0  0  0  0  0  0  0  0  0
    2.7286   -3.8809    0.8286 O   0  0  0  0  0  0  0  0  0  0  0  0
    7.5186   -3.9583    0.4196 N   0  0  0  0  0  0  0  0  0  0  0  0
    8.5971   -3.1730   -0.2079 C   0  0  0  0  0  0  0  0  0  0  0  0
    7.8442   -4.9900    1.2482 C   0  0  0  0  0  0  0  0  0  0  0  0
    8.9880   -5.4441    1.3365 O   0  0  0  0  0  0  0  0  0  0  0  0
    6.8151   -5.4622    1.9917 N   0  0  0  0  0  0  0  0  0  0  0  0
    6.8393   -6.7341    2.7222 C   0  0  0  0  0  0  0  0  0  0  0  0
    2.8131   -8.4990    2.6209 C   0  0  0  0  0  0  0  0  0  0  0  0
    0.3203   -9.3943    3.5481 H   0  0  0  0  0  0  0  0  0  0  0  0
   -0.0937  -10.3667    2.1446 H   0  0  0  0  0  0  0  0  0  0  0  0
    0.0754   -8.6276    1.9852 H   0  0  0  0  0  0  0  0  0  0  0  0
    2.1087   -9.7903    1.0776 H   0  0  0  0  0  0  0  0  0  0  0  0
    1.9120  -11.4792    3.4487 H   0  0  0  0  0  0  0  0  0  0  0  0
    3.0084  -11.5855    2.0932 H   0  0  0  0  0  0  0  0  0  0  0  0
    3.4086  -10.1610    4.6779 H   0  0  0  0  0  0  0  0  0  0  0  0
    4.6134  -11.0414    3.7292 H   0  0  0  0  0  0  0  0  0  0  0  0
    4.4356   -7.8750    4.7821 H   0  0  0  0  0  0  0  0  0  0  0  0
    5.8465   -8.7065    4.1979 H   0  0  0  0  0  0  0  0  0  0  0  0
    3.6122   -5.7516    2.9540 H   0  0  0  0  0  0  0  0  0  0  0  0
    4.5415   -3.1421    3.1302 H   0  0  0  0  0  0  0  0  0  0  0  0
    6.1598   -2.7874    2.5260 H   0  0  0  0  0  0  0  0  0  0  0  0
    5.9194   -3.8290    3.9310 H   0  0  0  0  0  0  0  0  0  0  0  0
    6.2190   -4.3940   -1.1904 H   0  0  0  0  0  0  0  0  0  0  0  0
    2.6207   -1.2738    0.2957 H   0  0  0  0  0  0  0  0  0  0  0  0
    2.9556   -1.4787   -1.4208 H   0  0  0  0  0  0  0  0  0  0  0  0
    3.9518   -0.4064   -0.4469 H   0  0  0  0  0  0  0  0  0  0  0  0
    4.7752   -5.5382    0.1190 H   0  0  0  0  0  0  0  0  0  0  0  0
    9.5588   -3.3043    0.2879 H   0  0  0  0  0  0  0  0  0  0  0  0
    8.4039   -2.1067   -0.1407 H   0  0  0  0  0  0  0  0  0  0  0  0
    8.7237   -3.4480   -1.2543 H   0  0  0  0  0  0  0  0  0  0  0  0
    7.4734   -6.6640    3.6051 H   0  0  0  0  0  0  0  0  0  0  0  0
    7.1811   -7.5515    2.0907 H   0  0  0  0  0  0  0  0  0  0  0  0
    2.8859   -7.7355    1.8419 H   0  0  0  0  0  0  0  0  0  0  0  0
    2.3556   -8.0420    3.5028 H   0  0  0  0  0  0  0  0  0  0  0  0
    4.6033   -9.3073    2.1712 H   0  0  0  0  0  0  0  0  0  0  0  0
  1  2  1  0
  1 26  1  0
  1 27  1  0
  1 28  1  0
  2 25  1  0
  2  3  1  0
  2 29  1  6
  3  4  1  0
  3 30  1  0
  3 31  1  0
  4  5  1  0
  4 32  1  0
  4 33  1  0
  5  6  1  0
  5 25  1  0
  5 52  1  6
  6  7  1  0
  6 34  1  0
  6 35  1  0
  7 24  1  0
  7  8  2  0
  8  9  1  0
  8 36  1  0
  9 23  1  0
  9 10  1  1
  9 11  1  0
 10 37  1  0
 10 38  1  0
 10 39  1  0
 11 12  1  0
 11 44  1  6
 11 17  1  0
 12 13  1  0
 12 19  1  0
 12 40  1  6
 13 14  2  0
 13 15  1  0
 15 17  1  0
 15 16  1  0
 16 41  1  0
 16 42  1  0
 16 43  1  0
 17 18  2  0
 19 20  1  0
 19 21  1  0
 20 45  1  0
 20 46  1  0
 20 47  1  0
 21 22  2  0
 21 23  1  0
 23 24  1  0
 24 48  1  0
 24 49  1  0
 25 50  1  0
 25 51  1  0
M  CHG  1   5   1
M  END
>  <i_m_ct_stereo_status>  (243) 
1

>  <s_m_source_file>  (243) 
/var/tmp/pbs.5076255.sched01/tmp7rmqr72f/92ch8atech.sdf

>  <i_m_source_file_index>  (243) 
2

>  <i_lp_mmshare_version>  (243) 
48012

>  <i_f3d_flags>  (243) 
0

>  <s_epik_input>  (243) 
W0NIM11bQ0BASF0xW0NIMl1bQ0gyXU4oW0NIMl0xKVtDSDJdQyg9W0NIXTIpW0NIMl1OM0MoPU8pTihbQ0gzXSljKGM0W0NAQF0yM1tDSDNdKWMoW09IXSluKFtDSDNdKWM0W09IXQ==

>  <s_epik_cmdline>  (243) 
J2VwaWtfcHl0aG9uJywgJy1waHQnLCAnMi4wJywgJy1waCcsICc3LjAnLCAnLXRuJywgJzgnLCAnLW1hJywgJzIwMCcsICctaW1hZScsICc8aW5maWxlLm1hZT4nLCAnLW9tYWUnLCAnPG91dGZpbGUubWFlPic=

>  <r_lp_tautomer_probability>  (243) 
1

>  <r_epik_Ionization_Penalty>  (243) 
0.0174188

>  <r_epik_Ionization_Penalty_Charging>  (243) 
0.0174019

>  <r_epik_Ionization_Penalty_Neutral>  (243) 
1.69653e-05

>  <r_epik_State_Penalty>  (243) 
0.0137905

>  <r_epik_Charging_Adjusted_Penalty>  (243) 
0.0311924

>  <i_epik_Tot_Q>  (243) 
1

>  <i_epik_Tot_abs_Q>  (243) 
1

>  <s_lp_Force_Field>  (243) 
OPLS3e

>  <r_lp_Energy>  (243) 
21.9101

>  <b_lp_Chiralities_Consistent>  (243) 
1

>  <s_lp_Variant>  (243) 
63:0-4

>  <s_i_glide_gridfile>  (243) 
pfpi4k_grid

>  <i_i_glide_lignum>  (243) 
2

>  <i_i_glide_rotatable_bonds>  (243) 
2

>  <r_i_docking_score>  (243) 
-3.49555

>  <r_i_glide_ligand_efficiency>  (243) 
-0.139822

>  <r_i_glide_ligand_efficiency_sa>  (243) 
-0.408842

>  <r_i_glide_ligand_efficiency_ln>  (243) 
-0.828549

>  <r_i_glide_gscore>  (243) 
-3.49555

>  <r_i_glide_lipo>  (243) 
-0.302304

>  <r_i_glide_hbond>  (243) 
-0.129857

>  <r_i_glide_metal>  (243) 
-0

>  <r_i_glide_rewards>  (243) 
-1.52387

>  <r_i_glide_evdw>  (243) 
-22.9718

>  <r_i_glide_ecoul>  (243) 
-4.50304

>  <r_i_glide_erotb>  (243) 
0.315209

>  <r_i_glide_esite>  (243) 
-0.0306749

>  <r_i_glide_emodel>  (243) 
-34.1709

>  <r_i_glide_energy>  (243) 
-27.4749

>  <r_i_glide_einternal>  (243) 
3.24167

>  <r_i_glide_intrahb_reward>  (243) 
-0

>  <i_i_glide_confnum>  (243) 
1

>  <i_i_glide_posenum>  (243) 
2

>  <r_i_glide_eff_state_penalty>  (243) 
0

>  <ligand_id>  (243) 
63

>  <original_smiles>  (243) 
CC1CCN(CC2=CC3(C)c4c(c(O)n(C)c4O)N(C)C(=O)N3C2)C1

>  <smiles>  (243) 
[H]C1=C(C([H])([H])[N+]2([H])C([H])([H])C([H])([H])C([H])(C([H])([H])[H])C2([H])[H])C([H])([H])N2C(=O)N(C([H])([H])[H])C3([H])C(=O)N(C([H])([H])[H])C(=O)C3([H])C12C([H])([H])[H]

$$$$
63:4:0
     RDKit          3D

 51 54  0  0  1  0  0  0  0  0999 V2000
    0.3489  -10.0247    2.4820 C   0  0  0  0  0  0  0  0  0  0  0  0
    1.8235   -9.9452    2.9089 C   0  0  2  0  0  0  0  0  0  0  0  0
    2.0553   -8.8713    3.9753 C   0  0  0  0  0  0  0  0  0  0  0  0
    3.0631   -7.9093    3.3472 C   0  0  0  0  0  0  0  0  0  0  0  0
    2.8623   -8.0787    1.9129 N   0  0  0  0  0  0  0  0  0  0  0  0
    3.9679   -7.5295    1.1246 C   0  0  0  0  0  0  0  0  0  0  0  0
    4.0724   -6.0107    1.1655 C   0  0  0  0  0  0  0  0  0  0  0  0
    3.1283   -5.1102    1.4309 C   0  0  0  0  0  0  0  0  0  0  0  0
    3.6433   -3.6919    1.3297 C   0  0  2  0  0  0  0  0  0  0  0  0
    3.6151   -3.0553    2.7394 C   0  0  0  0  0  0  0  0  0  0  0  0
    2.9167   -2.7653    0.3045 C   0  0  1  0  0  0  0  0  0  0  0  0
    3.8571   -1.6267   -0.2006 C   0  0  2  0  0  0  0  0  0  0  0  0
    3.8294   -1.8142   -1.7266 C   0  0  0  0  0  0  0  0  0  0  0  0
    4.4642   -1.0843   -2.5000 O   0  0  0  0  0  0  0  0  0  0  0  0
    3.0514   -2.8389   -2.0801 N   0  0  0  0  0  0  0  0  0  0  0  0
    2.7292   -3.1893   -3.4723 C   0  0  0  0  0  0  0  0  0  0  0  0
    2.4853   -3.4281   -1.0221 C   0  0  0  0  0  0  0  0  0  0  0  0
    1.6215   -4.3050   -1.0794 O   0  0  0  0  0  0  0  0  0  0  0  0
    5.2486   -1.7263    0.3024 N   0  0  0  0  0  0  0  0  0  0  0  0
    5.9932   -0.4795    0.3081 C   0  0  0  0  0  0  0  0  0  0  0  0
    5.8742   -2.9100    0.5280 C   0  0  0  0  0  0  0  0  0  0  0  0
    7.0898   -3.0619    0.4553 O   0  0  0  0  0  0  0  0  0  0  0  0
    5.0310   -3.9054    0.8728 N   0  0  0  0  0  0  0  0  0  0  0  0
    5.3730   -5.3282    0.8364 C   0  0  0  0  0  0  0  0  0  0  0  0
    2.7461   -9.5251    1.7563 C   0  0  0  0  0  0  0  0  0  0  0  0
    0.0220   -9.0666    2.0788 H   0  0  0  0  0  0  0  0  0  0  0  0
   -0.3011  -10.2678    3.3226 H   0  0  0  0  0  0  0  0  0  0  0  0
    0.1886  -10.7776    1.7113 H   0  0  0  0  0  0  0  0  0  0  0  0
    2.1369  -10.9215    3.2851 H   0  0  0  0  0  0  0  0  0  0  0  0
    1.1304   -8.3440    4.2104 H   0  0  0  0  0  0  0  0  0  0  0  0
    2.4287   -9.2957    4.9082 H   0  0  0  0  0  0  0  0  0  0  0  0
    2.9012   -6.8814    3.6696 H   0  0  0  0  0  0  0  0  0  0  0  0
    4.0768   -8.2066    3.6232 H   0  0  0  0  0  0  0  0  0  0  0  0
    4.9110   -7.9638    1.4616 H   0  0  0  0  0  0  0  0  0  0  0  0
    3.8514   -7.8127    0.0795 H   0  0  0  0  0  0  0  0  0  0  0  0
    2.1063   -5.3470    1.6858 H   0  0  0  0  0  0  0  0  0  0  0  0
    2.5931   -2.9942    3.1233 H   0  0  0  0  0  0  0  0  0  0  0  0
    4.0239   -2.0429    2.7432 H   0  0  0  0  0  0  0  0  0  0  0  0
    4.1957   -3.6490    3.4477 H   0  0  0  0  0  0  0  0  0  0  0  0
    3.4390   -0.6450    0.0511 H   0  0  0  0  0  0  0  0  0  0  0  0
    2.4842   -4.2428   -3.5852 H   0  0  0  0  0  0  0  0  0  0  0  0
    3.5571   -2.9782   -4.1507 H   0  0  0  0  0  0  0  0  0  0  0  0
    1.8553   -2.6407   -3.8257 H   0  0  0  0  0  0  0  0  0  0  0  0
    2.0185   -2.3374    0.7602 H   0  0  0  0  0  0  0  0  0  0  0  0
    6.9403   -0.5713    0.8343 H   0  0  0  0  0  0  0  0  0  0  0  0
    5.4235    0.3149    0.7903 H   0  0  0  0  0  0  0  0  0  0  0  0
    6.2099   -0.1923   -0.7146 H   0  0  0  0  0  0  0  0  0  0  0  0
    6.1377   -5.5793    1.5734 H   0  0  0  0  0  0  0  0  0  0  0  0
    5.7105   -5.6200   -0.1574 H   0  0  0  0  0  0  0  0  0  0  0  0
    3.7213  -10.0048    1.8742 H   0  0  0  0  0  0  0  0  0  0  0  0
    2.3592   -9.8135    0.7787 H   0  0  0  0  0  0  0  0  0  0  0  0
  1  2  1  0
  1 26  1  0
  1 27  1  0
  1 28  1  0
  2 25  1  0
  2  3  1  0
  2 29  1  1
  3  4  1  0
  3 30  1  0
  3 31  1  0
  4  5  1  0
  4 32  1  0
  4 33  1  0
  5  6  1  0
  5 25  1  0
  6  7  1  0
  6 34  1  0
  6 35  1  0
  7 24  1  0
  7  8  2  0
  8  9  1  0
  8 36  1  0
  9 23  1  0
  9 10  1  1
  9 11  1  0
 10 37  1  0
 10 38  1  0
 10 39  1  0
 11 12  1  0
 11 44  1  1
 11 17  1  0
 12 13  1  0
 12 19  1  0
 12 40  1  6
 13 14  2  0
 13 15  1  0
 15 17  1  0
 15 16  1  0
 16 41  1  0
 16 42  1  0
 16 43  1  0
 17 18  2  0
 19 20  1  0
 19 21  1  0
 20 45  1  0
 20 46  1  0
 20 47  1  0
 21 22  2  0
 21 23  1  0
 23 24  1  0
 24 48  1  0
 24 49  1  0
 25 50  1  0
 25 51  1  0
M  END
>  <i_m_ct_stereo_status>  (244) 
1

>  <s_m_source_file>  (244) 
/var/tmp/pbs.5076255.sched01/tmp7rmqr72f/92ch8atech.sdf

>  <i_m_source_file_index>  (244) 
3

>  <i_lp_mmshare_version>  (244) 
48012

>  <i_f3d_flags>  (244) 
0

>  <s_epik_input>  (244) 
W0NIM11bQ0BASF0xW0NIMl1bQ0gyXU4oW0NIMl0xKVtDSDJdQyg9W0NIXTIpW0NIMl1OM0MoPU8pTihbQ0gzXSljKGM0W0NAQF0yM1tDSDNdKWMoW09IXSluKFtDSDNdKWM0W09IXQ==

>  <s_epik_cmdline>  (244) 
J2VwaWtfcHl0aG9uJywgJy1waHQnLCAnMi4wJywgJy1waCcsICc3LjAnLCAnLXRuJywgJzgnLCAnLW1hJywgJzIwMCcsICctaW1hZScsICc8aW5maWxlLm1hZT4nLCAnLW9tYWUnLCAnPG91dGZpbGUubWFlPic=

>  <r_lp_tautomer_probability>  (244) 
1

>  <r_epik_Ionization_Penalty>  (244) 
2.09885

>  <r_epik_Ionization_Penalty_Charging>  (244) 
0

>  <r_epik_Ionization_Penalty_Neutral>  (244) 
2.09885

>  <r_epik_State_Penalty>  (244) 
2.23483

>  <r_epik_Charging_Adjusted_Penalty>  (244) 
2.23483

>  <i_epik_Tot_Q>  (244) 
0

>  <i_epik_Tot_abs_Q>  (244) 
0

>  <s_lp_Force_Field>  (244) 
OPLS3e

>  <r_lp_Energy>  (244) 
6.76575

>  <b_lp_Chiralities_Consistent>  (244) 
1

>  <s_lp_Variant>  (244) 
63:0-5

>  <s_i_glide_gridfile>  (244) 
pfpi4k_grid

>  <i_i_glide_lignum>  (244) 
3

>  <i_i_glide_rotatable_bonds>  (244) 
2

>  <r_i_docking_score>  (244) 
-3.57734

>  <r_i_glide_ligand_efficiency>  (244) 
-0.143094

>  <r_i_glide_ligand_efficiency_sa>  (244) 
-0.418409

>  <r_i_glide_ligand_efficiency_ln>  (244) 
-0.847938

>  <r_i_glide_gscore>  (244) 
-3.57734

>  <r_i_glide_lipo>  (244) 
-0.736171

>  <r_i_glide_hbond>  (244) 
-0.000481034

>  <r_i_glide_metal>  (244) 
-0

>  <r_i_glide_rewards>  (244) 
-1.24318

>  <r_i_glide_evdw>  (244) 
-27.1861

>  <r_i_glide_ecoul>  (244) 
-3.13338

>  <r_i_glide_erotb>  (244) 
0.31684

>  <r_i_glide_esite>  (244) 
-0.0850353

>  <r_i_glide_emodel>  (244) 
-35.7529

>  <r_i_glide_energy>  (244) 
-30.3195

>  <r_i_glide_einternal>  (244) 
3.02348

>  <r_i_glide_intrahb_reward>  (244) 
-0

>  <i_i_glide_confnum>  (244) 
4

>  <i_i_glide_posenum>  (244) 
33

>  <r_i_glide_eff_state_penalty>  (244) 
0

>  <ligand_id>  (244) 
63

>  <original_smiles>  (244) 
CC1CCN(CC2=CC3(C)c4c(c(O)n(C)c4O)N(C)C(=O)N3C2)C1

>  <smiles>  (244) 
[H]C1=C(C([H])([H])N2C([H])([H])C([H])([H])C([H])(C([H])([H])[H])C2([H])[H])C([H])([H])N2C(=O)N(C([H])([H])[H])C3([H])C(=O)N(C([H])([H])[H])C(=O)C3([H])C12C([H])([H])[H]

$$$$
63:4:1
     RDKit          3D

 51 54  0  0  1  0  0  0  0  0999 V2000
    4.8808  -10.8895    3.9743 C   0  0  0  0  0  0  0  0  0  0  0  0
    5.5332  -10.4483    2.6569 C   0  0  2  0  0  0  0  0  0  0  0  0
    6.5511   -9.3369    2.8824 C   0  0  0  0  0  0  0  0  0  0  0  0
    6.0301   -8.1706    2.0752 C   0  0  0  0  0  0  0  0  0  0  0  0
    4.6003   -8.3989    1.9444 N   0  0  0  0  0  0  0  0  0  0  0  0
    3.9317   -7.6004    0.9144 C   0  0  0  0  0  0  0  0  0  0  0  0
    4.1103   -6.0933    1.0729 C   0  0  0  0  0  0  0  0  0  0  0  0
    3.1549   -5.2005    1.3433 C   0  0  0  0  0  0  0  0  0  0  0  0
    3.6942   -3.7855    1.3560 C   0  0  2  0  0  0  0  0  0  0  0  0
    3.6364   -3.2537    2.8143 C   0  0  0  0  0  0  0  0  0  0  0  0
    3.0268   -2.7595    0.3885 C   0  0  1  0  0  0  0  0  0  0  0  0
    4.0259   -1.6164   -0.0019 C   0  0  2  0  0  0  0  0  0  0  0  0
    4.0434   -1.7068   -1.5354 C   0  0  0  0  0  0  0  0  0  0  0  0
    4.7480   -0.9726   -2.2351 O   0  0  0  0  0  0  0  0  0  0  0  0
    3.2460   -2.6783   -1.9909 N   0  0  0  0  0  0  0  0  0  0  0  0
    3.0011   -2.9424   -3.4084 C   0  0  0  0  0  0  0  0  0  0  0  0
    2.6237   -3.3155   -0.9915 C   0  0  0  0  0  0  0  0  0  0  0  0
    1.7699   -4.1998   -1.1156 O   0  0  0  0  0  0  0  0  0  0  0  0
    5.3988   -1.7892    0.5339 N   0  0  0  0  0  0  0  0  0  0  0  0
    6.1775   -0.5630    0.6644 C   0  0  0  0  0  0  0  0  0  0  0  0
    5.9720   -2.9994    0.6995 C   0  0  0  0  0  0  0  0  0  0  0  0
    7.1899   -3.1862    0.6815 O   0  0  0  0  0  0  0  0  0  0  0  0
    5.0847   -3.9872    0.9125 N   0  0  0  0  0  0  0  0  0  0  0  0
    5.4204   -5.3954    0.7973 C   0  0  0  0  0  0  0  0  0  0  0  0
    4.5116   -9.8334    1.6869 C   0  0  0  0  0  0  0  0  0  0  0  0
    4.3673  -10.0495    4.4469 H   0  0  0  0  0  0  0  0  0  0  0  0
    5.6268  -11.2587    4.6784 H   0  0  0  0  0  0  0  0  0  0  0  0
    4.1464  -11.6776    3.8067 H   0  0  0  0  0  0  0  0  0  0  0  0
    6.0171  -11.3050    2.1837 H   0  0  0  0  0  0  0  0  0  0  0  0
    6.5879   -9.0358    3.9294 H   0  0  0  0  0  0  0  0  0  0  0  0
    7.5619   -9.6061    2.5855 H   0  0  0  0  0  0  0  0  0  0  0  0
    6.2454   -7.2739    2.6406 H   0  0  0  0  0  0  0  0  0  0  0  0
    6.4975   -8.1416    1.0887 H   0  0  0  0  0  0  0  0  0  0  0  0
    4.2992   -7.8839   -0.0739 H   0  0  0  0  0  0  0  0  0  0  0  0
    2.8689   -7.8511    0.9255 H   0  0  0  0  0  0  0  0  0  0  0  0
    2.1219   -5.4318    1.5512 H   0  0  0  0  0  0  0  0  0  0  0  0
    2.6027   -3.1911    3.1693 H   0  0  0  0  0  0  0  0  0  0  0  0
    4.0682   -2.2561    2.9127 H   0  0  0  0  0  0  0  0  0  0  0  0
    4.1711   -3.9115    3.5026 H   0  0  0  0  0  0  0  0  0  0  0  0
    3.6249   -0.6497    0.2937 H   0  0  0  0  0  0  0  0  0  0  0  0
    2.7528   -3.9857   -3.5896 H   0  0  0  0  0  0  0  0  0  0  0  0
    3.8664   -2.7065   -4.0250 H   0  0  0  0  0  0  0  0  0  0  0  0
    2.1624   -2.3488   -3.7695 H   0  0  0  0  0  0  0  0  0  0  0  0
    2.1298   -2.3355    0.8442 H   0  0  0  0  0  0  0  0  0  0  0  0
    7.0979   -0.7134    1.2327 H   0  0  0  0  0  0  0  0  0  0  0  0
    5.5980    0.1939    1.1871 H   0  0  0  0  0  0  0  0  0  0  0  0
    6.4388   -0.1821   -0.3167 H   0  0  0  0  0  0  0  0  0  0  0  0
    6.2037   -5.5811    1.5228 H   0  0  0  0  0  0  0  0  0  0  0  0
    5.7738   -5.6349   -0.2082 H   0  0  0  0  0  0  0  0  0  0  0  0
    4.8266  -10.0303    0.6599 H   0  0  0  0  0  0  0  0  0  0  0  0
    3.5011  -10.2345    1.8159 H   0  0  0  0  0  0  0  0  0  0  0  0
  1  2  1  0
  1 26  1  0
  1 27  1  0
  1 28  1  0
  2 25  1  0
  2  3  1  0
  2 29  1  6
  3  4  1  0
  3 30  1  0
  3 31  1  0
  4  5  1  0
  4 32  1  0
  4 33  1  0
  5  6  1  0
  5 25  1  0
  6  7  1  0
  6 34  1  0
  6 35  1  0
  7 24  1  0
  7  8  2  0
  8  9  1  0
  8 36  1  0
  9 23  1  0
  9 10  1  1
  9 11  1  0
 10 37  1  0
 10 38  1  0
 10 39  1  0
 11 12  1  0
 11 44  1  1
 11 17  1  0
 12 13  1  0
 12 19  1  0
 12 40  1  6
 13 14  2  0
 13 15  1  0
 15 17  1  0
 15 16  1  0
 16 41  1  0
 16 42  1  0
 16 43  1  0
 17 18  2  0
 19 20  1  0
 19 21  1  0
 20 45  1  0
 20 46  1  0
 20 47  1  0
 21 22  2  0
 21 23  1  0
 23 24  1  0
 24 48  1  0
 24 49  1  0
 25 50  1  0
 25 51  1  0
M  END
>  <i_m_ct_stereo_status>  (245) 
1

>  <s_m_source_file>  (245) 
/var/tmp/pbs.5076255.sched01/tmp7rmqr72f/92ch8atech.sdf

>  <i_m_source_file_index>  (245) 
3

>  <i_lp_mmshare_version>  (245) 
48012

>  <i_f3d_flags>  (245) 
0

>  <s_epik_input>  (245) 
W0NIM11bQ0BASF0xW0NIMl1bQ0gyXU4oW0NIMl0xKVtDSDJdQyg9W0NIXTIpW0NIMl1OM0MoPU8pTihbQ0gzXSljKGM0W0NAQF0yM1tDSDNdKWMoW09IXSluKFtDSDNdKWM0W09IXQ==

>  <s_epik_cmdline>  (245) 
J2VwaWtfcHl0aG9uJywgJy1waHQnLCAnMi4wJywgJy1waCcsICc3LjAnLCAnLXRuJywgJzgnLCAnLW1hJywgJzIwMCcsICctaW1hZScsICc8aW5maWxlLm1hZT4nLCAnLW9tYWUnLCAnPG91dGZpbGUubWFlPic=

>  <r_lp_tautomer_probability>  (245) 
1

>  <r_epik_Ionization_Penalty>  (245) 
2.09885

>  <r_epik_Ionization_Penalty_Charging>  (245) 
0

>  <r_epik_Ionization_Penalty_Neutral>  (245) 
2.09885

>  <r_epik_State_Penalty>  (245) 
2.23483

>  <r_epik_Charging_Adjusted_Penalty>  (245) 
2.23483

>  <i_epik_Tot_Q>  (245) 
0

>  <i_epik_Tot_abs_Q>  (245) 
0

>  <s_lp_Force_Field>  (245) 
OPLS3e

>  <r_lp_Energy>  (245) 
6.76575

>  <b_lp_Chiralities_Consistent>  (245) 
1

>  <s_lp_Variant>  (245) 
63:0-5

>  <s_i_glide_gridfile>  (245) 
pfpi4k_grid

>  <i_i_glide_lignum>  (245) 
3

>  <i_i_glide_rotatable_bonds>  (245) 
2

>  <r_i_docking_score>  (245) 
-3.30632

>  <r_i_glide_ligand_efficiency>  (245) 
-0.132253

>  <r_i_glide_ligand_efficiency_sa>  (245) 
-0.386709

>  <r_i_glide_ligand_efficiency_ln>  (245) 
-0.783696

>  <r_i_glide_gscore>  (245) 
-3.30632

>  <r_i_glide_lipo>  (245) 
-0.58517

>  <r_i_glide_hbond>  (245) 
0

>  <r_i_glide_metal>  (245) 
-0

>  <r_i_glide_rewards>  (245) 
-1.28724

>  <r_i_glide_evdw>  (245) 
-26.9355

>  <r_i_glide_ecoul>  (245) 
-2.17253

>  <r_i_glide_erotb>  (245) 
0.31684

>  <r_i_glide_esite>  (245) 
-0.0780967

>  <r_i_glide_emodel>  (245) 
-35.0111

>  <r_i_glide_energy>  (245) 
-29.108

>  <r_i_glide_einternal>  (245) 
0.406372

>  <r_i_glide_intrahb_reward>  (245) 
-0

>  <i_i_glide_confnum>  (245) 
4

>  <i_i_glide_posenum>  (245) 
7

>  <r_i_glide_eff_state_penalty>  (245) 
0

>  <ligand_id>  (245) 
63

>  <original_smiles>  (245) 
CC1CCN(CC2=CC3(C)c4c(c(O)n(C)c4O)N(C)C(=O)N3C2)C1

>  <smiles>  (245) 
[H]C1=C(C([H])([H])N2C([H])([H])C([H])([H])C([H])(C([H])([H])[H])C2([H])[H])C([H])([H])N2C(=O)N(C([H])([H])[H])C3([H])C(=O)N(C([H])([H])[H])C(=O)C3([H])C12C([H])([H])[H]

$$$$
63:4:2
     RDKit          3D

 51 54  0  0  1  0  0  0  0  0999 V2000
    3.3859   -1.6818   -2.1829 C   0  0  0  0  0  0  0  0  0  0  0  0
    4.7359   -2.1962   -1.6653 C   0  0  2  0  0  0  0  0  0  0  0  0
    5.0523   -3.5990   -2.1848 C   0  0  0  0  0  0  0  0  0  0  0  0
    5.2086   -4.4502   -0.9322 C   0  0  0  0  0  0  0  0  0  0  0  0
    4.3982   -3.7584    0.0653 N   0  0  0  0  0  0  0  0  0  0  0  0
    4.6537   -4.1917    1.4419 C   0  0  0  0  0  0  0  0  0  0  0  0
    4.3351   -5.6566    1.7232 C   0  0  0  0  0  0  0  0  0  0  0  0
    3.7102   -6.5454    0.9474 C   0  0  0  0  0  0  0  0  0  0  0  0
    3.5833   -7.8955    1.6052 C   0  0  2  0  0  0  0  0  0  0  0  0
    4.4746   -8.9106    0.8436 C   0  0  0  0  0  0  0  0  0  0  0  0
    2.1286   -8.4423    1.7431 C   0  0  1  0  0  0  0  0  0  0  0  0
    2.0118   -9.4266    2.9479 C   0  0  2  0  0  0  0  0  0  0  0  0
    0.8839   -8.7982    3.7728 C   0  0  0  0  0  0  0  0  0  0  0  0
    0.5024   -9.2571    4.8516 O   0  0  0  0  0  0  0  0  0  0  0  0
    0.4035   -7.6909    3.1951 N   0  0  0  0  0  0  0  0  0  0  0  0
   -0.7029   -6.9062    3.7425 C   0  0  0  0  0  0  0  0  0  0  0  0
    1.0327   -7.3986    2.0498 C   0  0  0  0  0  0  0  0  0  0  0  0
    0.7553   -6.4449    1.3048 O   0  0  0  0  0  0  0  0  0  0  0  0
    3.2458   -9.5536    3.7669 N   0  0  0  0  0  0  0  0  0  0  0  0
    3.3554  -10.7961    4.5367 C   0  0  0  0  0  0  0  0  0  0  0  0
    4.1154   -8.5273    3.9575 C   0  0  0  0  0  0  0  0  0  0  0  0
    4.8435   -8.4213    4.9462 O   0  0  0  0  0  0  0  0  0  0  0  0
    4.1298   -7.6318    2.9489 N   0  0  0  0  0  0  0  0  0  0  0  0
    4.6987   -6.2825    3.0421 C   0  0  0  0  0  0  0  0  0  0  0  0
    4.7403   -2.3529   -0.1390 C   0  0  0  0  0  0  0  0  0  0  0  0
    2.5796   -2.3459   -1.8700 H   0  0  0  0  0  0  0  0  0  0  0  0
    3.3635   -1.6293   -3.2710 H   0  0  0  0  0  0  0  0  0  0  0  0
    3.1564   -0.6903   -1.7952 H   0  0  0  0  0  0  0  0  0  0  0  0
    5.5191   -1.5010   -1.9685 H   0  0  0  0  0  0  0  0  0  0  0  0
    4.2307   -3.9860   -2.7913 H   0  0  0  0  0  0  0  0  0  0  0  0
    5.9526   -3.6312   -2.7980 H   0  0  0  0  0  0  0  0  0  0  0  0
    4.8850   -5.4683   -1.1364 H   0  0  0  0  0  0  0  0  0  0  0  0
    6.2496   -4.4715   -0.6065 H   0  0  0  0  0  0  0  0  0  0  0  0
    5.7010   -4.0104    1.6965 H   0  0  0  0  0  0  0  0  0  0  0  0
    4.0576   -3.5811    2.1238 H   0  0  0  0  0  0  0  0  0  0  0  0
    3.3128   -6.3550   -0.0341 H   0  0  0  0  0  0  0  0  0  0  0  0
    4.1486   -9.0352   -0.1898 H   0  0  0  0  0  0  0  0  0  0  0  0
    4.4529   -9.8992    1.3024 H   0  0  0  0  0  0  0  0  0  0  0  0
    5.5148   -8.5853    0.8164 H   0  0  0  0  0  0  0  0  0  0  0  0
    1.6906  -10.4100    2.6030 H   0  0  0  0  0  0  0  0  0  0  0  0
   -0.5826   -5.8558    3.5039 H   0  0  0  0  0  0  0  0  0  0  0  0
   -0.7640   -6.9677    4.8312 H   0  0  0  0  0  0  0  0  0  0  0  0
   -1.6553   -7.2538    3.3356 H   0  0  0  0  0  0  0  0  0  0  0  0
    1.8273   -8.9581    0.8333 H   0  0  0  0  0  0  0  0  0  0  0  0
    4.3486  -10.9309    4.9643 H   0  0  0  0  0  0  0  0  0  0  0  0
    3.1690  -11.6584    3.8985 H   0  0  0  0  0  0  0  0  0  0  0  0
    2.6370  -10.8167    5.3552 H   0  0  0  0  0  0  0  0  0  0  0  0
    5.7810   -6.3026    3.1853 H   0  0  0  0  0  0  0  0  0  0  0  0
    4.2387   -5.7297    3.8623 H   0  0  0  0  0  0  0  0  0  0  0  0
    5.7432   -2.1510    0.2457 H   0  0  0  0  0  0  0  0  0  0  0  0
    4.0515   -1.6699    0.3627 H   0  0  0  0  0  0  0  0  0  0  0  0
  1  2  1  0
  1 26  1  0
  1 27  1  0
  1 28  1  0
  2 25  1  0
  2  3  1  0
  2 29  1  1
  3  4  1  0
  3 30  1  0
  3 31  1  0
  4  5  1  0
  4 32  1  0
  4 33  1  0
  5  6  1  0
  5 25  1  0
  6  7  1  0
  6 34  1  0
  6 35  1  0
  7 24  1  0
  7  8  2  0
  8  9  1  0
  8 36  1  0
  9 23  1  0
  9 10  1  6
  9 11  1  0
 10 37  1  0
 10 38  1  0
 10 39  1  0
 11 12  1  0
 11 44  1  6
 11 17  1  0
 12 13  1  0
 12 19  1  0
 12 40  1  6
 13 14  2  0
 13 15  1  0
 15 17  1  0
 15 16  1  0
 16 41  1  0
 16 42  1  0
 16 43  1  0
 17 18  2  0
 19 20  1  0
 19 21  1  0
 20 45  1  0
 20 46  1  0
 20 47  1  0
 21 22  2  0
 21 23  1  0
 23 24  1  0
 24 48  1  0
 24 49  1  0
 25 50  1  0
 25 51  1  0
M  END
>  <i_m_ct_stereo_status>  (246) 
1

>  <s_m_source_file>  (246) 
/var/tmp/pbs.5076255.sched01/tmp7rmqr72f/92ch8atech.sdf

>  <i_m_source_file_index>  (246) 
3

>  <i_lp_mmshare_version>  (246) 
48012

>  <i_f3d_flags>  (246) 
0

>  <s_epik_input>  (246) 
W0NIM11bQ0BASF0xW0NIMl1bQ0gyXU4oW0NIMl0xKVtDSDJdQyg9W0NIXTIpW0NIMl1OM0MoPU8pTihbQ0gzXSljKGM0W0NAQF0yM1tDSDNdKWMoW09IXSluKFtDSDNdKWM0W09IXQ==

>  <s_epik_cmdline>  (246) 
J2VwaWtfcHl0aG9uJywgJy1waHQnLCAnMi4wJywgJy1waCcsICc3LjAnLCAnLXRuJywgJzgnLCAnLW1hJywgJzIwMCcsICctaW1hZScsICc8aW5maWxlLm1hZT4nLCAnLW9tYWUnLCAnPG91dGZpbGUubWFlPic=

>  <r_lp_tautomer_probability>  (246) 
1

>  <r_epik_Ionization_Penalty>  (246) 
2.09885

>  <r_epik_Ionization_Penalty_Charging>  (246) 
0

>  <r_epik_Ionization_Penalty_Neutral>  (246) 
2.09885

>  <r_epik_State_Penalty>  (246) 
2.23483

>  <r_epik_Charging_Adjusted_Penalty>  (246) 
2.23483

>  <i_epik_Tot_Q>  (246) 
0

>  <i_epik_Tot_abs_Q>  (246) 
0

>  <s_lp_Force_Field>  (246) 
OPLS3e

>  <r_lp_Energy>  (246) 
6.76575

>  <b_lp_Chiralities_Consistent>  (246) 
1

>  <s_lp_Variant>  (246) 
63:0-5

>  <s_i_glide_gridfile>  (246) 
pfpi4k_grid

>  <i_i_glide_lignum>  (246) 
3

>  <i_i_glide_rotatable_bonds>  (246) 
2

>  <r_i_docking_score>  (246) 
-2.84656

>  <r_i_glide_ligand_efficiency>  (246) 
-0.113862

>  <r_i_glide_ligand_efficiency_sa>  (246) 
-0.332936

>  <r_i_glide_ligand_efficiency_ln>  (246) 
-0.67472

>  <r_i_glide_gscore>  (246) 
-2.84656

>  <r_i_glide_lipo>  (246) 
-0.211433

>  <r_i_glide_hbond>  (246) 
-0.148701

>  <r_i_glide_metal>  (246) 
-0

>  <r_i_glide_rewards>  (246) 
-1.04711

>  <r_i_glide_evdw>  (246) 
-25.741

>  <r_i_glide_ecoul>  (246) 
-2.4213

>  <r_i_glide_erotb>  (246) 
0.31684

>  <r_i_glide_esite>  (246) 
-0.105915

>  <r_i_glide_emodel>  (246) 
-32.8636

>  <r_i_glide_energy>  (246) 
-28.1623

>  <r_i_glide_einternal>  (246) 
1.41545

>  <r_i_glide_intrahb_reward>  (246) 
-0

>  <i_i_glide_confnum>  (246) 
4

>  <i_i_glide_posenum>  (246) 
30

>  <r_i_glide_eff_state_penalty>  (246) 
0

>  <ligand_id>  (246) 
63

>  <original_smiles>  (246) 
CC1CCN(CC2=CC3(C)c4c(c(O)n(C)c4O)N(C)C(=O)N3C2)C1

>  <smiles>  (246) 
[H]C1=C(C([H])([H])N2C([H])([H])C([H])([H])C([H])(C([H])([H])[H])C2([H])[H])C([H])([H])N2C(=O)N(C([H])([H])[H])C3([H])C(=O)N(C([H])([H])[H])C(=O)C3([H])C12C([H])([H])[H]

$$$$
63:5:0
     RDKit          3D

 51 54  0  0  1  0  0  0  0  0999 V2000
   -1.2844   -9.1125    2.2518 C   0  0  0  0  0  0  0  0  0  0  0  0
   -0.1799   -9.3619    3.2875 C   0  0  2  0  0  0  0  0  0  0  0  0
    0.1391   -8.1223    4.1175 C   0  0  0  0  0  0  0  0  0  0  0  0
    1.6203   -7.8744    3.8862 C   0  0  0  0  0  0  0  0  0  0  0  0
    1.8768   -8.4531    2.5683 N   0  0  0  0  0  0  0  0  0  0  0  0
    3.2959   -8.6491    2.2408 C   0  0  0  0  0  0  0  0  0  0  0  0
    4.1474   -7.3876    2.2464 C   0  0  0  0  0  0  0  0  0  0  0  0
    3.7658   -6.0999    2.3454 C   0  0  0  0  0  0  0  0  0  0  0  0
    4.9391   -5.1828    2.3559 C   0  0  2  0  0  0  0  0  0  0  0  0
    5.2185   -4.7019    3.8020 C   0  0  0  0  0  0  0  0  0  0  0  0
    4.8131   -4.0681    1.3261 C   0  0  2  0  0  0  0  0  0  0  0  0
    6.1810   -3.4423    1.1269 C   0  0  2  0  0  0  0  0  0  0  0  0
    5.7687   -2.1270    0.4254 C   0  0  0  0  0  0  0  0  0  0  0  0
    6.5101   -1.4480   -0.2687 O   0  0  0  0  0  0  0  0  0  0  0  0
    4.4957   -1.8241    0.7812 N   0  0  0  0  0  0  0  0  0  0  0  0
    3.8510   -0.5439    0.5315 C   0  0  0  0  0  0  0  0  0  0  0  0
    3.9094   -2.8400    1.4509 C   0  0  0  0  0  0  0  0  0  0  0  0
    2.8275   -2.8391    2.0205 O   0  0  0  0  0  0  0  0  0  0  0  0
    7.1185   -4.4524    0.5984 N   0  0  0  0  0  0  0  0  0  0  0  0
    8.1565   -3.9960   -0.3250 C   0  0  0  0  0  0  0  0  0  0  0  0
    7.1625   -5.6851    1.2003 C   0  0  0  0  0  0  0  0  0  0  0  0
    8.0564   -6.4873    0.9524 O   0  0  0  0  0  0  0  0  0  0  0  0
    6.0481   -6.0607    1.9077 N   0  0  0  0  0  0  0  0  0  0  0  0
    5.6504   -7.4638    2.1170 C   0  0  0  0  0  0  0  0  0  0  0  0
    1.1625   -9.7270    2.6389 C   0  0  0  0  0  0  0  0  0  0  0  0
   -0.9819   -8.3356    1.5499 H   0  0  0  0  0  0  0  0  0  0  0  0
   -2.2128   -8.8003    2.7236 H   0  0  0  0  0  0  0  0  0  0  0  0
   -1.4823  -10.0190    1.6809 H   0  0  0  0  0  0  0  0  0  0  0  0
   -0.4843  -10.1724    3.9487 H   0  0  0  0  0  0  0  0  0  0  0  0
   -0.4392   -7.2631    3.7734 H   0  0  0  0  0  0  0  0  0  0  0  0
   -0.0761   -8.2592    5.1766 H   0  0  0  0  0  0  0  0  0  0  0  0
    1.7930   -6.8072    3.9565 H   0  0  0  0  0  0  0  0  0  0  0  0
    2.2284   -8.3812    4.6368 H   0  0  0  0  0  0  0  0  0  0  0  0
    3.7319   -9.3601    2.9502 H   0  0  0  0  0  0  0  0  0  0  0  0
    3.3764   -9.1216    1.2569 H   0  0  0  0  0  0  0  0  0  0  0  0
    2.7616   -5.7285    2.3886 H   0  0  0  0  0  0  0  0  0  0  0  0
    4.4441   -4.0236    4.1634 H   0  0  0  0  0  0  0  0  0  0  0  0
    6.1810   -4.2107    3.8941 H   0  0  0  0  0  0  0  0  0  0  0  0
    5.2583   -5.5518    4.4859 H   0  0  0  0  0  0  0  0  0  0  0  0
    6.6155   -3.1066    2.0662 H   0  0  0  0  0  0  0  0  0  0  0  0
    2.7689   -0.6543    0.4592 H   0  0  0  0  0  0  0  0  0  0  0  0
    4.2133   -0.1139   -0.3982 H   0  0  0  0  0  0  0  0  0  0  0  0
    4.0560    0.1635    1.3330 H   0  0  0  0  0  0  0  0  0  0  0  0
    4.5014   -4.5284    0.3825 H   0  0  0  0  0  0  0  0  0  0  0  0
    8.7666   -4.8147   -0.7109 H   0  0  0  0  0  0  0  0  0  0  0  0
    8.8260   -3.2958    0.1710 H   0  0  0  0  0  0  0  0  0  0  0  0
    7.7293   -3.5110   -1.2018 H   0  0  0  0  0  0  0  0  0  0  0  0
    6.0973   -7.8493    3.0375 H   0  0  0  0  0  0  0  0  0  0  0  0
    5.9277   -8.1144    1.2838 H   0  0  0  0  0  0  0  0  0  0  0  0
    1.6984  -10.4220    3.2947 H   0  0  0  0  0  0  0  0  0  0  0  0
    1.0474  -10.2259    1.6763 H   0  0  0  0  0  0  0  0  0  0  0  0
  1  2  1  0
  1 26  1  0
  1 27  1  0
  1 28  1  0
  2 25  1  0
  2  3  1  0
  2 29  1  1
  3  4  1  0
  3 30  1  0
  3 31  1  0
  4  5  1  0
  4 32  1  0
  4 33  1  0
  5  6  1  0
  5 25  1  0
  6  7  1  0
  6 34  1  0
  6 35  1  0
  7 24  1  0
  7  8  2  0
  8  9  1  0
  8 36  1  0
  9 23  1  0
  9 10  1  1
  9 11  1  0
 10 37  1  0
 10 38  1  0
 10 39  1  0
 11 12  1  0
 11 44  1  6
 11 17  1  0
 12 13  1  0
 12 19  1  0
 12 40  1  1
 13 14  2  0
 13 15  1  0
 15 17  1  0
 15 16  1  0
 16 41  1  0
 16 42  1  0
 16 43  1  0
 17 18  2  0
 19 20  1  0
 19 21  1  0
 20 45  1  0
 20 46  1  0
 20 47  1  0
 21 22  2  0
 21 23  1  0
 23 24  1  0
 24 48  1  0
 24 49  1  0
 25 50  1  0
 25 51  1  0
M  END
>  <i_m_ct_stereo_status>  (247) 
1

>  <s_m_source_file>  (247) 
/var/tmp/pbs.5076255.sched01/tmp7rmqr72f/92ch8atech.sdf

>  <i_m_source_file_index>  (247) 
4

>  <i_lp_mmshare_version>  (247) 
48012

>  <i_f3d_flags>  (247) 
0

>  <s_epik_input>  (247) 
W0NIM11bQ0BASF0xW0NIMl1bQ0gyXU4oW0NIMl0xKVtDSDJdQyg9W0NIXTIpW0NIMl1OM0MoPU8pTihbQ0gzXSljKGM0W0NAQF0yM1tDSDNdKWMoW09IXSluKFtDSDNdKWM0W09IXQ==

>  <s_epik_cmdline>  (247) 
J2VwaWtfcHl0aG9uJywgJy1waHQnLCAnMi4wJywgJy1waCcsICc3LjAnLCAnLXRuJywgJzgnLCAnLW1hJywgJzIwMCcsICctaW1hZScsICc8aW5maWxlLm1hZT4nLCAnLW9tYWUnLCAnPG91dGZpbGUubWFlPic=

>  <r_lp_tautomer_probability>  (247) 
1

>  <r_epik_Ionization_Penalty>  (247) 
2.09885

>  <r_epik_Ionization_Penalty_Charging>  (247) 
0

>  <r_epik_Ionization_Penalty_Neutral>  (247) 
2.09885

>  <r_epik_State_Penalty>  (247) 
2.23483

>  <r_epik_Charging_Adjusted_Penalty>  (247) 
2.23483

>  <i_epik_Tot_Q>  (247) 
0

>  <i_epik_Tot_abs_Q>  (247) 
0

>  <s_lp_Force_Field>  (247) 
OPLS3e

>  <r_lp_Energy>  (247) 
20.0987

>  <b_lp_Chiralities_Consistent>  (247) 
1

>  <s_lp_Variant>  (247) 
63:0-6

>  <s_i_glide_gridfile>  (247) 
pfpi4k_grid

>  <i_i_glide_lignum>  (247) 
4

>  <i_i_glide_rotatable_bonds>  (247) 
2

>  <r_i_docking_score>  (247) 
-3.31296

>  <r_i_glide_ligand_efficiency>  (247) 
-0.132519

>  <r_i_glide_ligand_efficiency_sa>  (247) 
-0.387487

>  <r_i_glide_ligand_efficiency_ln>  (247) 
-0.785272

>  <r_i_glide_gscore>  (247) 
-3.31296

>  <r_i_glide_lipo>  (247) 
-0.577283

>  <r_i_glide_hbond>  (247) 
-0.102794

>  <r_i_glide_metal>  (247) 
-0

>  <r_i_glide_rewards>  (247) 
-1.51028

>  <r_i_glide_evdw>  (247) 
-25.5217

>  <r_i_glide_ecoul>  (247) 
-1.07704

>  <r_i_glide_erotb>  (247) 
0.31684

>  <r_i_glide_esite>  (247) 
-0.0018057

>  <r_i_glide_emodel>  (247) 
-31.2595

>  <r_i_glide_energy>  (247) 
-26.5987

>  <r_i_glide_einternal>  (247) 
3.08451

>  <r_i_glide_intrahb_reward>  (247) 
-0

>  <i_i_glide_confnum>  (247) 
6

>  <i_i_glide_posenum>  (247) 
21

>  <r_i_glide_eff_state_penalty>  (247) 
0

>  <ligand_id>  (247) 
63

>  <original_smiles>  (247) 
CC1CCN(CC2=CC3(C)c4c(c(O)n(C)c4O)N(C)C(=O)N3C2)C1

>  <smiles>  (247) 
[H]C1=C(C([H])([H])N2C([H])([H])C([H])([H])C([H])(C([H])([H])[H])C2([H])[H])C([H])([H])N2C(=O)N(C([H])([H])[H])C3([H])C(=O)N(C([H])([H])[H])C(=O)C3([H])C12C([H])([H])[H]

$$$$
63:5:1
     RDKit          3D

 51 54  0  0  1  0  0  0  0  0999 V2000
    0.6618   -8.1703    9.5609 C   0  0  0  0  0  0  0  0  0  0  0  0
    0.9322   -9.4627    8.7787 C   0  0  2  0  0  0  0  0  0  0  0  0
    2.3583   -9.5151    8.2547 C   0  0  0  0  0  0  0  0  0  0  0  0
    2.2073   -9.6057    6.7491 C   0  0  0  0  0  0  0  0  0  0  0  0
    0.8969   -9.0265    6.4576 N   0  0  0  0  0  0  0  0  0  0  0  0
    0.3666   -9.3403    5.1235 C   0  0  0  0  0  0  0  0  0  0  0  0
    1.2228   -8.8638    3.9468 C   0  0  0  0  0  0  0  0  0  0  0  0
    2.5418   -8.9722    3.7488 C   0  0  0  0  0  0  0  0  0  0  0  0
    2.9550   -8.3847    2.4318 C   0  0  2  0  0  0  0  0  0  0  0  0
    3.3144   -9.5402    1.4825 C   0  0  0  0  0  0  0  0  0  0  0  0
    4.0343   -7.3106    2.5546 C   0  0  2  0  0  0  0  0  0  0  0  0
    4.0957   -6.5647    1.2324 C   0  0  2  0  0  0  0  0  0  0  0  0
    5.4626   -5.8733    1.3922 C   0  0  0  0  0  0  0  0  0  0  0  0
    5.8232   -4.8707    0.7660 O   0  0  0  0  0  0  0  0  0  0  0  0
    6.2266   -6.5976    2.2404 N   0  0  0  0  0  0  0  0  0  0  0  0
    7.6580   -6.3930    2.4558 C   0  0  0  0  0  0  0  0  0  0  0  0
    5.5098   -7.5606    2.8533 C   0  0  0  0  0  0  0  0  0  0  0  0
    5.9296   -8.4563    3.5924 O   0  0  0  0  0  0  0  0  0  0  0  0
    2.7992   -5.8950    0.9905 N   0  0  0  0  0  0  0  0  0  0  0  0
    2.8261   -4.6117    0.2829 C   0  0  0  0  0  0  0  0  0  0  0  0
    1.6431   -6.6165    1.1593 C   0  0  0  0  0  0  0  0  0  0  0  0
    0.5500   -6.2496    0.7099 O   0  0  0  0  0  0  0  0  0  0  0  0
    1.7200   -7.7086    1.9724 N   0  0  0  0  0  0  0  0  0  0  0  0
    0.5739   -8.2326    2.7330 C   0  0  0  0  0  0  0  0  0  0  0  0
    0.0552   -9.5743    7.5187 C   0  0  0  0  0  0  0  0  0  0  0  0
    0.8113   -7.2990    8.9207 H   0  0  0  0  0  0  0  0  0  0  0  0
    1.3396   -8.0741   10.4087 H   0  0  0  0  0  0  0  0  0  0  0  0
   -0.3584   -8.1439    9.9384 H   0  0  0  0  0  0  0  0  0  0  0  0
    0.7620  -10.3243    9.4254 H   0  0  0  0  0  0  0  0  0  0  0  0
    2.9082   -8.6068    8.4882 H   0  0  0  0  0  0  0  0  0  0  0  0
    2.9246  -10.3589    8.6444 H   0  0  0  0  0  0  0  0  0  0  0  0
    3.0258   -9.0443    6.3086 H   0  0  0  0  0  0  0  0  0  0  0  0
    2.2357  -10.6519    6.4213 H   0  0  0  0  0  0  0  0  0  0  0  0
    0.2039  -10.4126    5.0115 H   0  0  0  0  0  0  0  0  0  0  0  0
   -0.6188   -8.8805    5.0459 H   0  0  0  0  0  0  0  0  0  0  0  0
    3.2764   -9.4402    4.3864 H   0  0  0  0  0  0  0  0  0  0  0  0
    4.2224  -10.0560    1.8055 H   0  0  0  0  0  0  0  0  0  0  0  0
    3.4354   -9.2295    0.4496 H   0  0  0  0  0  0  0  0  0  0  0  0
    2.5009  -10.2630    1.4992 H   0  0  0  0  0  0  0  0  0  0  0  0
    4.2394   -7.2360    0.3829 H   0  0  0  0  0  0  0  0  0  0  0  0
    7.9597   -6.7027    3.4565 H   0  0  0  0  0  0  0  0  0  0  0  0
    7.9315   -5.3448    2.3469 H   0  0  0  0  0  0  0  0  0  0  0  0
    8.2443   -6.9702    1.7415 H   0  0  0  0  0  0  0  0  0  0  0  0
    3.7212   -6.6095    3.3370 H   0  0  0  0  0  0  0  0  0  0  0  0
    1.8383   -4.1651    0.1805 H   0  0  0  0  0  0  0  0  0  0  0  0
    3.2297   -4.7421   -0.7189 H   0  0  0  0  0  0  0  0  0  0  0  0
    3.4389   -3.8768    0.8029 H   0  0  0  0  0  0  0  0  0  0  0  0
    0.0635   -8.9902    2.1375 H   0  0  0  0  0  0  0  0  0  0  0  0
   -0.1426   -7.4604    3.0157 H   0  0  0  0  0  0  0  0  0  0  0  0
   -0.1746  -10.6230    7.3134 H   0  0  0  0  0  0  0  0  0  0  0  0
   -0.8989   -9.0557    7.6148 H   0  0  0  0  0  0  0  0  0  0  0  0
  1  2  1  0
  1 26  1  0
  1 27  1  0
  1 28  1  0
  2 25  1  0
  2  3  1  0
  2 29  1  1
  3  4  1  0
  3 30  1  0
  3 31  1  0
  4  5  1  0
  4 32  1  0
  4 33  1  0
  5  6  1  0
  5 25  1  0
  6  7  1  0
  6 34  1  0
  6 35  1  0
  7 24  1  0
  7  8  2  0
  8  9  1  0
  8 36  1  0
  9 23  1  0
  9 10  1  6
  9 11  1  0
 10 37  1  0
 10 38  1  0
 10 39  1  0
 11 12  1  0
 11 44  1  1
 11 17  1  0
 12 13  1  0
 12 19  1  0
 12 40  1  6
 13 14  2  0
 13 15  1  0
 15 17  1  0
 15 16  1  0
 16 41  1  0
 16 42  1  0
 16 43  1  0
 17 18  2  0
 19 20  1  0
 19 21  1  0
 20 45  1  0
 20 46  1  0
 20 47  1  0
 21 22  2  0
 21 23  1  0
 23 24  1  0
 24 48  1  0
 24 49  1  0
 25 50  1  0
 25 51  1  0
M  END
>  <i_m_ct_stereo_status>  (248) 
1

>  <s_m_source_file>  (248) 
/var/tmp/pbs.5076255.sched01/tmp7rmqr72f/92ch8atech.sdf

>  <i_m_source_file_index>  (248) 
4

>  <i_lp_mmshare_version>  (248) 
48012

>  <i_f3d_flags>  (248) 
0

>  <s_epik_input>  (248) 
W0NIM11bQ0BASF0xW0NIMl1bQ0gyXU4oW0NIMl0xKVtDSDJdQyg9W0NIXTIpW0NIMl1OM0MoPU8pTihbQ0gzXSljKGM0W0NAQF0yM1tDSDNdKWMoW09IXSluKFtDSDNdKWM0W09IXQ==

>  <s_epik_cmdline>  (248) 
J2VwaWtfcHl0aG9uJywgJy1waHQnLCAnMi4wJywgJy1waCcsICc3LjAnLCAnLXRuJywgJzgnLCAnLW1hJywgJzIwMCcsICctaW1hZScsICc8aW5maWxlLm1hZT4nLCAnLW9tYWUnLCAnPG91dGZpbGUubWFlPic=

>  <r_lp_tautomer_probability>  (248) 
1

>  <r_epik_Ionization_Penalty>  (248) 
2.09885

>  <r_epik_Ionization_Penalty_Charging>  (248) 
0

>  <r_epik_Ionization_Penalty_Neutral>  (248) 
2.09885

>  <r_epik_State_Penalty>  (248) 
2.23483

>  <r_epik_Charging_Adjusted_Penalty>  (248) 
2.23483

>  <i_epik_Tot_Q>  (248) 
0

>  <i_epik_Tot_abs_Q>  (248) 
0

>  <s_lp_Force_Field>  (248) 
OPLS3e

>  <r_lp_Energy>  (248) 
20.0987

>  <b_lp_Chiralities_Consistent>  (248) 
1

>  <s_lp_Variant>  (248) 
63:0-6

>  <s_i_glide_gridfile>  (248) 
pfpi4k_grid

>  <i_i_glide_lignum>  (248) 
4

>  <i_i_glide_rotatable_bonds>  (248) 
2

>  <r_i_docking_score>  (248) 
-3.23822

>  <r_i_glide_ligand_efficiency>  (248) 
-0.129529

>  <r_i_glide_ligand_efficiency_sa>  (248) 
-0.378745

>  <r_i_glide_ligand_efficiency_ln>  (248) 
-0.767555

>  <r_i_glide_gscore>  (248) 
-3.23822

>  <r_i_glide_lipo>  (248) 
-0.0827809

>  <r_i_glide_hbond>  (248) 
-0.16

>  <r_i_glide_metal>  (248) 
-0

>  <r_i_glide_rewards>  (248) 
-1.19607

>  <r_i_glide_evdw>  (248) 
-23.7358

>  <r_i_glide_ecoul>  (248) 
-5.61658

>  <r_i_glide_erotb>  (248) 
0.31684

>  <r_i_glide_esite>  (248) 
-0.086938

>  <r_i_glide_emodel>  (248) 
-33.4813

>  <r_i_glide_energy>  (248) 
-29.3523

>  <r_i_glide_einternal>  (248) 
3.8633

>  <r_i_glide_intrahb_reward>  (248) 
-0

>  <i_i_glide_confnum>  (248) 
6

>  <i_i_glide_posenum>  (248) 
11

>  <r_i_glide_eff_state_penalty>  (248) 
0

>  <ligand_id>  (248) 
63

>  <original_smiles>  (248) 
CC1CCN(CC2=CC3(C)c4c(c(O)n(C)c4O)N(C)C(=O)N3C2)C1

>  <smiles>  (248) 
[H]C1=C(C([H])([H])N2C([H])([H])C([H])([H])C([H])(C([H])([H])[H])C2([H])[H])C([H])([H])N2C(=O)N(C([H])([H])[H])C3([H])C(=O)N(C([H])([H])[H])C(=O)C3([H])C12C([H])([H])[H]

$$$$
63:5:2
     RDKit          3D

 51 54  0  0  1  0  0  0  0  0999 V2000
    5.0580   -1.2225   -0.2457 C   0  0  0  0  0  0  0  0  0  0  0  0
    5.4986   -2.4881   -1.0026 C   0  0  2  0  0  0  0  0  0  0  0  0
    4.3104   -3.3186   -1.4630 C   0  0  0  0  0  0  0  0  0  0  0  0
    4.5190   -4.6620   -0.8177 C   0  0  0  0  0  0  0  0  0  0  0  0
    5.3011   -4.4005    0.3896 N   0  0  0  0  0  0  0  0  0  0  0  0
    5.9111   -5.5578    1.0454 C   0  0  0  0  0  0  0  0  0  0  0  0
    4.9482   -6.6075    1.6372 C   0  0  0  0  0  0  0  0  0  0  0  0
    3.6533   -6.8381    1.3913 C   0  0  0  0  0  0  0  0  0  0  0  0
    3.1298   -7.9855    2.1702 C   0  0  2  0  0  0  0  0  0  0  0  0
    2.9933   -9.2140    1.2521 C   0  0  0  0  0  0  0  0  0  0  0  0
    1.8581   -7.6026    2.9181 C   0  0  2  0  0  0  0  0  0  0  0  0
    1.6223   -8.6673    3.9648 C   0  0  2  0  0  0  0  0  0  0  0  0
    0.1489   -8.3594    4.2880 C   0  0  0  0  0  0  0  0  0  0  0  0
   -0.4045   -8.6403    5.3539 O   0  0  0  0  0  0  0  0  0  0  0  0
   -0.4403   -7.7536    3.2336 N   0  0  0  0  0  0  0  0  0  0  0  0
   -1.8754   -7.5316    3.1031 C   0  0  0  0  0  0  0  0  0  0  0  0
    0.4703   -7.4066    2.3156 C   0  0  0  0  0  0  0  0  0  0  0  0
    0.2488   -6.8642    1.2199 O   0  0  0  0  0  0  0  0  0  0  0  0
    2.7536   -8.6884    4.9246 N   0  0  0  0  0  0  0  0  0  0  0  0
    2.4475   -9.0108    6.3203 C   0  0  0  0  0  0  0  0  0  0  0  0
    4.0361   -8.7044    4.4291 C   0  0  0  0  0  0  0  0  0  0  0  0
    5.0077   -8.9428    5.1552 O   0  0  0  0  0  0  0  0  0  0  0  0
    4.1987   -8.2163    3.1671 N   0  0  0  0  0  0  0  0  0  0  0  0
    5.4468   -7.5888    2.6719 C   0  0  0  0  0  0  0  0  0  0  0  0
    6.3011   -3.4488   -0.1058 C   0  0  0  0  0  0  0  0  0  0  0  0
    4.4859   -1.4942    0.6429 H   0  0  0  0  0  0  0  0  0  0  0  0
    4.4156   -0.5945   -0.8638 H   0  0  0  0  0  0  0  0  0  0  0  0
    5.9132   -0.6285    0.0814 H   0  0  0  0  0  0  0  0  0  0  0  0
    6.0872   -2.2152   -1.8795 H   0  0  0  0  0  0  0  0  0  0  0  0
    3.3723   -2.9083   -1.0969 H   0  0  0  0  0  0  0  0  0  0  0  0
    4.2230   -3.4263   -2.5413 H   0  0  0  0  0  0  0  0  0  0  0  0
    3.4967   -5.0055   -0.6622 H   0  0  0  0  0  0  0  0  0  0  0  0
    5.0478   -5.3605   -1.4674 H   0  0  0  0  0  0  0  0  0  0  0  0
    6.5817   -6.0620    0.3470 H   0  0  0  0  0  0  0  0  0  0  0  0
    6.5624   -5.1991    1.8479 H   0  0  0  0  0  0  0  0  0  0  0  0
    2.9430   -6.3407    0.7565 H   0  0  0  0  0  0  0  0  0  0  0  0
    2.1973   -9.0767    0.5279 H   0  0  0  0  0  0  0  0  0  0  0  0
    2.7930  -10.1344    1.7965 H   0  0  0  0  0  0  0  0  0  0  0  0
    3.9174   -9.3736    0.6939 H   0  0  0  0  0  0  0  0  0  0  0  0
    1.5888   -9.6709    3.5361 H   0  0  0  0  0  0  0  0  0  0  0  0
   -2.0831   -6.6619    2.4906 H   0  0  0  0  0  0  0  0  0  0  0  0
   -2.3400   -7.3632    4.0694 H   0  0  0  0  0  0  0  0  0  0  0  0
   -2.3479   -8.3935    2.6372 H   0  0  0  0  0  0  0  0  0  0  0  0
    2.0489   -6.6531    3.4311 H   0  0  0  0  0  0  0  0  0  0  0  0
    3.3242   -8.9531    6.9563 H   0  0  0  0  0  0  0  0  0  0  0  0
    2.0588  -10.0259    6.3814 H   0  0  0  0  0  0  0  0  0  0  0  0
    1.7163   -8.3274    6.7472 H   0  0  0  0  0  0  0  0  0  0  0  0
    6.0923   -8.3471    2.2216 H   0  0  0  0  0  0  0  0  0  0  0  0
    5.9996   -7.0731    3.4629 H   0  0  0  0  0  0  0  0  0  0  0  0
    7.0364   -3.9773   -0.7151 H   0  0  0  0  0  0  0  0  0  0  0  0
    6.8481   -2.9342    0.6916 H   0  0  0  0  0  0  0  0  0  0  0  0
  1  2  1  0
  1 26  1  0
  1 27  1  0
  1 28  1  0
  2 25  1  0
  2  3  1  0
  2 29  1  6
  3  4  1  0
  3 30  1  0
  3 31  1  0
  4  5  1  0
  4 32  1  0
  4 33  1  0
  5  6  1  0
  5 25  1  0
  6  7  1  0
  6 34  1  0
  6 35  1  0
  7 24  1  0
  7  8  2  0
  8  9  1  0
  8 36  1  0
  9 23  1  0
  9 10  1  6
  9 11  1  0
 10 37  1  0
 10 38  1  0
 10 39  1  0
 11 12  1  0
 11 44  1  1
 11 17  1  0
 12 13  1  0
 12 19  1  0
 12 40  1  6
 13 14  2  0
 13 15  1  0
 15 17  1  0
 15 16  1  0
 16 41  1  0
 16 42  1  0
 16 43  1  0
 17 18  2  0
 19 20  1  0
 19 21  1  0
 20 45  1  0
 20 46  1  0
 20 47  1  0
 21 22  2  0
 21 23  1  0
 23 24  1  0
 24 48  1  0
 24 49  1  0
 25 50  1  0
 25 51  1  0
M  END
>  <i_m_ct_stereo_status>  (249) 
1

>  <s_m_source_file>  (249) 
/var/tmp/pbs.5076255.sched01/tmp7rmqr72f/92ch8atech.sdf

>  <i_m_source_file_index>  (249) 
4

>  <i_lp_mmshare_version>  (249) 
48012

>  <i_f3d_flags>  (249) 
0

>  <s_epik_input>  (249) 
W0NIM11bQ0BASF0xW0NIMl1bQ0gyXU4oW0NIMl0xKVtDSDJdQyg9W0NIXTIpW0NIMl1OM0MoPU8pTihbQ0gzXSljKGM0W0NAQF0yM1tDSDNdKWMoW09IXSluKFtDSDNdKWM0W09IXQ==

>  <s_epik_cmdline>  (249) 
J2VwaWtfcHl0aG9uJywgJy1waHQnLCAnMi4wJywgJy1waCcsICc3LjAnLCAnLXRuJywgJzgnLCAnLW1hJywgJzIwMCcsICctaW1hZScsICc8aW5maWxlLm1hZT4nLCAnLW9tYWUnLCAnPG91dGZpbGUubWFlPic=

>  <r_lp_tautomer_probability>  (249) 
1

>  <r_epik_Ionization_Penalty>  (249) 
2.09885

>  <r_epik_Ionization_Penalty_Charging>  (249) 
0

>  <r_epik_Ionization_Penalty_Neutral>  (249) 
2.09885

>  <r_epik_State_Penalty>  (249) 
2.23483

>  <r_epik_Charging_Adjusted_Penalty>  (249) 
2.23483

>  <i_epik_Tot_Q>  (249) 
0

>  <i_epik_Tot_abs_Q>  (249) 
0

>  <s_lp_Force_Field>  (249) 
OPLS3e

>  <r_lp_Energy>  (249) 
20.0987

>  <b_lp_Chiralities_Consistent>  (249) 
1

>  <s_lp_Variant>  (249) 
63:0-6

>  <s_i_glide_gridfile>  (249) 
pfpi4k_grid

>  <i_i_glide_lignum>  (249) 
4

>  <i_i_glide_rotatable_bonds>  (249) 
2

>  <r_i_docking_score>  (249) 
-2.89781

>  <r_i_glide_ligand_efficiency>  (249) 
-0.115912

>  <r_i_glide_ligand_efficiency_sa>  (249) 
-0.33893

>  <r_i_glide_ligand_efficiency_ln>  (249) 
-0.686868

>  <r_i_glide_gscore>  (249) 
-2.89781

>  <r_i_glide_lipo>  (249) 
-0.317201

>  <r_i_glide_hbond>  (249) 
-0.0583892

>  <r_i_glide_metal>  (249) 
-0

>  <r_i_glide_rewards>  (249) 
-1.04711

>  <r_i_glide_evdw>  (249) 
-25.9444

>  <r_i_glide_ecoul>  (249) 
-2.31275

>  <r_i_glide_erotb>  (249) 
0.31684

>  <r_i_glide_esite>  (249) 
-0.147818

>  <r_i_glide_emodel>  (249) 
-32.1204

>  <r_i_glide_energy>  (249) 
-28.2572

>  <r_i_glide_einternal>  (249) 
2.30857

>  <r_i_glide_intrahb_reward>  (249) 
-0

>  <i_i_glide_confnum>  (249) 
6

>  <i_i_glide_posenum>  (249) 
22

>  <r_i_glide_eff_state_penalty>  (249) 
0

>  <ligand_id>  (249) 
63

>  <original_smiles>  (249) 
CC1CCN(CC2=CC3(C)c4c(c(O)n(C)c4O)N(C)C(=O)N3C2)C1

>  <smiles>  (249) 
[H]C1=C(C([H])([H])N2C([H])([H])C([H])([H])C([H])(C([H])([H])[H])C2([H])[H])C([H])([H])N2C(=O)N(C([H])([H])[H])C3([H])C(=O)N(C([H])([H])[H])C(=O)C3([H])C12C([H])([H])[H]

$$$$
63:6:0
     RDKit          3D

 51 54  0  0  1  0  0  0  0  0999 V2000
    3.3609   -0.5284   -4.3447 C   0  0  0  0  0  0  0  0  0  0  0  0
    3.2253   -2.0090   -3.9232 C   0  0  2  0  0  0  0  0  0  0  0  0
    2.4675   -2.1656   -2.6211 C   0  0  0  0  0  0  0  0  0  0  0  0
    3.3815   -2.9227   -1.6571 C   0  0  0  0  0  0  0  0  0  0  0  0
    4.7076   -2.5663   -2.1280 N   0  0  0  0  0  0  0  0  0  0  0  0
    5.8287   -3.3921   -1.6681 C   0  0  0  0  0  0  0  0  0  0  0  0
    5.6719   -3.8171   -0.2368 C   0  0  0  0  0  0  0  0  0  0  0  0
    5.3876   -5.0496    0.1887 C   0  0  0  0  0  0  0  0  0  0  0  0
    5.2400   -5.0749    1.6741 C   0  0  2  0  0  0  0  0  0  0  0  0
    6.5512   -5.5857    2.3001 C   0  0  0  0  0  0  0  0  0  0  0  0
    4.0643   -5.8678    2.2615 C   0  0  1  0  0  0  0  0  0  0  0  0
    2.8045   -5.0324    2.2101 C   0  0  1  0  0  0  0  0  0  0  0  0
    1.7612   -6.1332    2.4629 C   0  0  0  0  0  0  0  0  0  0  0  0
    0.5925   -5.9014    2.7858 O   0  0  0  0  0  0  0  0  0  0  0  0
    2.2719   -7.3378    2.1345 N   0  0  0  0  0  0  0  0  0  0  0  0
    1.4920   -8.5542    1.9644 C   0  0  0  0  0  0  0  0  0  0  0  0
    3.5805   -7.2412    1.7965 C   0  0  0  0  0  0  0  0  0  0  0  0
    4.2835   -8.0944    1.2428 O   0  0  0  0  0  0  0  0  0  0  0  0
    3.0117   -3.8497    3.0751 N   0  0  0  0  0  0  0  0  0  0  0  0
    1.9479   -3.4469    3.9790 C   0  0  0  0  0  0  0  0  0  0  0  0
    4.0864   -3.0457    2.7512 C   0  0  0  0  0  0  0  0  0  0  0  0
    4.1395   -1.8610    3.0992 O   0  0  0  0  0  0  0  0  0  0  0  0
    5.0488   -3.6122    1.9735 N   0  0  0  0  0  0  0  0  0  0  0  0
    5.7113   -2.8408    0.9101 C   0  0  0  0  0  0  0  0  0  0  0  0
    4.5760   -2.6148   -3.5670 C   0  0  0  0  0  0  0  0  0  0  0  0
    3.8720    0.0600   -3.5789 H   0  0  0  0  0  0  0  0  0  0  0  0
    2.3942   -0.0530   -4.4825 H   0  0  0  0  0  0  0  0  0  0  0  0
    3.9185   -0.3922   -5.2621 H   0  0  0  0  0  0  0  0  0  0  0  0
    2.7471   -2.6046   -4.7034 H   0  0  0  0  0  0  0  0  0  0  0  0
    2.2421   -1.1674   -2.2571 H   0  0  0  0  0  0  0  0  0  0  0  0
    1.5195   -2.6766   -2.7448 H   0  0  0  0  0  0  0  0  0  0  0  0
    3.2202   -2.5711   -0.6385 H   0  0  0  0  0  0  0  0  0  0  0  0
    3.2429   -4.0086   -1.7242 H   0  0  0  0  0  0  0  0  0  0  0  0
    5.9148   -4.2888   -2.2752 H   0  0  0  0  0  0  0  0  0  0  0  0
    6.7663   -2.8421   -1.7917 H   0  0  0  0  0  0  0  0  0  0  0  0
    5.2428   -5.9028   -0.4634 H   0  0  0  0  0  0  0  0  0  0  0  0
    6.7079   -6.6447    2.0778 H   0  0  0  0  0  0  0  0  0  0  0  0
    6.5483   -5.4549    3.3788 H   0  0  0  0  0  0  0  0  0  0  0  0
    7.4026   -5.0357    1.8958 H   0  0  0  0  0  0  0  0  0  0  0  0
    2.6138   -4.6566    1.2017 H   0  0  0  0  0  0  0  0  0  0  0  0
    2.0806   -9.4651    2.0955 H   0  0  0  0  0  0  0  0  0  0  0  0
    1.1222   -8.5503    0.9488 H   0  0  0  0  0  0  0  0  0  0  0  0
    0.6340   -8.6171    2.6345 H   0  0  0  0  0  0  0  0  0  0  0  0
    4.2889   -6.0250    3.3226 H   0  0  0  0  0  0  0  0  0  0  0  0
    2.2523   -2.6211    4.6369 H   0  0  0  0  0  0  0  0  0  0  0  0
    1.6645   -4.2617    4.6427 H   0  0  0  0  0  0  0  0  0  0  0  0
    1.0519   -3.1129    3.4451 H   0  0  0  0  0  0  0  0  0  0  0  0
    6.7431   -2.6112    1.1758 H   0  0  0  0  0  0  0  0  0  0  0  0
    5.1916   -1.9189    0.6554 H   0  0  0  0  0  0  0  0  0  0  0  0
    4.5966   -3.6524   -3.9321 H   0  0  0  0  0  0  0  0  0  0  0  0
    5.3856   -2.0019   -3.9280 H   0  0  0  0  0  0  0  0  0  0  0  0
  1  2  1  0
  1 26  1  0
  1 27  1  0
  1 28  1  0
  2 25  1  0
  2  3  1  0
  2 29  1  6
  3  4  1  0
  3 30  1  0
  3 31  1  0
  4  5  1  0
  4 32  1  0
  4 33  1  0
  5  6  1  0
  5 25  1  0
  6  7  1  0
  6 34  1  0
  6 35  1  0
  7 24  1  0
  7  8  2  0
  8  9  1  0
  8 36  1  0
  9 23  1  0
  9 10  1  1
  9 11  1  0
 10 37  1  0
 10 38  1  0
 10 39  1  0
 11 12  1  0
 11 44  1  1
 11 17  1  0
 12 13  1  0
 12 19  1  0
 12 40  1  6
 13 14  2  0
 13 15  1  0
 15 17  1  0
 15 16  1  0
 16 41  1  0
 16 42  1  0
 16 43  1  0
 17 18  2  0
 19 20  1  0
 19 21  1  0
 20 45  1  0
 20 46  1  0
 20 47  1  0
 21 22  2  0
 21 23  1  0
 23 24  1  0
 24 48  1  0
 24 49  1  0
 25 50  1  0
 25 51  1  0
M  END
>  <i_m_ct_stereo_status>  (250) 
1

>  <s_m_source_file>  (250) 
/var/tmp/pbs.5076255.sched01/tmp7rmqr72f/92ch8atech.sdf

>  <i_m_source_file_index>  (250) 
5

>  <i_lp_mmshare_version>  (250) 
48012

>  <i_f3d_flags>  (250) 
0

>  <s_epik_input>  (250) 
W0NIM11bQ0BASF0xW0NIMl1bQ0gyXU4oW0NIMl0xKVtDSDJdQyg9W0NIXTIpW0NIMl1OM0MoPU8pTihbQ0gzXSljKGM0W0NAQF0yM1tDSDNdKWMoW09IXSluKFtDSDNdKWM0W09IXQ==

>  <s_epik_cmdline>  (250) 
J2VwaWtfcHl0aG9uJywgJy1waHQnLCAnMi4wJywgJy1waCcsICc3LjAnLCAnLXRuJywgJzgnLCAnLW1hJywgJzIwMCcsICctaW1hZScsICc8aW5maWxlLm1hZT4nLCAnLW9tYWUnLCAnPG91dGZpbGUubWFlPic=

>  <r_lp_tautomer_probability>  (250) 
1

>  <r_epik_Ionization_Penalty>  (250) 
2.09885

>  <r_epik_Ionization_Penalty_Charging>  (250) 
0

>  <r_epik_Ionization_Penalty_Neutral>  (250) 
2.09885

>  <r_epik_State_Penalty>  (250) 
2.23483

>  <r_epik_Charging_Adjusted_Penalty>  (250) 
2.23483

>  <i_epik_Tot_Q>  (250) 
0

>  <i_epik_Tot_abs_Q>  (250) 
0

>  <s_lp_Force_Field>  (250) 
OPLS3e

>  <r_lp_Energy>  (250) 
21.3214

>  <b_lp_Chiralities_Consistent>  (250) 
1

>  <s_lp_Variant>  (250) 
63:0-7

>  <s_i_glide_gridfile>  (250) 
pfpi4k_grid

>  <i_i_glide_lignum>  (250) 
5

>  <i_i_glide_rotatable_bonds>  (250) 
2

>  <r_i_docking_score>  (250) 
-3.41409

>  <r_i_glide_ligand_efficiency>  (250) 
-0.136564

>  <r_i_glide_ligand_efficiency_sa>  (250) 
-0.399314

>  <r_i_glide_ligand_efficiency_ln>  (250) 
-0.809241

>  <r_i_glide_gscore>  (250) 
-3.41409

>  <r_i_glide_lipo>  (250) 
-0.915419

>  <r_i_glide_hbond>  (250) 
-0.0555453

>  <r_i_glide_metal>  (250) 
-0

>  <r_i_glide_rewards>  (250) 
-1.16154

>  <r_i_glide_evdw>  (250) 
-24.5834

>  <r_i_glide_ecoul>  (250) 
-2.22613

>  <r_i_glide_erotb>  (250) 
0.31684

>  <r_i_glide_esite>  (250) 
-0.035333

>  <r_i_glide_emodel>  (250) 
-28.901

>  <r_i_glide_energy>  (250) 
-26.8095

>  <r_i_glide_einternal>  (250) 
5.47144

>  <r_i_glide_intrahb_reward>  (250) 
-0

>  <i_i_glide_confnum>  (250) 
5

>  <i_i_glide_posenum>  (250) 
3

>  <r_i_glide_eff_state_penalty>  (250) 
0

>  <ligand_id>  (250) 
63

>  <original_smiles>  (250) 
CC1CCN(CC2=CC3(C)c4c(c(O)n(C)c4O)N(C)C(=O)N3C2)C1

>  <smiles>  (250) 
[H]C1=C(C([H])([H])N2C([H])([H])C([H])([H])C([H])(C([H])([H])[H])C2([H])[H])C([H])([H])N2C(=O)N(C([H])([H])[H])C3([H])C(=O)N(C([H])([H])[H])C(=O)C3([H])C12C([H])([H])[H]

$$$$
63:6:1
     RDKit          3D

 51 54  0  0  1  0  0  0  0  0999 V2000
   -2.1524   -8.4936    2.5481 C   0  0  0  0  0  0  0  0  0  0  0  0
   -0.7829   -8.7491    3.1705 C   0  0  2  0  0  0  0  0  0  0  0  0
   -0.6538   -8.1198    4.5569 C   0  0  0  0  0  0  0  0  0  0  0  0
    0.5117   -7.1451    4.4210 C   0  0  0  0  0  0  0  0  0  0  0  0
    0.5223   -6.8029    3.0005 N   0  0  0  0  0  0  0  0  0  0  0  0
    1.7794   -6.1846    2.5796 C   0  0  0  0  0  0  0  0  0  0  0  0
    2.1221   -4.9037    3.3209 C   0  0  0  0  0  0  0  0  0  0  0  0
    1.2965   -3.9693    3.8042 C   0  0  0  0  0  0  0  0  0  0  0  0
    2.0749   -2.8648    4.4730 C   0  0  2  0  0  0  0  0  0  0  0  0
    2.0796   -3.0846    6.0003 C   0  0  0  0  0  0  0  0  0  0  0  0
    1.6459   -1.4212    4.1613 C   0  0  1  0  0  0  0  0  0  0  0  0
    2.2130   -0.9851    2.8358 C   0  0  1  0  0  0  0  0  0  0  0  0
    1.3581    0.2615    2.5785 C   0  0  0  0  0  0  0  0  0  0  0  0
    1.6791    1.1775    1.8193 O   0  0  0  0  0  0  0  0  0  0  0  0
    0.1881    0.1341    3.2376 N   0  0  0  0  0  0  0  0  0  0  0  0
   -0.9860    0.9822    3.0236 C   0  0  0  0  0  0  0  0  0  0  0  0
    0.2080   -0.9157    4.0823 C   0  0  0  0  0  0  0  0  0  0  0  0
   -0.7379   -1.3776    4.7269 O   0  0  0  0  0  0  0  0  0  0  0  0
    3.6764   -0.9918    2.9780 N   0  0  0  0  0  0  0  0  0  0  0  0
    4.4582    0.1275    2.4560 C   0  0  0  0  0  0  0  0  0  0  0  0
    4.2532   -2.1842    3.3141 C   0  0  0  0  0  0  0  0  0  0  0  0
    5.4230   -2.4493    3.0428 O   0  0  0  0  0  0  0  0  0  0  0  0
    3.4377   -3.1010    3.9130 N   0  0  0  0  0  0  0  0  0  0  0  0
    3.5547   -4.5270    3.5807 C   0  0  0  0  0  0  0  0  0  0  0  0
    0.3310   -8.0976    2.3506 C   0  0  0  0  0  0  0  0  0  0  0  0
   -2.3469   -7.4258    2.4636 H   0  0  0  0  0  0  0  0  0  0  0  0
   -2.9215   -8.9058    3.1858 H   0  0  0  0  0  0  0  0  0  0  0  0
   -2.2383   -8.9602    1.5677 H   0  0  0  0  0  0  0  0  0  0  0  0
   -0.6196   -9.8258    3.2360 H   0  0  0  0  0  0  0  0  0  0  0  0
   -1.5606   -7.5831    4.8384 H   0  0  0  0  0  0  0  0  0  0  0  0
   -0.4721   -8.8689    5.3299 H   0  0  0  0  0  0  0  0  0  0  0  0
    0.3780   -6.2718    5.0573 H   0  0  0  0  0  0  0  0  0  0  0  0
    1.4447   -7.6408    4.6979 H   0  0  0  0  0  0  0  0  0  0  0  0
    2.6004   -6.8878    2.7276 H   0  0  0  0  0  0  0  0  0  0  0  0
    1.7417   -5.9677    1.5102 H   0  0  0  0  0  0  0  0  0  0  0  0
    0.2198   -3.9816    3.7348 H   0  0  0  0  0  0  0  0  0  0  0  0
    1.0876   -2.9290    6.4278 H   0  0  0  0  0  0  0  0  0  0  0  0
    2.7736   -2.4053    6.4948 H   0  0  0  0  0  0  0  0  0  0  0  0
    2.3871   -4.1003    6.2471 H   0  0  0  0  0  0  0  0  0  0  0  0
    1.9679   -1.6903    2.0363 H   0  0  0  0  0  0  0  0  0  0  0  0
   -1.5996    1.0430    3.9233 H   0  0  0  0  0  0  0  0  0  0  0  0
   -1.6098    0.5829    2.2233 H   0  0  0  0  0  0  0  0  0  0  0  0
   -0.7024    1.9978    2.7432 H   0  0  0  0  0  0  0  0  0  0  0  0
    2.0947   -0.7864    4.9292 H   0  0  0  0  0  0  0  0  0  0  0  0
    5.5170    0.0614    2.7050 H   0  0  0  0  0  0  0  0  0  0  0  0
    4.0893    1.0477    2.9080 H   0  0  0  0  0  0  0  0  0  0  0  0
    4.3696    0.1979    1.3726 H   0  0  0  0  0  0  0  0  0  0  0  0
    3.9348   -5.0760    4.4413 H   0  0  0  0  0  0  0  0  0  0  0  0
    4.1862   -4.7334    2.7146 H   0  0  0  0  0  0  0  0  0  0  0  0
    1.2328   -8.7098    2.4282 H   0  0  0  0  0  0  0  0  0  0  0  0
    0.0853   -8.0080    1.2913 H   0  0  0  0  0  0  0  0  0  0  0  0
  1  2  1  0
  1 26  1  0
  1 27  1  0
  1 28  1  0
  2 25  1  0
  2  3  1  0
  2 29  1  1
  3  4  1  0
  3 30  1  0
  3 31  1  0
  4  5  1  0
  4 32  1  0
  4 33  1  0
  5  6  1  0
  5 25  1  0
  6  7  1  0
  6 34  1  0
  6 35  1  0
  7 24  1  0
  7  8  2  0
  8  9  1  0
  8 36  1  0
  9 23  1  0
  9 10  1  1
  9 11  1  0
 10 37  1  0
 10 38  1  0
 10 39  1  0
 11 12  1  0
 11 44  1  1
 11 17  1  0
 12 13  1  0
 12 19  1  0
 12 40  1  6
 13 14  2  0
 13 15  1  0
 15 17  1  0
 15 16  1  0
 16 41  1  0
 16 42  1  0
 16 43  1  0
 17 18  2  0
 19 20  1  0
 19 21  1  0
 20 45  1  0
 20 46  1  0
 20 47  1  0
 21 22  2  0
 21 23  1  0
 23 24  1  0
 24 48  1  0
 24 49  1  0
 25 50  1  0
 25 51  1  0
M  END
>  <i_m_ct_stereo_status>  (251) 
1

>  <s_m_source_file>  (251) 
/var/tmp/pbs.5076255.sched01/tmp7rmqr72f/92ch8atech.sdf

>  <i_m_source_file_index>  (251) 
5

>  <i_lp_mmshare_version>  (251) 
48012

>  <i_f3d_flags>  (251) 
0

>  <s_epik_input>  (251) 
W0NIM11bQ0BASF0xW0NIMl1bQ0gyXU4oW0NIMl0xKVtDSDJdQyg9W0NIXTIpW0NIMl1OM0MoPU8pTihbQ0gzXSljKGM0W0NAQF0yM1tDSDNdKWMoW09IXSluKFtDSDNdKWM0W09IXQ==

>  <s_epik_cmdline>  (251) 
J2VwaWtfcHl0aG9uJywgJy1waHQnLCAnMi4wJywgJy1waCcsICc3LjAnLCAnLXRuJywgJzgnLCAnLW1hJywgJzIwMCcsICctaW1hZScsICc8aW5maWxlLm1hZT4nLCAnLW9tYWUnLCAnPG91dGZpbGUubWFlPic=

>  <r_lp_tautomer_probability>  (251) 
1

>  <r_epik_Ionization_Penalty>  (251) 
2.09885

>  <r_epik_Ionization_Penalty_Charging>  (251) 
0

>  <r_epik_Ionization_Penalty_Neutral>  (251) 
2.09885

>  <r_epik_State_Penalty>  (251) 
2.23483

>  <r_epik_Charging_Adjusted_Penalty>  (251) 
2.23483

>  <i_epik_Tot_Q>  (251) 
0

>  <i_epik_Tot_abs_Q>  (251) 
0

>  <s_lp_Force_Field>  (251) 
OPLS3e

>  <r_lp_Energy>  (251) 
21.3214

>  <b_lp_Chiralities_Consistent>  (251) 
1

>  <s_lp_Variant>  (251) 
63:0-7

>  <s_i_glide_gridfile>  (251) 
pfpi4k_grid

>  <i_i_glide_lignum>  (251) 
5

>  <i_i_glide_rotatable_bonds>  (251) 
2

>  <r_i_docking_score>  (251) 
-2.68187

>  <r_i_glide_ligand_efficiency>  (251) 
-0.107275

>  <r_i_glide_ligand_efficiency_sa>  (251) 
-0.313673

>  <r_i_glide_ligand_efficiency_ln>  (251) 
-0.635683

>  <r_i_glide_gscore>  (251) 
-2.68187

>  <r_i_glide_lipo>  (251) 
-0.145876

>  <r_i_glide_hbond>  (251) 
0

>  <r_i_glide_metal>  (251) 
-0

>  <r_i_glide_rewards>  (251) 
-1.06877

>  <r_i_glide_evdw>  (251) 
-22.1862

>  <r_i_glide_ecoul>  (251) 
-4.05939

>  <r_i_glide_erotb>  (251) 
0.31684

>  <r_i_glide_esite>  (251) 
-0.065844

>  <r_i_glide_emodel>  (251) 
-28.3003

>  <r_i_glide_energy>  (251) 
-26.2456

>  <r_i_glide_einternal>  (251) 
3.80602

>  <r_i_glide_intrahb_reward>  (251) 
-0

>  <i_i_glide_confnum>  (251) 
4

>  <i_i_glide_posenum>  (251) 
24

>  <r_i_glide_eff_state_penalty>  (251) 
0

>  <ligand_id>  (251) 
63

>  <original_smiles>  (251) 
CC1CCN(CC2=CC3(C)c4c(c(O)n(C)c4O)N(C)C(=O)N3C2)C1

>  <smiles>  (251) 
[H]C1=C(C([H])([H])N2C([H])([H])C([H])([H])C([H])(C([H])([H])[H])C2([H])[H])C([H])([H])N2C(=O)N(C([H])([H])[H])C3([H])C(=O)N(C([H])([H])[H])C(=O)C3([H])C12C([H])([H])[H]

$$$$
63:6:2
     RDKit          3D

 51 54  0  0  1  0  0  0  0  0999 V2000
    4.1128    7.7922    5.8265 C   0  0  0  0  0  0  0  0  0  0  0  0
    3.4697    7.7584    4.4293 C   0  0  2  0  0  0  0  0  0  0  0  0
    1.9577    7.6853    4.5123 C   0  0  0  0  0  0  0  0  0  0  0  0
    1.5963    6.4128    3.7808 C   0  0  0  0  0  0  0  0  0  0  0  0
    2.7797    5.5635    3.9159 N   0  0  0  0  0  0  0  0  0  0  0  0
    2.8181    4.3914    3.0278 C   0  0  0  0  0  0  0  0  0  0  0  0
    1.7375    3.3285    3.2648 C   0  0  0  0  0  0  0  0  0  0  0  0
    0.5324    3.4188    3.8386 C   0  0  0  0  0  0  0  0  0  0  0  0
   -0.2043    2.1219    3.8003 C   0  0  2  0  0  0  0  0  0  0  0  0
   -1.2014    2.1397    2.6343 C   0  0  0  0  0  0  0  0  0  0  0  0
   -0.9203    1.7754    5.1071 C   0  0  1  0  0  0  0  0  0  0  0  0
    0.0761    1.1980    6.0775 C   0  0  1  0  0  0  0  0  0  0  0  0
   -0.7487    1.2992    7.3704 C   0  0  0  0  0  0  0  0  0  0  0  0
   -0.5735    0.5843    8.3593 O   0  0  0  0  0  0  0  0  0  0  0  0
   -1.6521    2.2918    7.2568 N   0  0  0  0  0  0  0  0  0  0  0  0
   -2.4534    2.8281    8.3615 C   0  0  0  0  0  0  0  0  0  0  0  0
   -1.6998    2.7440    5.9962 C   0  0  0  0  0  0  0  0  0  0  0  0
   -2.3153    3.7302    5.5850 O   0  0  0  0  0  0  0  0  0  0  0  0
    0.5858   -0.0506    5.4740 N   0  0  0  0  0  0  0  0  0  0  0  0
    0.6869   -1.2526    6.3028 C   0  0  0  0  0  0  0  0  0  0  0  0
    1.2204    0.0597    4.2636 C   0  0  0  0  0  0  0  0  0  0  0  0
    2.0487   -0.7616    3.8838 O   0  0  0  0  0  0  0  0  0  0  0  0
    0.9124    1.1736    3.5291 N   0  0  0  0  0  0  0  0  0  0  0  0
    1.9580    1.9049    2.7888 C   0  0  0  0  0  0  0  0  0  0  0  0
    3.8697    6.4969    3.6399 C   0  0  0  0  0  0  0  0  0  0  0  0
    3.8576    6.8879    6.3829 H   0  0  0  0  0  0  0  0  0  0  0  0
    3.7542    8.6478    6.4009 H   0  0  0  0  0  0  0  0  0  0  0  0
    5.2012    7.8490    5.7563 H   0  0  0  0  0  0  0  0  0  0  0  0
    3.7439    8.6557    3.8699 H   0  0  0  0  0  0  0  0  0  0  0  0
    1.6163    7.5784    5.5411 H   0  0  0  0  0  0  0  0  0  0  0  0
    1.4454    8.5371    4.0796 H   0  0  0  0  0  0  0  0  0  0  0  0
    0.7095    6.0666    4.3014 H   0  0  0  0  0  0  0  0  0  0  0  0
    1.3815    6.5811    2.7207 H   0  0  0  0  0  0  0  0  0  0  0  0
    2.7715    4.7126    1.9899 H   0  0  0  0  0  0  0  0  0  0  0  0
    3.7845    3.9124    3.1443 H   0  0  0  0  0  0  0  0  0  0  0  0
    0.0238    4.2592    4.2945 H   0  0  0  0  0  0  0  0  0  0  0  0
   -1.9956    2.8746    2.7966 H   0  0  0  0  0  0  0  0  0  0  0  0
   -1.6591    1.1634    2.4851 H   0  0  0  0  0  0  0  0  0  0  0  0
   -0.6967    2.4111    1.7063 H   0  0  0  0  0  0  0  0  0  0  0  0
    0.9348    1.8621    6.2322 H   0  0  0  0  0  0  0  0  0  0  0  0
   -3.4046    3.2198    8.0038 H   0  0  0  0  0  0  0  0  0  0  0  0
   -1.9223    3.6411    8.8546 H   0  0  0  0  0  0  0  0  0  0  0  0
   -2.6694    2.0704    9.1141 H   0  0  0  0  0  0  0  0  0  0  0  0
   -1.6504    1.0019    4.8675 H   0  0  0  0  0  0  0  0  0  0  0  0
    0.9887   -2.1163    5.7176 H   0  0  0  0  0  0  0  0  0  0  0  0
   -0.2685   -1.5090    6.7586 H   0  0  0  0  0  0  0  0  0  0  0  0
    1.4258   -1.1082    7.0894 H   0  0  0  0  0  0  0  0  0  0  0  0
    1.7792    1.8355    1.7144 H   0  0  0  0  0  0  0  0  0  0  0  0
    2.9769    1.5729    3.0046 H   0  0  0  0  0  0  0  0  0  0  0  0
    3.9000    6.7256    2.5731 H   0  0  0  0  0  0  0  0  0  0  0  0
    4.8554    6.1266    3.9219 H   0  0  0  0  0  0  0  0  0  0  0  0
  1  2  1  0
  1 26  1  0
  1 27  1  0
  1 28  1  0
  2 25  1  0
  2  3  1  0
  2 29  1  6
  3  4  1  0
  3 30  1  0
  3 31  1  0
  4  5  1  0
  4 32  1  0
  4 33  1  0
  5  6  1  0
  5 25  1  0
  6  7  1  0
  6 34  1  0
  6 35  1  0
  7 24  1  0
  7  8  2  0
  8  9  1  0
  8 36  1  0
  9 23  1  0
  9 10  1  6
  9 11  1  0
 10 37  1  0
 10 38  1  0
 10 39  1  0
 11 12  1  0
 11 44  1  6
 11 17  1  0
 12 13  1  0
 12 19  1  0
 12 40  1  1
 13 14  2  0
 13 15  1  0
 15 17  1  0
 15 16  1  0
 16 41  1  0
 16 42  1  0
 16 43  1  0
 17 18  2  0
 19 20  1  0
 19 21  1  0
 20 45  1  0
 20 46  1  0
 20 47  1  0
 21 22  2  0
 21 23  1  0
 23 24  1  0
 24 48  1  0
 24 49  1  0
 25 50  1  0
 25 51  1  0
M  END
>  <i_m_ct_stereo_status>  (252) 
1

>  <s_m_source_file>  (252) 
/var/tmp/pbs.5076255.sched01/tmp7rmqr72f/92ch8atech.sdf

>  <i_m_source_file_index>  (252) 
5

>  <i_lp_mmshare_version>  (252) 
48012

>  <i_f3d_flags>  (252) 
0

>  <s_epik_input>  (252) 
W0NIM11bQ0BASF0xW0NIMl1bQ0gyXU4oW0NIMl0xKVtDSDJdQyg9W0NIXTIpW0NIMl1OM0MoPU8pTihbQ0gzXSljKGM0W0NAQF0yM1tDSDNdKWMoW09IXSluKFtDSDNdKWM0W09IXQ==

>  <s_epik_cmdline>  (252) 
J2VwaWtfcHl0aG9uJywgJy1waHQnLCAnMi4wJywgJy1waCcsICc3LjAnLCAnLXRuJywgJzgnLCAnLW1hJywgJzIwMCcsICctaW1hZScsICc8aW5maWxlLm1hZT4nLCAnLW9tYWUnLCAnPG91dGZpbGUubWFlPic=

>  <r_lp_tautomer_probability>  (252) 
1

>  <r_epik_Ionization_Penalty>  (252) 
2.09885

>  <r_epik_Ionization_Penalty_Charging>  (252) 
0

>  <r_epik_Ionization_Penalty_Neutral>  (252) 
2.09885

>  <r_epik_State_Penalty>  (252) 
2.23483

>  <r_epik_Charging_Adjusted_Penalty>  (252) 
2.23483

>  <i_epik_Tot_Q>  (252) 
0

>  <i_epik_Tot_abs_Q>  (252) 
0

>  <s_lp_Force_Field>  (252) 
OPLS3e

>  <r_lp_Energy>  (252) 
21.3214

>  <b_lp_Chiralities_Consistent>  (252) 
1

>  <s_lp_Variant>  (252) 
63:0-7

>  <s_i_glide_gridfile>  (252) 
pfpi4k_grid

>  <i_i_glide_lignum>  (252) 
5

>  <i_i_glide_rotatable_bonds>  (252) 
2

>  <r_i_docking_score>  (252) 
-2.49411

>  <r_i_glide_ligand_efficiency>  (252) 
-0.0997645

>  <r_i_glide_ligand_efficiency_sa>  (252) 
-0.291713

>  <r_i_glide_ligand_efficiency_ln>  (252) 
-0.591179

>  <r_i_glide_gscore>  (252) 
-2.49411

>  <r_i_glide_lipo>  (252) 
-0.145223

>  <r_i_glide_hbond>  (252) 
-0.0060386

>  <r_i_glide_metal>  (252) 
-0

>  <r_i_glide_rewards>  (252) 
-1.11345

>  <r_i_glide_evdw>  (252) 
-22.9118

>  <r_i_glide_ecoul>  (252) 
-2.20487

>  <r_i_glide_erotb>  (252) 
0.31684

>  <r_i_glide_esite>  (252) 
-0.069925

>  <r_i_glide_emodel>  (252) 
-27.5111

>  <r_i_glide_energy>  (252) 
-25.1167

>  <r_i_glide_einternal>  (252) 
1.63509

>  <r_i_glide_intrahb_reward>  (252) 
-0

>  <i_i_glide_confnum>  (252) 
4

>  <i_i_glide_posenum>  (252) 
33

>  <r_i_glide_eff_state_penalty>  (252) 
0

>  <ligand_id>  (252) 
63

>  <original_smiles>  (252) 
CC1CCN(CC2=CC3(C)c4c(c(O)n(C)c4O)N(C)C(=O)N3C2)C1

>  <smiles>  (252) 
[H]C1=C(C([H])([H])N2C([H])([H])C([H])([H])C([H])(C([H])([H])[H])C2([H])[H])C([H])([H])N2C(=O)N(C([H])([H])[H])C3([H])C(=O)N(C([H])([H])[H])C(=O)C3([H])C12C([H])([H])[H]

$$$$
63:7:0
     RDKit          3D

 51 54  0  0  1  0  0  0  0  0999 V2000
    0.7330  -10.6646    2.9021 C   0  0  0  0  0  0  0  0  0  0  0  0
    1.8343  -10.3452    3.9238 C   0  0  2  0  0  0  0  0  0  0  0  0
    1.7306   -8.9197    4.4697 C   0  0  0  0  0  0  0  0  0  0  0  0
    3.0612   -8.2608    4.1057 C   0  0  0  0  0  0  0  0  0  0  0  0
    3.5123   -9.0071    2.9362 N   0  0  0  0  0  0  0  0  0  0  0  0
    4.9291   -8.8156    2.6201 C   0  0  0  0  0  0  0  0  0  0  0  0
    5.3201   -7.4203    2.1487 C   0  0  0  0  0  0  0  0  0  0  0  0
    4.5419   -6.3925    1.8007 C   0  0  0  0  0  0  0  0  0  0  0  0
    5.3579   -5.1924    1.3857 C   0  0  2  0  0  0  0  0  0  0  0  0
    5.2030   -4.0671    2.4478 C   0  0  0  0  0  0  0  0  0  0  0  0
    5.1004   -4.7515   -0.0794 C   0  0  2  0  0  0  0  0  0  0  0  0
    6.2674   -3.8784   -0.6123 C   0  0  1  0  0  0  0  0  0  0  0  0
    5.6058   -2.5138   -0.7842 C   0  0  0  0  0  0  0  0  0  0  0  0
    6.2124   -1.4962   -1.1191 O   0  0  0  0  0  0  0  0  0  0  0  0
    4.2826   -2.6102   -0.6223 N   0  0  0  0  0  0  0  0  0  0  0  0
    3.3727   -1.5150   -0.8723 C   0  0  0  0  0  0  0  0  0  0  0  0
    3.8865   -3.8381   -0.2494 C   0  0  0  0  0  0  0  0  0  0  0  0
    2.7272   -4.2097   -0.0483 O   0  0  0  0  0  0  0  0  0  0  0  0
    7.5220   -3.9403    0.1946 N   0  0  0  0  0  0  0  0  0  0  0  0
    8.6065   -3.0189   -0.1818 C   0  0  0  0  0  0  0  0  0  0  0  0
    7.8148   -5.0568    0.9174 C   0  0  0  0  0  0  0  0  0  0  0  0
    8.9684   -5.4418    1.1081 O   0  0  0  0  0  0  0  0  0  0  0  0
    6.7376   -5.7001    1.4315 N   0  0  0  0  0  0  0  0  0  0  0  0
    6.7722   -7.0556    1.9942 C   0  0  0  0  0  0  0  0  0  0  0  0
    3.2345  -10.3952    3.3019 C   0  0  0  0  0  0  0  0  0  0  0  0
    0.7918   -9.9746    2.0620 H   0  0  0  0  0  0  0  0  0  0  0  0
   -0.2581  -10.5672    3.3426 H   0  0  0  0  0  0  0  0  0  0  0  0
    0.8214  -11.6770    2.5098 H   0  0  0  0  0  0  0  0  0  0  0  0
    1.7750  -11.0636    4.7433 H   0  0  0  0  0  0  0  0  0  0  0  0
    0.9048   -8.3809    4.0036 H   0  0  0  0  0  0  0  0  0  0  0  0
    1.5562   -8.9082    5.5462 H   0  0  0  0  0  0  0  0  0  0  0  0
    2.9377   -7.1990    3.9019 H   0  0  0  0  0  0  0  0  0  0  0  0
    3.7727   -8.3807    4.9251 H   0  0  0  0  0  0  0  0  0  0  0  0
    5.5287   -9.0535    3.5003 H   0  0  0  0  0  0  0  0  0  0  0  0
    5.2160   -9.5250    1.8415 H   0  0  0  0  0  0  0  0  0  0  0  0
    3.4629   -6.3879    1.8074 H   0  0  0  0  0  0  0  0  0  0  0  0
    4.1657   -3.7473    2.5665 H   0  0  0  0  0  0  0  0  0  0  0  0
    5.7981   -3.1822    2.2162 H   0  0  0  0  0  0  0  0  0  0  0  0
    5.5352   -4.4214    3.4236 H   0  0  0  0  0  0  0  0  0  0  0  0
    6.4832   -4.1653   -1.6313 H   0  0  0  0  0  0  0  0  0  0  0  0
    2.8979   -1.2027    0.0585 H   0  0  0  0  0  0  0  0  0  0  0  0
    2.6227   -1.8693   -1.5768 H   0  0  0  0  0  0  0  0  0  0  0  0
    3.8268   -0.6449   -1.3398 H   0  0  0  0  0  0  0  0  0  0  0  0
    4.9769   -5.6333   -0.7149 H   0  0  0  0  0  0  0  0  0  0  0  0
    9.5091   -3.1555    0.4129 H   0  0  0  0  0  0  0  0  0  0  0  0
    8.3315   -1.9821   -0.0076 H   0  0  0  0  0  0  0  0  0  0  0  0
    8.8856   -3.1428   -1.2289 H   0  0  0  0  0  0  0  0  0  0  0  0
    7.2773   -7.0700    2.9612 H   0  0  0  0  0  0  0  0  0  0  0  0
    7.2571   -7.7554    1.3128 H   0  0  0  0  0  0  0  0  0  0  0  0
    3.9508  -10.7411    4.0522 H   0  0  0  0  0  0  0  0  0  0  0  0
    3.2998  -11.0775    2.4527 H   0  0  0  0  0  0  0  0  0  0  0  0
  1  2  1  0
  1 26  1  0
  1 27  1  0
  1 28  1  0
  2 25  1  0
  2  3  1  0
  2 29  1  1
  3  4  1  0
  3 30  1  0
  3 31  1  0
  4  5  1  0
  4 32  1  0
  4 33  1  0
  5  6  1  0
  5 25  1  0
  6  7  1  0
  6 34  1  0
  6 35  1  0
  7 24  1  0
  7  8  2  0
  8  9  1  0
  8 36  1  0
  9 23  1  0
  9 10  1  1
  9 11  1  0
 10 37  1  0
 10 38  1  0
 10 39  1  0
 11 12  1  0
 11 44  1  6
 11 17  1  0
 12 13  1  0
 12 19  1  0
 12 40  1  6
 13 14  2  0
 13 15  1  0
 15 17  1  0
 15 16  1  0
 16 41  1  0
 16 42  1  0
 16 43  1  0
 17 18  2  0
 19 20  1  0
 19 21  1  0
 20 45  1  0
 20 46  1  0
 20 47  1  0
 21 22  2  0
 21 23  1  0
 23 24  1  0
 24 48  1  0
 24 49  1  0
 25 50  1  0
 25 51  1  0
M  END
>  <i_m_ct_stereo_status>  (253) 
1

>  <s_m_source_file>  (253) 
/var/tmp/pbs.5076255.sched01/tmp7rmqr72f/92ch8atech.sdf

>  <i_m_source_file_index>  (253) 
6

>  <i_lp_mmshare_version>  (253) 
48012

>  <i_f3d_flags>  (253) 
0

>  <s_epik_input>  (253) 
W0NIM11bQ0BASF0xW0NIMl1bQ0gyXU4oW0NIMl0xKVtDSDJdQyg9W0NIXTIpW0NIMl1OM0MoPU8pTihbQ0gzXSljKGM0W0NAQF0yM1tDSDNdKWMoW09IXSluKFtDSDNdKWM0W09IXQ==

>  <s_epik_cmdline>  (253) 
J2VwaWtfcHl0aG9uJywgJy1waHQnLCAnMi4wJywgJy1waCcsICc3LjAnLCAnLXRuJywgJzgnLCAnLW1hJywgJzIwMCcsICctaW1hZScsICc8aW5maWxlLm1hZT4nLCAnLW9tYWUnLCAnPG91dGZpbGUubWFlPic=

>  <r_lp_tautomer_probability>  (253) 
1

>  <r_epik_Ionization_Penalty>  (253) 
2.09885

>  <r_epik_Ionization_Penalty_Charging>  (253) 
0

>  <r_epik_Ionization_Penalty_Neutral>  (253) 
2.09885

>  <r_epik_State_Penalty>  (253) 
2.23483

>  <r_epik_Charging_Adjusted_Penalty>  (253) 
2.23483

>  <i_epik_Tot_Q>  (253) 
0

>  <i_epik_Tot_abs_Q>  (253) 
0

>  <s_lp_Force_Field>  (253) 
OPLS3e

>  <r_lp_Energy>  (253) 
8.3267

>  <b_lp_Chiralities_Consistent>  (253) 
1

>  <s_lp_Variant>  (253) 
63:0-8

>  <s_i_glide_gridfile>  (253) 
pfpi4k_grid

>  <i_i_glide_lignum>  (253) 
6

>  <i_i_glide_rotatable_bonds>  (253) 
2

>  <r_i_docking_score>  (253) 
-3.54197

>  <r_i_glide_ligand_efficiency>  (253) 
-0.141679

>  <r_i_glide_ligand_efficiency_sa>  (253) 
-0.414271

>  <r_i_glide_ligand_efficiency_ln>  (253) 
-0.839553

>  <r_i_glide_gscore>  (253) 
-3.54197

>  <r_i_glide_lipo>  (253) 
-0.409564

>  <r_i_glide_hbond>  (253) 
-0.121439

>  <r_i_glide_metal>  (253) 
-0

>  <r_i_glide_rewards>  (253) 
-1.55918

>  <r_i_glide_evdw>  (253) 
-24.8454

>  <r_i_glide_ecoul>  (253) 
-3.31853

>  <r_i_glide_erotb>  (253) 
0.31684

>  <r_i_glide_esite>  (253) 
-0.0285756

>  <r_i_glide_emodel>  (253) 
-33.9197

>  <r_i_glide_energy>  (253) 
-28.1639

>  <r_i_glide_einternal>  (253) 
1.36819

>  <r_i_glide_intrahb_reward>  (253) 
-0

>  <i_i_glide_confnum>  (253) 
3

>  <i_i_glide_posenum>  (253) 
36

>  <r_i_glide_eff_state_penalty>  (253) 
0

>  <ligand_id>  (253) 
63

>  <original_smiles>  (253) 
CC1CCN(CC2=CC3(C)c4c(c(O)n(C)c4O)N(C)C(=O)N3C2)C1

>  <smiles>  (253) 
[H]C1=C(C([H])([H])N2C([H])([H])C([H])([H])C([H])(C([H])([H])[H])C2([H])[H])C([H])([H])N2C(=O)N(C([H])([H])[H])C3([H])C(=O)N(C([H])([H])[H])C(=O)C3([H])C12C([H])([H])[H]

$$$$
63:7:1
     RDKit          3D

 51 54  0  0  1  0  0  0  0  0999 V2000
   -1.7041   -9.0993    2.1465 C   0  0  0  0  0  0  0  0  0  0  0  0
   -1.0242   -8.5831    3.4241 C   0  0  2  0  0  0  0  0  0  0  0  0
   -1.0696   -7.0621    3.5341 C   0  0  0  0  0  0  0  0  0  0  0  0
    0.3946   -6.6287    3.6056 C   0  0  0  0  0  0  0  0  0  0  0  0
    1.1030   -7.6982    2.9143 N   0  0  0  0  0  0  0  0  0  0  0  0
    2.5505   -7.7229    3.1485 C   0  0  0  0  0  0  0  0  0  0  0  0
    3.3421   -6.5827    2.5168 C   0  0  0  0  0  0  0  0  0  0  0  0
    2.9266   -5.5285    1.8173 C   0  0  0  0  0  0  0  0  0  0  0  0
    4.0672   -4.6462    1.3911 C   0  0  2  0  0  0  0  0  0  0  0  0
    4.0141   -3.3034    2.1700 C   0  0  0  0  0  0  0  0  0  0  0  0
    4.1711   -4.5095   -0.1437 C   0  0  2  0  0  0  0  0  0  0  0  0
    5.5765   -4.0502   -0.5857 C   0  0  1  0  0  0  0  0  0  0  0  0
    5.3147   -2.6446   -1.1524 C   0  0  0  0  0  0  0  0  0  0  0  0
    6.1959   -1.8608   -1.5139 O   0  0  0  0  0  0  0  0  0  0  0  0
    3.9974   -2.4365   -1.2740 N   0  0  0  0  0  0  0  0  0  0  0  0
    3.4132   -1.2531   -1.8969 C   0  0  0  0  0  0  0  0  0  0  0  0
    3.2712   -3.4412   -0.7557 C   0  0  0  0  0  0  0  0  0  0  0  0
    2.0483   -3.5408   -0.7582 O   0  0  0  0  0  0  0  0  0  0  0  0
    6.6296   -4.1961    0.4660 N   0  0  0  0  0  0  0  0  0  0  0  0
    7.9520   -3.6189    0.1739 C   0  0  0  0  0  0  0  0  0  0  0  0
    6.5117   -5.1408    1.4403 C   0  0  0  0  0  0  0  0  0  0  0  0
    7.4760   -5.7109    1.9573 O   0  0  0  0  0  0  0  0  0  0  0  0
    5.2460   -5.4067    1.8271 N   0  0  0  0  0  0  0  0  0  0  0  0
    4.8457   -6.5715    2.6290 C   0  0  0  0  0  0  0  0  0  0  0  0
    0.4713   -8.9043    3.4481 C   0  0  0  0  0  0  0  0  0  0  0  0
   -1.2158   -8.6624    1.2775 H   0  0  0  0  0  0  0  0  0  0  0  0
   -2.7537   -8.8181    2.0941 H   0  0  0  0  0  0  0  0  0  0  0  0
   -1.6418  -10.1863    2.0639 H   0  0  0  0  0  0  0  0  0  0  0  0
   -1.5068   -9.0318    4.2897 H   0  0  0  0  0  0  0  0  0  0  0  0
   -1.5523   -6.6563    2.6477 H   0  0  0  0  0  0  0  0  0  0  0  0
   -1.6295   -6.7232    4.4057 H   0  0  0  0  0  0  0  0  0  0  0  0
    0.5267   -5.6521    3.1462 H   0  0  0  0  0  0  0  0  0  0  0  0
    0.7261   -6.5714    4.6453 H   0  0  0  0  0  0  0  0  0  0  0  0
    2.7483   -7.7188    4.2228 H   0  0  0  0  0  0  0  0  0  0  0  0
    2.9533   -8.6615    2.7644 H   0  0  0  0  0  0  0  0  0  0  0  0
    1.9060   -5.2885    1.5597 H   0  0  0  0  0  0  0  0  0  0  0  0
    3.0800   -2.7589    2.0050 H   0  0  0  0  0  0  0  0  0  0  0  0
    4.8384   -2.6386    1.9115 H   0  0  0  0  0  0  0  0  0  0  0  0
    4.0842   -3.4916    3.2403 H   0  0  0  0  0  0  0  0  0  0  0  0
    5.8109   -4.6687   -1.4428 H   0  0  0  0  0  0  0  0  0  0  0  0
    2.9777   -0.6610   -1.1062 H   0  0  0  0  0  0  0  0  0  0  0  0
    2.6266   -1.5254   -2.6111 H   0  0  0  0  0  0  0  0  0  0  0  0
    4.1314   -0.6140   -2.4200 H   0  0  0  0  0  0  0  0  0  0  0  0
    3.9321   -5.4643   -0.6126 H   0  0  0  0  0  0  0  0  0  0  0  0
    8.6821   -3.8064    0.9644 H   0  0  0  0  0  0  0  0  0  0  0  0
    7.9146   -2.5357    0.0976 H   0  0  0  0  0  0  0  0  0  0  0  0
    8.3614   -4.0232   -0.7505 H   0  0  0  0  0  0  0  0  0  0  0  0
    5.1640   -6.4729    3.6673 H   0  0  0  0  0  0  0  0  0  0  0  0
    5.2424   -7.4904    2.1992 H   0  0  0  0  0  0  0  0  0  0  0  0
    0.7829   -9.0766    4.4811 H   0  0  0  0  0  0  0  0  0  0  0  0
    0.7205   -9.8027    2.8812 H   0  0  0  0  0  0  0  0  0  0  0  0
  1  2  1  0
  1 26  1  0
  1 27  1  0
  1 28  1  0
  2 25  1  0
  2  3  1  0
  2 29  1  1
  3  4  1  0
  3 30  1  0
  3 31  1  0
  4  5  1  0
  4 32  1  0
  4 33  1  0
  5  6  1  0
  5 25  1  0
  6  7  1  0
  6 34  1  0
  6 35  1  0
  7 24  1  0
  7  8  2  0
  8  9  1  0
  8 36  1  0
  9 23  1  0
  9 10  1  1
  9 11  1  0
 10 37  1  0
 10 38  1  0
 10 39  1  0
 11 12  1  0
 11 44  1  6
 11 17  1  0
 12 13  1  0
 12 19  1  0
 12 40  1  6
 13 14  2  0
 13 15  1  0
 15 17  1  0
 15 16  1  0
 16 41  1  0
 16 42  1  0
 16 43  1  0
 17 18  2  0
 19 20  1  0
 19 21  1  0
 20 45  1  0
 20 46  1  0
 20 47  1  0
 21 22  2  0
 21 23  1  0
 23 24  1  0
 24 48  1  0
 24 49  1  0
 25 50  1  0
 25 51  1  0
M  END
>  <i_m_ct_stereo_status>  (254) 
1

>  <s_m_source_file>  (254) 
/var/tmp/pbs.5076255.sched01/tmp7rmqr72f/92ch8atech.sdf

>  <i_m_source_file_index>  (254) 
6

>  <i_lp_mmshare_version>  (254) 
48012

>  <i_f3d_flags>  (254) 
0

>  <s_epik_input>  (254) 
W0NIM11bQ0BASF0xW0NIMl1bQ0gyXU4oW0NIMl0xKVtDSDJdQyg9W0NIXTIpW0NIMl1OM0MoPU8pTihbQ0gzXSljKGM0W0NAQF0yM1tDSDNdKWMoW09IXSluKFtDSDNdKWM0W09IXQ==

>  <s_epik_cmdline>  (254) 
J2VwaWtfcHl0aG9uJywgJy1waHQnLCAnMi4wJywgJy1waCcsICc3LjAnLCAnLXRuJywgJzgnLCAnLW1hJywgJzIwMCcsICctaW1hZScsICc8aW5maWxlLm1hZT4nLCAnLW9tYWUnLCAnPG91dGZpbGUubWFlPic=

>  <r_lp_tautomer_probability>  (254) 
1

>  <r_epik_Ionization_Penalty>  (254) 
2.09885

>  <r_epik_Ionization_Penalty_Charging>  (254) 
0

>  <r_epik_Ionization_Penalty_Neutral>  (254) 
2.09885

>  <r_epik_State_Penalty>  (254) 
2.23483

>  <r_epik_Charging_Adjusted_Penalty>  (254) 
2.23483

>  <i_epik_Tot_Q>  (254) 
0

>  <i_epik_Tot_abs_Q>  (254) 
0

>  <s_lp_Force_Field>  (254) 
OPLS3e

>  <r_lp_Energy>  (254) 
8.3267

>  <b_lp_Chiralities_Consistent>  (254) 
1

>  <s_lp_Variant>  (254) 
63:0-8

>  <s_i_glide_gridfile>  (254) 
pfpi4k_grid

>  <i_i_glide_lignum>  (254) 
6

>  <i_i_glide_rotatable_bonds>  (254) 
2

>  <r_i_docking_score>  (254) 
-3.54

>  <r_i_glide_ligand_efficiency>  (254) 
-0.1416

>  <r_i_glide_ligand_efficiency_sa>  (254) 
-0.414041

>  <r_i_glide_ligand_efficiency_ln>  (254) 
-0.839086

>  <r_i_glide_gscore>  (254) 
-3.54

>  <r_i_glide_lipo>  (254) 
-0.491169

>  <r_i_glide_hbond>  (254) 
-0.161051

>  <r_i_glide_metal>  (254) 
-0

>  <r_i_glide_rewards>  (254) 
-1.451

>  <r_i_glide_evdw>  (254) 
-26.9879

>  <r_i_glide_ecoul>  (254) 
-2.46604

>  <r_i_glide_erotb>  (254) 
0.31684

>  <r_i_glide_esite>  (254) 
-0.0343172

>  <r_i_glide_emodel>  (254) 
-35.3186

>  <r_i_glide_energy>  (254) 
-29.4539

>  <r_i_glide_einternal>  (254) 
0.900151

>  <r_i_glide_intrahb_reward>  (254) 
-0

>  <i_i_glide_confnum>  (254) 
3

>  <i_i_glide_posenum>  (254) 
29

>  <r_i_glide_eff_state_penalty>  (254) 
0

>  <ligand_id>  (254) 
63

>  <original_smiles>  (254) 
CC1CCN(CC2=CC3(C)c4c(c(O)n(C)c4O)N(C)C(=O)N3C2)C1

>  <smiles>  (254) 
[H]C1=C(C([H])([H])N2C([H])([H])C([H])([H])C([H])(C([H])([H])[H])C2([H])[H])C([H])([H])N2C(=O)N(C([H])([H])[H])C3([H])C(=O)N(C([H])([H])[H])C(=O)C3([H])C12C([H])([H])[H]

$$$$
63:7:2
     RDKit          3D

 51 54  0  0  1  0  0  0  0  0999 V2000
   -0.8951   -7.1947    2.6497 C   0  0  0  0  0  0  0  0  0  0  0  0
   -0.0536   -8.4581    2.4351 C   0  0  2  0  0  0  0  0  0  0  0  0
    0.1922   -9.2262    3.7335 C   0  0  0  0  0  0  0  0  0  0  0  0
    1.7132   -9.2292    3.8863 C   0  0  0  0  0  0  0  0  0  0  0  0
    2.1544   -8.0538    3.1370 N   0  0  0  0  0  0  0  0  0  0  0  0
    3.5999   -8.0932    2.8935 C   0  0  0  0  0  0  0  0  0  0  0  0
    4.2123   -6.8268    2.3047 C   0  0  0  0  0  0  0  0  0  0  0  0
    3.6258   -5.7385    1.7996 C   0  0  0  0  0  0  0  0  0  0  0  0
    4.6334   -4.7192    1.3353 C   0  0  2  0  0  0  0  0  0  0  0  0
    4.5295   -3.4632    2.2420 C   0  0  0  0  0  0  0  0  0  0  0  0
    4.5741   -4.4419   -0.1921 C   0  0  2  0  0  0  0  0  0  0  0  0
    5.8944   -3.8034   -0.6967 C   0  0  1  0  0  0  0  0  0  0  0  0
    5.4304   -2.3969   -1.0879 C   0  0  0  0  0  0  0  0  0  0  0  0
    6.1967   -1.4994   -1.4399 O   0  0  0  0  0  0  0  0  0  0  0  0
    4.0944   -2.3092   -1.0731 N   0  0  0  0  0  0  0  0  0  0  0  0
    3.3675   -1.1356   -1.5372 C   0  0  0  0  0  0  0  0  0  0  0  0
    3.5083   -3.4226   -0.6035 C   0  0  0  0  0  0  0  0  0  0  0  0
    2.2972   -3.6402   -0.4925 O   0  0  0  0  0  0  0  0  0  0  0  0
    7.0411   -3.9075    0.2544 N   0  0  0  0  0  0  0  0  0  0  0  0
    8.2717   -3.1785   -0.1026 C   0  0  0  0  0  0  0  0  0  0  0  0
    7.1101   -4.9527    1.1230 C   0  0  0  0  0  0  0  0  0  0  0  0
    8.1744   -5.4542    1.4860 O   0  0  0  0  0  0  0  0  0  0  0  0
    5.9154   -5.3907    1.5829 N   0  0  0  0  0  0  0  0  0  0  0  0
    5.7097   -6.6661    2.2770 C   0  0  0  0  0  0  0  0  0  0  0  0
    1.3508   -8.1284    1.9218 C   0  0  0  0  0  0  0  0  0  0  0  0
   -0.4150   -6.5299    3.3675 H   0  0  0  0  0  0  0  0  0  0  0  0
   -1.8878   -7.4354    3.0303 H   0  0  0  0  0  0  0  0  0  0  0  0
   -1.0056   -6.6578    1.7104 H   0  0  0  0  0  0  0  0  0  0  0  0
   -0.5513   -9.0943    1.7039 H   0  0  0  0  0  0  0  0  0  0  0  0
   -0.2757   -8.7399    4.5913 H   0  0  0  0  0  0  0  0  0  0  0  0
   -0.2101  -10.2395    3.6889 H   0  0  0  0  0  0  0  0  0  0  0  0
    2.0109   -9.1931    4.9335 H   0  0  0  0  0  0  0  0  0  0  0  0
    2.1256  -10.1398    3.4471 H   0  0  0  0  0  0  0  0  0  0  0  0
    4.1016   -8.2810    3.8435 H   0  0  0  0  0  0  0  0  0  0  0  0
    3.8474   -8.9355    2.2413 H   0  0  0  0  0  0  0  0  0  0  0  0
    2.5692   -5.5499    1.7261 H   0  0  0  0  0  0  0  0  0  0  0  0
    3.5350   -3.0097    2.2114 H   0  0  0  0  0  0  0  0  0  0  0  0
    5.2573   -2.6921    1.9803 H   0  0  0  0  0  0  0  0  0  0  0  0
    4.7169   -3.7375    3.2808 H   0  0  0  0  0  0  0  0  0  0  0  0
    6.1967   -4.2546   -1.6346 H   0  0  0  0  0  0  0  0  0  0  0  0
    2.9440   -0.6634   -0.6580 H   0  0  0  0  0  0  0  0  0  0  0  0
    2.5746   -1.4221   -2.2254 H   0  0  0  0  0  0  0  0  0  0  0  0
    3.9754   -0.3909   -2.0495 H   0  0  0  0  0  0  0  0  0  0  0  0
    4.3868   -5.3800   -0.7232 H   0  0  0  0  0  0  0  0  0  0  0  0
    9.0845   -3.3563    0.5967 H   0  0  0  0  0  0  0  0  0  0  0  0
    8.1203   -2.1038   -0.0700 H   0  0  0  0  0  0  0  0  0  0  0  0
    8.6236   -3.4554   -1.0962 H   0  0  0  0  0  0  0  0  0  0  0  0
    6.1097   -6.6250    3.2929 H   0  0  0  0  0  0  0  0  0  0  0  0
    6.1607   -7.4980    1.7352 H   0  0  0  0  0  0  0  0  0  0  0  0
    1.7190   -8.9391    1.2902 H   0  0  0  0  0  0  0  0  0  0  0  0
    1.3564   -7.2162    1.3302 H   0  0  0  0  0  0  0  0  0  0  0  0
  1  2  1  0
  1 26  1  0
  1 27  1  0
  1 28  1  0
  2 25  1  0
  2  3  1  0
  2 29  1  6
  3  4  1  0
  3 30  1  0
  3 31  1  0
  4  5  1  0
  4 32  1  0
  4 33  1  0
  5  6  1  0
  5 25  1  0
  6  7  1  0
  6 34  1  0
  6 35  1  0
  7 24  1  0
  7  8  2  0
  8  9  1  0
  8 36  1  0
  9 23  1  0
  9 10  1  1
  9 11  1  0
 10 37  1  0
 10 38  1  0
 10 39  1  0
 11 12  1  0
 11 44  1  6
 11 17  1  0
 12 13  1  0
 12 19  1  0
 12 40  1  6
 13 14  2  0
 13 15  1  0
 15 17  1  0
 15 16  1  0
 16 41  1  0
 16 42  1  0
 16 43  1  0
 17 18  2  0
 19 20  1  0
 19 21  1  0
 20 45  1  0
 20 46  1  0
 20 47  1  0
 21 22  2  0
 21 23  1  0
 23 24  1  0
 24 48  1  0
 24 49  1  0
 25 50  1  0
 25 51  1  0
M  END
>  <i_m_ct_stereo_status>  (255) 
1

>  <s_m_source_file>  (255) 
/var/tmp/pbs.5076255.sched01/tmp7rmqr72f/92ch8atech.sdf

>  <i_m_source_file_index>  (255) 
6

>  <i_lp_mmshare_version>  (255) 
48012

>  <i_f3d_flags>  (255) 
0

>  <s_epik_input>  (255) 
W0NIM11bQ0BASF0xW0NIMl1bQ0gyXU4oW0NIMl0xKVtDSDJdQyg9W0NIXTIpW0NIMl1OM0MoPU8pTihbQ0gzXSljKGM0W0NAQF0yM1tDSDNdKWMoW09IXSluKFtDSDNdKWM0W09IXQ==

>  <s_epik_cmdline>  (255) 
J2VwaWtfcHl0aG9uJywgJy1waHQnLCAnMi4wJywgJy1waCcsICc3LjAnLCAnLXRuJywgJzgnLCAnLW1hJywgJzIwMCcsICctaW1hZScsICc8aW5maWxlLm1hZT4nLCAnLW9tYWUnLCAnPG91dGZpbGUubWFlPic=

>  <r_lp_tautomer_probability>  (255) 
1

>  <r_epik_Ionization_Penalty>  (255) 
2.09885

>  <r_epik_Ionization_Penalty_Charging>  (255) 
0

>  <r_epik_Ionization_Penalty_Neutral>  (255) 
2.09885

>  <r_epik_State_Penalty>  (255) 
2.23483

>  <r_epik_Charging_Adjusted_Penalty>  (255) 
2.23483

>  <i_epik_Tot_Q>  (255) 
0

>  <i_epik_Tot_abs_Q>  (255) 
0

>  <s_lp_Force_Field>  (255) 
OPLS3e

>  <r_lp_Energy>  (255) 
8.3267

>  <b_lp_Chiralities_Consistent>  (255) 
1

>  <s_lp_Variant>  (255) 
63:0-8

>  <s_i_glide_gridfile>  (255) 
pfpi4k_grid

>  <i_i_glide_lignum>  (255) 
6

>  <i_i_glide_rotatable_bonds>  (255) 
2

>  <r_i_docking_score>  (255) 
-3.41525

>  <r_i_glide_ligand_efficiency>  (255) 
-0.13661

>  <r_i_glide_ligand_efficiency_sa>  (255) 
-0.39945

>  <r_i_glide_ligand_efficiency_ln>  (255) 
-0.809516

>  <r_i_glide_gscore>  (255) 
-3.41525

>  <r_i_glide_lipo>  (255) 
-0.307798

>  <r_i_glide_hbond>  (255) 
-0.117812

>  <r_i_glide_metal>  (255) 
-0

>  <r_i_glide_rewards>  (255) 
-1.53573

>  <r_i_glide_evdw>  (255) 
-24.9052

>  <r_i_glide_ecoul>  (255) 
-3.20293

>  <r_i_glide_erotb>  (255) 
0.31684

>  <r_i_glide_esite>  (255) 
-0.0450428

>  <r_i_glide_emodel>  (255) 
-33.2546

>  <r_i_glide_energy>  (255) 
-28.1082

>  <r_i_glide_einternal>  (255) 
2.18518

>  <r_i_glide_intrahb_reward>  (255) 
-0

>  <i_i_glide_confnum>  (255) 
3

>  <i_i_glide_posenum>  (255) 
4

>  <r_i_glide_eff_state_penalty>  (255) 
0

>  <ligand_id>  (255) 
63

>  <original_smiles>  (255) 
CC1CCN(CC2=CC3(C)c4c(c(O)n(C)c4O)N(C)C(=O)N3C2)C1

>  <smiles>  (255) 
[H]C1=C(C([H])([H])N2C([H])([H])C([H])([H])C([H])(C([H])([H])[H])C2([H])[H])C([H])([H])N2C(=O)N(C([H])([H])[H])C3([H])C(=O)N(C([H])([H])[H])C(=O)C3([H])C12C([H])([H])[H]

$$$$
64:0:0
     RDKit          3D

 43 46  0  0  1  0  0  0  0  0999 V2000
    7.5711   -3.3924   -1.2455 C   0  0  0  0  0  0  0  0  0  0  0  0
    7.2740   -2.0922   -0.7375 O   0  0  0  0  0  0  0  0  0  0  0  0
    6.1217   -1.9605    0.0092 C   0  0  0  0  0  0  0  0  0  0  0  0
    5.7859   -0.6744    0.4849 C   0  0  0  0  0  0  0  0  0  0  0  0
    4.6089   -0.4554    1.2410 C   0  0  0  0  0  0  0  0  0  0  0  0
    3.7494   -1.5372    1.5397 C   0  0  0  0  0  0  0  0  0  0  0  0
    4.0927   -2.8283    1.0790 C   0  0  0  0  0  0  0  0  0  0  0  0
    5.2532   -3.0384    0.3188 C   0  0  0  0  0  0  0  0  0  0  0  0
    3.2016   -4.0174    1.3752 C   0  0  0  0  0  0  0  0  0  0  0  0
    3.1568   -4.3903    2.8681 C   0  0  0  0  0  0  0  0  0  0  0  0
    3.3377   -3.2627    3.8200 N   0  0  2  0  0  0  0  0  0  0  0  0
    3.5115   -3.7491    5.2055 C   0  0  0  0  0  0  0  0  0  0  0  0
    2.4503   -2.0627    3.7025 C   0  0  2  0  0  0  0  0  0  0  0  0
    0.9984   -2.2842    4.2153 C   0  0  0  0  0  0  0  0  0  0  0  0
    0.1947   -1.0207    4.0137 C   0  0  0  0  0  0  0  0  0  0  0  0
   -0.9939   -0.8258    4.5788 N   0  0  0  0  0  0  0  0  0  0  0  0
   -1.3609    0.3778    4.0854 N   0  0  0  0  0  0  0  0  0  0  0  0
   -0.4357    0.9373    3.2342 C   0  0  0  0  0  0  0  0  0  0  0  0
    0.6007    0.0423    3.1655 C   0  0  0  0  0  0  0  0  0  0  0  0
    1.8851    0.0677    2.3893 C   0  0  0  0  0  0  0  0  0  0  0  0
    2.4392   -1.3744    2.3026 C   0  0  1  0  0  0  0  0  0  0  0  0
   -2.2571    0.7906    4.3033 H   0  0  0  0  0  0  0  0  0  0  0  0
    8.4988   -3.4170   -1.8198 H   0  0  0  0  0  0  0  0  0  0  0  0
    6.7660   -3.7262   -1.9059 H   0  0  0  0  0  0  0  0  0  0  0  0
    7.6778   -4.1074   -0.4251 H   0  0  0  0  0  0  0  0  0  0  0  0
    6.4253    0.1609    0.2595 H   0  0  0  0  0  0  0  0  0  0  0  0
    4.3676    0.5441    1.5612 H   0  0  0  0  0  0  0  0  0  0  0  0
    5.4257   -4.0454   -0.0241 H   0  0  0  0  0  0  0  0  0  0  0  0
    2.2089   -3.8421    0.9731 H   0  0  0  0  0  0  0  0  0  0  0  0
    3.5817   -4.8761    0.8252 H   0  0  0  0  0  0  0  0  0  0  0  0
    2.2452   -4.9492    3.0717 H   0  0  0  0  0  0  0  0  0  0  0  0
    3.9829   -5.0832    3.0411 H   0  0  0  0  0  0  0  0  0  0  0  0
    2.6180   -4.2682    5.5572 H   0  0  0  0  0  0  0  0  0  0  0  0
    3.7362   -2.9326    5.8945 H   0  0  0  0  0  0  0  0  0  0  0  0
    4.3435   -4.4557    5.2626 H   0  0  0  0  0  0  0  0  0  0  0  0
    2.9081   -1.3365    4.3711 H   0  0  0  0  0  0  0  0  0  0  0  0
    0.5213   -3.0915    3.6544 H   0  0  0  0  0  0  0  0  0  0  0  0
    0.9813   -2.5683    5.2674 H   0  0  0  0  0  0  0  0  0  0  0  0
   -0.5799    1.8834    2.7420 H   0  0  0  0  0  0  0  0  0  0  0  0
    2.5946    0.7138    2.9066 H   0  0  0  0  0  0  0  0  0  0  0  0
    1.7410    0.4857    1.3901 H   0  0  0  0  0  0  0  0  0  0  0  0
    1.6941   -1.8917    1.6984 H   0  0  0  0  0  0  0  0  0  0  0  0
    4.2444   -2.8843    3.5587 H   0  0  0  0  0  0  0  0  0  0  0  0
  1  2  1  0
  1 23  1  0
  1 24  1  0
  1 25  1  0
  2  3  1  0
  3  8  2  0
  3  4  1  0
  4  5  2  0
  4 26  1  0
  5  6  1  0
  5 27  1  0
  6 21  1  0
  6  7  2  0
  7  8  1  0
  7  9  1  0
  8 28  1  0
  9 10  1  0
  9 29  1  0
  9 30  1  0
 10 11  1  0
 10 31  1  0
 10 32  1  0
 11 12  1  0
 11 13  1  0
 11 43  1  6
 12 33  1  0
 12 34  1  0
 12 35  1  0
 13 21  1  0
 13 14  1  0
 13 36  1  1
 14 37  1  0
 14 38  1  0
 14 15  1  0
 15 16  2  0
 15 19  1  0
 16 17  1  0
 17 22  1  0
 17 18  1  0
 18 39  1  0
 18 19  2  0
 19 20  1  0
 20 21  1  0
 20 40  1  0
 20 41  1  0
 21 42  1  6
M  CHG  1  11   1
M  END
>  <i_m_ct_stereo_status>  (256) 
1

>  <s_m_source_file>  (256) 
/var/tmp/pbs.5076255.sched01/tmp7rmqr72f/92ch8atech.sdf

>  <i_m_source_file_index>  (256) 
7

>  <i_lp_mmshare_version>  (256) 
48012

>  <i_f3d_flags>  (256) 
0

>  <s_epik_input>  (256) 
W0NIM11PYyhbY0hdW2NIXTEpW2NIXWMoYzEyKVtDSDJdW0NIMl1OKFtDSDNdKVtDQEhdM1tDQEhdMltDSDJdYzRjKFtDSDJdMylbbkhdbltjSF00

>  <s_epik_cmdline>  (256) 
J2VwaWtfcHl0aG9uJywgJy1waHQnLCAnMi4wJywgJy1waCcsICc3LjAnLCAnLXRuJywgJzgnLCAnLW1hJywgJzIwMCcsICctaW1hZScsICc8aW5maWxlLm1hZT4nLCAnLW9tYWUnLCAnPG91dGZpbGUubWFlPic=

>  <r_lp_tautomer_probability>  (256) 
0.5

>  <r_epik_Ionization_Penalty>  (256) 
0.03475

>  <r_epik_Ionization_Penalty_Charging>  (256) 
0.0347489

>  <r_epik_Ionization_Penalty_Neutral>  (256) 
1.04213e-06

>  <r_epik_State_Penalty>  (256) 
0.414342

>  <r_epik_Charging_Adjusted_Penalty>  (256) 
0.449091

>  <i_epik_Tot_Q>  (256) 
1

>  <i_epik_Tot_abs_Q>  (256) 
1

>  <s_lp_Force_Field>  (256) 
OPLS3e

>  <r_lp_Energy>  (256) 
36.1307

>  <b_lp_Chiralities_Consistent>  (256) 
1

>  <s_lp_Variant>  (256) 
64:0-1

>  <s_i_glide_gridfile>  (256) 
pfpi4k_grid

>  <i_i_glide_lignum>  (256) 
7

>  <i_i_glide_rotatable_bonds>  (256) 
1

>  <r_i_docking_score>  (256) 
-3.84417

>  <r_i_glide_ligand_efficiency>  (256) 
-0.183056

>  <r_i_glide_ligand_efficiency_sa>  (256) 
-0.505036

>  <r_i_glide_ligand_efficiency_ln>  (256) 
-0.950462

>  <r_i_glide_gscore>  (256) 
-3.84417

>  <r_i_glide_lipo>  (256) 
-0.37851

>  <r_i_glide_hbond>  (256) 
-0.165615

>  <r_i_glide_metal>  (256) 
-0

>  <r_i_glide_rewards>  (256) 
-1.47016

>  <r_i_glide_evdw>  (256) 
-19.2242

>  <r_i_glide_ecoul>  (256) 
-5.56355

>  <r_i_glide_erotb>  (256) 
0

>  <r_i_glide_esite>  (256) 
-0.0341337

>  <r_i_glide_emodel>  (256) 
-30.2508

>  <r_i_glide_energy>  (256) 
-24.7878

>  <r_i_glide_einternal>  (256) 
3.34313

>  <r_i_glide_intrahb_reward>  (256) 
-0

>  <i_i_glide_confnum>  (256) 
1

>  <i_i_glide_posenum>  (256) 
3

>  <r_i_glide_eff_state_penalty>  (256) 
0

>  <ligand_id>  (256) 
64

>  <original_smiles>  (256) 
COc1ccc2c(c1)CCN(C)C1Cc3[nH]ncc3CC21

>  <smiles>  (256) 
[H]c1c([H])c2c(c([H])c1OC([H])([H])[H])C([H])([H])C([H])([H])[N+]([H])(C([H])([H])[H])C1([H])C([H])([H])c3nn([H])c([H])c3C([H])([H])C21[H]

$$$$
64:0:1
     RDKit          3D

 43 46  0  0  1  0  0  0  0  0999 V2000
    6.2202   -1.9446    0.9646 C   0  0  0  0  0  0  0  0  0  0  0  0
    6.0060   -1.3272    2.2256 O   0  0  0  0  0  0  0  0  0  0  0  0
    4.8806   -0.5571    2.3994 C   0  0  0  0  0  0  0  0  0  0  0  0
    3.8922   -0.3520    1.4043 C   0  0  0  0  0  0  0  0  0  0  0  0
    2.7657    0.4510    1.6666 C   0  0  0  0  0  0  0  0  0  0  0  0
    2.6093    1.0744    2.9199 C   0  0  0  0  0  0  0  0  0  0  0  0
    3.6022    0.8862    3.9131 C   0  0  0  0  0  0  0  0  0  0  0  0
    4.7231    0.0677    3.6532 C   0  0  0  0  0  0  0  0  0  0  0  0
    3.4423    1.5631    5.2686 C   0  0  0  0  0  0  0  0  0  0  0  0
    3.5168    3.1038    5.2245 C   0  0  0  0  0  0  0  0  0  0  0  0
    3.0495    3.7417    3.9593 N   0  0  2  0  0  0  0  0  0  0  0  0
    3.3810    5.1893    3.9261 C   0  0  0  0  0  0  0  0  0  0  0  0
    1.6718    3.4345    3.4622 C   0  0  2  0  0  0  0  0  0  0  0  0
    0.5272    4.1223    4.2611 C   0  0  0  0  0  0  0  0  0  0  0  0
   -0.8022    3.6742    3.7203 C   0  0  0  0  0  0  0  0  0  0  0  0
   -1.9352    4.3081    3.9868 N   0  0  0  0  0  0  0  0  0  0  0  0
   -2.8466    3.5985    3.2860 N   0  0  0  0  0  0  0  0  0  0  0  0
   -2.3034    2.5498    2.5971 C   0  0  0  0  0  0  0  0  0  0  0  0
   -0.9763    2.5485    2.8782 C   0  0  0  0  0  0  0  0  0  0  0  0
    0.1468    1.7005    2.3559 C   0  0  0  0  0  0  0  0  0  0  0  0
    1.3778    1.9156    3.2656 C   0  0  1  0  0  0  0  0  0  0  0  0
   -3.8277    3.8203    3.2928 H   0  0  0  0  0  0  0  0  0  0  0  0
    7.1539   -2.5057    0.9961 H   0  0  0  0  0  0  0  0  0  0  0  0
    6.3125   -1.2074    0.1669 H   0  0  0  0  0  0  0  0  0  0  0  0
    5.4229   -2.6476    0.7215 H   0  0  0  0  0  0  0  0  0  0  0  0
    3.9713   -0.8055    0.4299 H   0  0  0  0  0  0  0  0  0  0  0  0
    2.0263    0.5645    0.8860 H   0  0  0  0  0  0  0  0  0  0  0  0
    5.4709   -0.0903    4.4185 H   0  0  0  0  0  0  0  0  0  0  0  0
    2.5108    1.2463    5.7402 H   0  0  0  0  0  0  0  0  0  0  0  0
    4.2265    1.2073    5.9377 H   0  0  0  0  0  0  0  0  0  0  0  0
    3.0102    3.5288    6.0914 H   0  0  0  0  0  0  0  0  0  0  0  0
    4.5676    3.3725    5.3367 H   0  0  0  0  0  0  0  0  0  0  0  0
    2.8645    5.7389    4.7146 H   0  0  0  0  0  0  0  0  0  0  0  0
    3.1342    5.6382    2.9618 H   0  0  0  0  0  0  0  0  0  0  0  0
    4.4466    5.3475    4.0892 H   0  0  0  0  0  0  0  0  0  0  0  0
    1.6640    3.8701    2.4662 H   0  0  0  0  0  0  0  0  0  0  0  0
    0.5726    3.8322    5.3112 H   0  0  0  0  0  0  0  0  0  0  0  0
    0.6048    5.2097    4.2155 H   0  0  0  0  0  0  0  0  0  0  0  0
   -2.8893    1.9235    1.9479 H   0  0  0  0  0  0  0  0  0  0  0  0
    0.3753    2.0078    1.3342 H   0  0  0  0  0  0  0  0  0  0  0  0
   -0.1392    0.6494    2.3071 H   0  0  0  0  0  0  0  0  0  0  0  0
    1.0339    1.5410    4.2291 H   0  0  0  0  0  0  0  0  0  0  0  0
    3.6412    3.3260    3.2467 H   0  0  0  0  0  0  0  0  0  0  0  0
  1  2  1  0
  1 23  1  0
  1 24  1  0
  1 25  1  0
  2  3  1  0
  3  8  2  0
  3  4  1  0
  4  5  2  0
  4 26  1  0
  5  6  1  0
  5 27  1  0
  6 21  1  0
  6  7  2  0
  7  8  1  0
  7  9  1  0
  8 28  1  0
  9 10  1  0
  9 29  1  0
  9 30  1  0
 10 11  1  0
 10 31  1  0
 10 32  1  0
 11 12  1  0
 11 13  1  0
 11 43  1  6
 12 33  1  0
 12 34  1  0
 12 35  1  0
 13 21  1  0
 13 14  1  0
 13 36  1  6
 14 37  1  0
 14 38  1  0
 14 15  1  0
 15 16  2  0
 15 19  1  0
 16 17  1  0
 17 22  1  0
 17 18  1  0
 18 39  1  0
 18 19  2  0
 19 20  1  0
 20 21  1  0
 20 40  1  0
 20 41  1  0
 21 42  1  1
M  CHG  1  11   1
M  END
>  <i_m_ct_stereo_status>  (257) 
1

>  <s_m_source_file>  (257) 
/var/tmp/pbs.5076255.sched01/tmp7rmqr72f/92ch8atech.sdf

>  <i_m_source_file_index>  (257) 
7

>  <i_lp_mmshare_version>  (257) 
48012

>  <i_f3d_flags>  (257) 
0

>  <s_epik_input>  (257) 
W0NIM11PYyhbY0hdW2NIXTEpW2NIXWMoYzEyKVtDSDJdW0NIMl1OKFtDSDNdKVtDQEhdM1tDQEhdMltDSDJdYzRjKFtDSDJdMylbbkhdbltjSF00

>  <s_epik_cmdline>  (257) 
J2VwaWtfcHl0aG9uJywgJy1waHQnLCAnMi4wJywgJy1waCcsICc3LjAnLCAnLXRuJywgJzgnLCAnLW1hJywgJzIwMCcsICctaW1hZScsICc8aW5maWxlLm1hZT4nLCAnLW9tYWUnLCAnPG91dGZpbGUubWFlPic=

>  <r_lp_tautomer_probability>  (257) 
0.5

>  <r_epik_Ionization_Penalty>  (257) 
0.03475

>  <r_epik_Ionization_Penalty_Charging>  (257) 
0.0347489

>  <r_epik_Ionization_Penalty_Neutral>  (257) 
1.04213e-06

>  <r_epik_State_Penalty>  (257) 
0.414342

>  <r_epik_Charging_Adjusted_Penalty>  (257) 
0.449091

>  <i_epik_Tot_Q>  (257) 
1

>  <i_epik_Tot_abs_Q>  (257) 
1

>  <s_lp_Force_Field>  (257) 
OPLS3e

>  <r_lp_Energy>  (257) 
36.1307

>  <b_lp_Chiralities_Consistent>  (257) 
1

>  <s_lp_Variant>  (257) 
64:0-1

>  <s_i_glide_gridfile>  (257) 
pfpi4k_grid

>  <i_i_glide_lignum>  (257) 
7

>  <i_i_glide_rotatable_bonds>  (257) 
1

>  <r_i_docking_score>  (257) 
-3.809

>  <r_i_glide_ligand_efficiency>  (257) 
-0.181381

>  <r_i_glide_ligand_efficiency_sa>  (257) 
-0.500416

>  <r_i_glide_ligand_efficiency_ln>  (257) 
-0.941767

>  <r_i_glide_gscore>  (257) 
-3.809

>  <r_i_glide_lipo>  (257) 
-0.396345

>  <r_i_glide_hbond>  (257) 
-0.124389

>  <r_i_glide_metal>  (257) 
-0

>  <r_i_glide_rewards>  (257) 
-1.47016

>  <r_i_glide_evdw>  (257) 
-17.1057

>  <r_i_glide_ecoul>  (257) 
-5.9566

>  <r_i_glide_erotb>  (257) 
0

>  <r_i_glide_esite>  (257) 
-0.0693289

>  <r_i_glide_emodel>  (257) 
-30.2028

>  <r_i_glide_energy>  (257) 
-23.0622

>  <r_i_glide_einternal>  (257) 
0.00250473

>  <r_i_glide_intrahb_reward>  (257) 
-0

>  <i_i_glide_confnum>  (257) 
2

>  <i_i_glide_posenum>  (257) 
17

>  <r_i_glide_eff_state_penalty>  (257) 
0

>  <ligand_id>  (257) 
64

>  <original_smiles>  (257) 
COc1ccc2c(c1)CCN(C)C1Cc3[nH]ncc3CC21

>  <smiles>  (257) 
[H]c1c([H])c2c(c([H])c1OC([H])([H])[H])C([H])([H])C([H])([H])[N+]([H])(C([H])([H])[H])C1([H])C([H])([H])c3nn([H])c([H])c3C([H])([H])C21[H]

$$$$
64:0:2
     RDKit          3D

 43 46  0  0  1  0  0  0  0  0999 V2000
   -1.3655    1.7463    9.5193 C   0  0  0  0  0  0  0  0  0  0  0  0
   -1.7947    1.5548    8.1750 O   0  0  0  0  0  0  0  0  0  0  0  0
   -0.8572    1.1751    7.2399 C   0  0  0  0  0  0  0  0  0  0  0  0
    0.4154    0.6478    7.5588 C   0  0  0  0  0  0  0  0  0  0  0  0
    1.3096    0.2608    6.5404 C   0  0  0  0  0  0  0  0  0  0  0  0
    0.9456    0.3970    5.1815 C   0  0  0  0  0  0  0  0  0  0  0  0
   -0.3252    0.9372    4.8602 C   0  0  0  0  0  0  0  0  0  0  0  0
   -1.2229    1.3105    5.8861 C   0  0  0  0  0  0  0  0  0  0  0  0
   -0.7270    1.0950    3.3954 C   0  0  0  0  0  0  0  0  0  0  0  0
    0.1037    2.1308    2.6107 C   0  0  0  0  0  0  0  0  0  0  0  0
    1.5102    2.3093    3.0813 N   0  0  2  0  0  0  0  0  0  0  0  0
    2.1504    3.5041    2.4703 C   0  0  0  0  0  0  0  0  0  0  0  0
    2.4072    1.1103    3.1603 C   0  0  2  0  0  0  0  0  0  0  0  0
    2.9059    0.5817    1.7884 C   0  0  0  0  0  0  0  0  0  0  0  0
    3.7529   -0.6435    1.9969 C   0  0  0  0  0  0  0  0  0  0  0  0
    4.5430   -1.1392    1.0553 N   0  0  0  0  0  0  0  0  0  0  0  0
    5.0748   -2.2264    1.6481 N   0  0  0  0  0  0  0  0  0  0  0  0
    4.6448   -2.4119    2.9421 C   0  0  0  0  0  0  0  0  0  0  0  0
    3.7860   -1.3850    3.2074 C   0  0  0  0  0  0  0  0  0  0  0  0
    2.9970   -1.0275    4.4340 C   0  0  0  0  0  0  0  0  0  0  0  0
    1.8577   -0.0567    4.0361 C   0  0  1  0  0  0  0  0  0  0  0  0
    5.7062   -2.8372    1.1562 H   0  0  0  0  0  0  0  0  0  0  0  0
   -2.2083    2.0767   10.1268 H   0  0  0  0  0  0  0  0  0  0  0  0
   -0.5966    2.5164    9.5827 H   0  0  0  0  0  0  0  0  0  0  0  0
   -0.9841    0.8289    9.9718 H   0  0  0  0  0  0  0  0  0  0  0  0
    0.7314    0.5151    8.5815 H   0  0  0  0  0  0  0  0  0  0  0  0
    2.2632   -0.1559    6.8196 H   0  0  0  0  0  0  0  0  0  0  0  0
   -2.1994    1.6968    5.6332 H   0  0  0  0  0  0  0  0  0  0  0  0
   -0.6930    0.1336    2.8838 H   0  0  0  0  0  0  0  0  0  0  0  0
   -1.7709    1.4033    3.3432 H   0  0  0  0  0  0  0  0  0  0  0  0
    0.0625    1.9253    1.5394 H   0  0  0  0  0  0  0  0  0  0  0  0
   -0.3870    3.0916    2.7551 H   0  0  0  0  0  0  0  0  0  0  0  0
    2.2055    3.3902    1.3901 H   0  0  0  0  0  0  0  0  0  0  0  0
    3.1552    3.6838    2.8604 H   0  0  0  0  0  0  0  0  0  0  0  0
    1.5547    4.3962    2.6530 H   0  0  0  0  0  0  0  0  0  0  0  0
    3.2805    1.4834    3.6903 H   0  0  0  0  0  0  0  0  0  0  0  0
    2.0608    0.3216    1.1463 H   0  0  0  0  0  0  0  0  0  0  0  0
    3.4861    1.3464    1.2784 H   0  0  0  0  0  0  0  0  0  0  0  0
    4.9719   -3.2332    3.5571 H   0  0  0  0  0  0  0  0  0  0  0  0
    3.6667   -0.5488    5.1483 H   0  0  0  0  0  0  0  0  0  0  0  0
    2.5945   -1.9188    4.9200 H   0  0  0  0  0  0  0  0  0  0  0  0
    1.2302   -0.6582    3.3776 H   0  0  0  0  0  0  0  0  0  0  0  0
    1.3960    2.5674    4.0559 H   0  0  0  0  0  0  0  0  0  0  0  0
  1  2  1  0
  1 23  1  0
  1 24  1  0
  1 25  1  0
  2  3  1  0
  3  8  2  0
  3  4  1  0
  4  5  2  0
  4 26  1  0
  5  6  1  0
  5 27  1  0
  6 21  1  0
  6  7  2  0
  7  8  1  0
  7  9  1  0
  8 28  1  0
  9 10  1  0
  9 29  1  0
  9 30  1  0
 10 11  1  0
 10 31  1  0
 10 32  1  0
 11 12  1  0
 11 13  1  0
 11 43  1  1
 12 33  1  0
 12 34  1  0
 12 35  1  0
 13 21  1  0
 13 14  1  0
 13 36  1  1
 14 37  1  0
 14 38  1  0
 14 15  1  0
 15 16  2  0
 15 19  1  0
 16 17  1  0
 17 22  1  0
 17 18  1  0
 18 39  1  0
 18 19  2  0
 19 20  1  0
 20 21  1  0
 20 40  1  0
 20 41  1  0
 21 42  1  6
M  CHG  1  11   1
M  END
>  <i_m_ct_stereo_status>  (258) 
1

>  <s_m_source_file>  (258) 
/var/tmp/pbs.5076255.sched01/tmp7rmqr72f/92ch8atech.sdf

>  <i_m_source_file_index>  (258) 
7

>  <i_lp_mmshare_version>  (258) 
48012

>  <i_f3d_flags>  (258) 
0

>  <s_epik_input>  (258) 
W0NIM11PYyhbY0hdW2NIXTEpW2NIXWMoYzEyKVtDSDJdW0NIMl1OKFtDSDNdKVtDQEhdM1tDQEhdMltDSDJdYzRjKFtDSDJdMylbbkhdbltjSF00

>  <s_epik_cmdline>  (258) 
J2VwaWtfcHl0aG9uJywgJy1waHQnLCAnMi4wJywgJy1waCcsICc3LjAnLCAnLXRuJywgJzgnLCAnLW1hJywgJzIwMCcsICctaW1hZScsICc8aW5maWxlLm1hZT4nLCAnLW9tYWUnLCAnPG91dGZpbGUubWFlPic=

>  <r_lp_tautomer_probability>  (258) 
0.5

>  <r_epik_Ionization_Penalty>  (258) 
0.03475

>  <r_epik_Ionization_Penalty_Charging>  (258) 
0.0347489

>  <r_epik_Ionization_Penalty_Neutral>  (258) 
1.04213e-06

>  <r_epik_State_Penalty>  (258) 
0.414342

>  <r_epik_Charging_Adjusted_Penalty>  (258) 
0.449091

>  <i_epik_Tot_Q>  (258) 
1

>  <i_epik_Tot_abs_Q>  (258) 
1

>  <s_lp_Force_Field>  (258) 
OPLS3e

>  <r_lp_Energy>  (258) 
36.1307

>  <b_lp_Chiralities_Consistent>  (258) 
1

>  <s_lp_Variant>  (258) 
64:0-1

>  <s_i_glide_gridfile>  (258) 
pfpi4k_grid

>  <i_i_glide_lignum>  (258) 
7

>  <i_i_glide_rotatable_bonds>  (258) 
1

>  <r_i_docking_score>  (258) 
-3.27222

>  <r_i_glide_ligand_efficiency>  (258) 
-0.15582

>  <r_i_glide_ligand_efficiency_sa>  (258) 
-0.429896

>  <r_i_glide_ligand_efficiency_ln>  (258) 
-0.809051

>  <r_i_glide_gscore>  (258) 
-3.27222

>  <r_i_glide_lipo>  (258) 
-0.137256

>  <r_i_glide_hbond>  (258) 
-0.0289541

>  <r_i_glide_metal>  (258) 
-0

>  <r_i_glide_rewards>  (258) 
-1.47016

>  <r_i_glide_evdw>  (258) 
-16.6355

>  <r_i_glide_ecoul>  (258) 
-5.07194

>  <r_i_glide_erotb>  (258) 
0

>  <r_i_glide_esite>  (258) 
-0.0432821

>  <r_i_glide_emodel>  (258) 
-27.5266

>  <r_i_glide_energy>  (258) 
-21.7075

>  <r_i_glide_einternal>  (258) 
0.450652

>  <r_i_glide_intrahb_reward>  (258) 
-0

>  <i_i_glide_confnum>  (258) 
1

>  <i_i_glide_posenum>  (258) 
6

>  <r_i_glide_eff_state_penalty>  (258) 
0

>  <ligand_id>  (258) 
64

>  <original_smiles>  (258) 
COc1ccc2c(c1)CCN(C)C1Cc3[nH]ncc3CC21

>  <smiles>  (258) 
[H]c1c([H])c2c(c([H])c1OC([H])([H])[H])C([H])([H])C([H])([H])[N+]([H])(C([H])([H])[H])C1([H])C([H])([H])c3nn([H])c([H])c3C([H])([H])C21[H]

$$$$
64:1:0
     RDKit          3D

 43 46  0  0  1  0  0  0  0  0999 V2000
   -1.8861    2.7474    9.7674 C   0  0  0  0  0  0  0  0  0  0  0  0
   -2.3216    2.7480    8.4148 O   0  0  0  0  0  0  0  0  0  0  0  0
   -1.5612    2.0755    7.4825 C   0  0  0  0  0  0  0  0  0  0  0  0
   -0.4787    1.2222    7.8017 C   0  0  0  0  0  0  0  0  0  0  0  0
    0.2354    0.5540    6.7846 C   0  0  0  0  0  0  0  0  0  0  0  0
   -0.1186    0.7347    5.4296 C   0  0  0  0  0  0  0  0  0  0  0  0
   -1.1890    1.6020    5.1072 C   0  0  0  0  0  0  0  0  0  0  0  0
   -1.9113    2.2579    6.1301 C   0  0  0  0  0  0  0  0  0  0  0  0
   -1.5748    1.8018    3.6454 C   0  0  0  0  0  0  0  0  0  0  0  0
   -0.5138    2.5242    2.7939 C   0  0  0  0  0  0  0  0  0  0  0  0
    0.8985    2.3181    3.2199 N   0  0  2  0  0  0  0  0  0  0  0  0
    1.8223    3.2339    2.5052 C   0  0  0  0  0  0  0  0  0  0  0  0
    1.4191    0.9201    3.3428 C   0  0  2  0  0  0  0  0  0  0  0  0
    1.7317    0.1996    2.0003 C   0  0  0  0  0  0  0  0  0  0  0  0
    2.1750   -1.1998    2.2898 C   0  0  0  0  0  0  0  0  0  0  0  0
    2.7795   -2.0762    1.4199 N   0  0  0  0  0  0  0  0  0  0  0  0
    3.0340   -3.2703    1.9990 N   0  0  0  0  0  0  0  0  0  0  0  0
    2.5967   -3.1370    3.2422 C   0  0  0  0  0  0  0  0  0  0  0  0
    2.0433   -1.8491    3.4816 C   0  0  0  0  0  0  0  0  0  0  0  0
    1.4239   -1.2416    4.7069 C   0  0  0  0  0  0  0  0  0  0  0  0
    0.5899   -0.0054    4.2884 C   0  0  1  0  0  0  0  0  0  0  0  0
    3.0049   -1.8968    0.4490 H   0  0  0  0  0  0  0  0  0  0  0  0
   -2.5737    3.3409   10.3673 H   0  0  0  0  0  0  0  0  0  0  0  0
   -0.8949    3.1878    9.8691 H   0  0  0  0  0  0  0  0  0  0  0  0
   -1.8725    1.7467   10.1968 H   0  0  0  0  0  0  0  0  0  0  0  0
   -0.1737    1.0572    8.8233 H   0  0  0  0  0  0  0  0  0  0  0  0
    1.0465   -0.0978    7.0650 H   0  0  0  0  0  0  0  0  0  0  0  0
   -2.7471    2.8955    5.8780 H   0  0  0  0  0  0  0  0  0  0  0  0
   -1.7900    0.8401    3.1844 H   0  0  0  0  0  0  0  0  0  0  0  0
   -2.5031    2.3698    3.5885 H   0  0  0  0  0  0  0  0  0  0  0  0
   -0.6369    2.2666    1.7413 H   0  0  0  0  0  0  0  0  0  0  0  0
   -0.7096    3.5934    2.8793 H   0  0  0  0  0  0  0  0  0  0  0  0
    1.8268    3.0203    1.4371 H   0  0  0  0  0  0  0  0  0  0  0  0
    2.8441    3.1531    2.8787 H   0  0  0  0  0  0  0  0  0  0  0  0
    1.5119    4.2722    2.6398 H   0  0  0  0  0  0  0  0  0  0  0  0
    2.3760    1.0564    3.8461 H   0  0  0  0  0  0  0  0  0  0  0  0
    0.8418    0.1572    1.3700 H   0  0  0  0  0  0  0  0  0  0  0  0
    2.5041    0.7224    1.4349 H   0  0  0  0  0  0  0  0  0  0  0  0
    2.6912   -3.9673    3.9221 H   0  0  0  0  0  0  0  0  0  0  0  0
    0.8020   -1.9669    5.2321 H   0  0  0  0  0  0  0  0  0  0  0  0
    2.2221   -0.9471    5.3872 H   0  0  0  0  0  0  0  0  0  0  0  0
   -0.2030   -0.4363    3.6784 H   0  0  0  0  0  0  0  0  0  0  0  0
    0.9020    2.6487    4.1776 H   0  0  0  0  0  0  0  0  0  0  0  0
  1  2  1  0
  1 23  1  0
  1 24  1  0
  1 25  1  0
  2  3  1  0
  3  8  2  0
  3  4  1  0
  4  5  2  0
  4 26  1  0
  5  6  1  0
  5 27  1  0
  6 21  1  0
  6  7  2  0
  7  8  1  0
  7  9  1  0
  8 28  1  0
  9 10  1  0
  9 29  1  0
  9 30  1  0
 10 11  1  0
 10 31  1  0
 10 32  1  0
 11 12  1  0
 11 13  1  0
 11 43  1  1
 12 33  1  0
 12 34  1  0
 12 35  1  0
 13 21  1  0
 13 14  1  0
 13 36  1  1
 14 15  1  0
 14 37  1  0
 14 38  1  0
 15 19  2  0
 15 16  1  0
 16 22  1  0
 16 17  1  0
 17 18  2  0
 18 19  1  0
 18 39  1  0
 19 20  1  0
 20 21  1  0
 20 40  1  0
 20 41  1  0
 21 42  1  6
M  CHG  1  11   1
M  END
>  <i_m_ct_stereo_status>  (259) 
1

>  <s_m_source_file>  (259) 
/var/tmp/pbs.5076255.sched01/tmp7rmqr72f/92ch8atech.sdf

>  <i_m_source_file_index>  (259) 
8

>  <i_lp_mmshare_version>  (259) 
48012

>  <i_f3d_flags>  (259) 
0

>  <s_epik_input>  (259) 
W0NIM11PYyhbY0hdW2NIXTEpW2NIXWMoYzEyKVtDSDJdW0NIMl1OKFtDSDNdKVtDQEhdM1tDQEhdMltDSDJdYzRjKFtDSDJdMylbbkhdbltjSF00

>  <s_epik_cmdline>  (259) 
J2VwaWtfcHl0aG9uJywgJy1waHQnLCAnMi4wJywgJy1waCcsICc3LjAnLCAnLXRuJywgJzgnLCAnLW1hJywgJzIwMCcsICctaW1hZScsICc8aW5maWxlLm1hZT4nLCAnLW9tYWUnLCAnPG91dGZpbGUubWFlPic=

>  <r_lp_tautomer_probability>  (259) 
0.5

>  <r_epik_Ionization_Penalty>  (259) 
0.0521657

>  <r_epik_Ionization_Penalty_Charging>  (259) 
0.0521558

>  <r_epik_Ionization_Penalty_Neutral>  (259) 
9.91598e-06

>  <r_epik_State_Penalty>  (259) 
0.480877

>  <r_epik_Charging_Adjusted_Penalty>  (259) 
0.533033

>  <i_epik_Tot_Q>  (259) 
1

>  <i_epik_Tot_abs_Q>  (259) 
1

>  <s_lp_Force_Field>  (259) 
OPLS3e

>  <r_lp_Energy>  (259) 
35.0007

>  <b_lp_Chiralities_Consistent>  (259) 
1

>  <s_lp_Variant>  (259) 
64:0-2

>  <s_i_glide_gridfile>  (259) 
pfpi4k_grid

>  <i_i_glide_lignum>  (259) 
8

>  <i_i_glide_rotatable_bonds>  (259) 
1

>  <r_i_docking_score>  (259) 
-3.29885

>  <r_i_glide_ligand_efficiency>  (259) 
-0.157088

>  <r_i_glide_ligand_efficiency_sa>  (259) 
-0.433394

>  <r_i_glide_ligand_efficiency_ln>  (259) 
-0.815633

>  <r_i_glide_gscore>  (259) 
-3.29885

>  <r_i_glide_lipo>  (259) 
-0.012414

>  <r_i_glide_hbond>  (259) 
0

>  <r_i_glide_metal>  (259) 
-0

>  <r_i_glide_rewards>  (259) 
-1.47016

>  <r_i_glide_evdw>  (259) 
-18.0711

>  <r_i_glide_ecoul>  (259) 
-5.49296

>  <r_i_glide_erotb>  (259) 
0

>  <r_i_glide_esite>  (259) 
-0.0887695

>  <r_i_glide_emodel>  (259) 
-30.0294

>  <r_i_glide_energy>  (259) 
-23.5641

>  <r_i_glide_einternal>  (259) 
0.126211

>  <r_i_glide_intrahb_reward>  (259) 
-0

>  <i_i_glide_confnum>  (259) 
1

>  <i_i_glide_posenum>  (259) 
15

>  <r_i_glide_eff_state_penalty>  (259) 
0

>  <ligand_id>  (259) 
64

>  <original_smiles>  (259) 
COc1ccc2c(c1)CCN(C)C1Cc3[nH]ncc3CC21

>  <smiles>  (259) 
[H]c1nn([H])c2c1C([H])([H])C1([H])c3c([H])c([H])c(OC([H])([H])[H])c([H])c3C([H])([H])C([H])([H])[N+]([H])(C([H])([H])[H])C1([H])C2([H])[H]

$$$$
64:1:1
     RDKit          3D

 43 46  0  0  1  0  0  0  0  0999 V2000
   -2.6189    4.8776    2.5616 C   0  0  0  0  0  0  0  0  0  0  0  0
   -2.1822    4.5239    3.8779 O   0  0  0  0  0  0  0  0  0  0  0  0
   -1.6669    3.2550    4.0400 C   0  0  0  0  0  0  0  0  0  0  0  0
   -1.7611    2.6288    5.3029 C   0  0  0  0  0  0  0  0  0  0  0  0
   -1.2112    1.3389    5.5083 C   0  0  0  0  0  0  0  0  0  0  0  0
   -0.5401    0.6711    4.4510 C   0  0  0  0  0  0  0  0  0  0  0  0
   -0.4230    1.3115    3.2031 C   0  0  0  0  0  0  0  0  0  0  0  0
   -0.9998    2.5659    3.0124 C   0  0  0  0  0  0  0  0  0  0  0  0
    0.3042    0.6668    2.0335 C   0  0  0  0  0  0  0  0  0  0  0  0
    1.8087    0.4664    2.2470 C   0  0  0  0  0  0  0  0  0  0  0  0
    2.2292    0.2920    3.6631 N   0  0  2  0  0  0  0  0  0  0  0  0
    3.7017    0.3569    3.8023 C   0  0  0  0  0  0  0  0  0  0  0  0
    1.5939   -0.7792    4.4905 C   0  0  2  0  0  0  0  0  0  0  0  0
    2.0712   -2.2224    4.1817 C   0  0  0  0  0  0  0  0  0  0  0  0
    1.3036   -3.1898    5.0321 C   0  0  0  0  0  0  0  0  0  0  0  0
    1.5805   -4.5210    5.2530 N   0  0  0  0  0  0  0  0  0  0  0  0
    0.6685   -5.1039    6.0630 N   0  0  0  0  0  0  0  0  0  0  0  0
   -0.1821   -4.1344    6.3585 C   0  0  0  0  0  0  0  0  0  0  0  0
    0.1633   -2.9063    5.7287 C   0  0  0  0  0  0  0  0  0  0  0  0
   -0.4900   -1.5604    5.7592 C   0  0  0  0  0  0  0  0  0  0  0  0
    0.0381   -0.7292    4.5695 C   0  0  1  0  0  0  0  0  0  0  0  0
    2.3705   -5.0429    4.8920 H   0  0  0  0  0  0  0  0  0  0  0  0
   -3.0566    5.8692    2.4854 H   0  0  0  0  0  0  0  0  0  0  0  0
   -3.3664    4.1787    2.1828 H   0  0  0  0  0  0  0  0  0  0  0  0
   -1.7813    4.9468    1.8711 H   0  0  0  0  0  0  0  0  0  0  0  0
   -2.2707    3.1324    6.1173 H   0  0  0  0  0  0  0  0  0  0  0  0
   -1.3160    0.8761    6.4792 H   0  0  0  0  0  0  0  0  0  0  0  0
   -0.8887    2.9802    2.0435 H   0  0  0  0  0  0  0  0  0  0  0  0
   -0.1690   -0.2705    1.7831 H   0  0  0  0  0  0  0  0  0  0  0  0
    0.1649    1.2725    1.1359 H   0  0  0  0  0  0  0  0  0  0  0  0
    2.1638   -0.3505    1.6201 H   0  0  0  0  0  0  0  0  0  0  0  0
    2.3005    1.3673    1.8746 H   0  0  0  0  0  0  0  0  0  0  0  0
    4.1868   -0.4643    3.2762 H   0  0  0  0  0  0  0  0  0  0  0  0
    4.0129    0.3304    4.8447 H   0  0  0  0  0  0  0  0  0  0  0  0
    4.0851    1.2853    3.3826 H   0  0  0  0  0  0  0  0  0  0  0  0
    1.9334   -0.5555    5.4983 H   0  0  0  0  0  0  0  0  0  0  0  0
    1.8933   -2.4733    3.1342 H   0  0  0  0  0  0  0  0  0  0  0  0
    3.1361   -2.3471    4.3717 H   0  0  0  0  0  0  0  0  0  0  0  0
   -1.0169   -4.3578    7.0024 H   0  0  0  0  0  0  0  0  0  0  0  0
   -1.5763   -1.6463    5.7108 H   0  0  0  0  0  0  0  0  0  0  0  0
   -0.2391   -1.0655    6.6973 H   0  0  0  0  0  0  0  0  0  0  0  0
   -0.3319   -1.2653    3.6950 H   0  0  0  0  0  0  0  0  0  0  0  0
    1.8969    1.1420    4.1002 H   0  0  0  0  0  0  0  0  0  0  0  0
  1  2  1  0
  1 23  1  0
  1 24  1  0
  1 25  1  0
  2  3  1  0
  3  8  2  0
  3  4  1  0
  4  5  2  0
  4 26  1  0
  5  6  1  0
  5 27  1  0
  6 21  1  0
  6  7  2  0
  7  8  1  0
  7  9  1  0
  8 28  1  0
  9 10  1  0
  9 29  1  0
  9 30  1  0
 10 11  1  0
 10 31  1  0
 10 32  1  0
 11 12  1  0
 11 13  1  0
 11 43  1  1
 12 33  1  0
 12 34  1  0
 12 35  1  0
 13 21  1  0
 13 14  1  0
 13 36  1  1
 14 15  1  0
 14 37  1  0
 14 38  1  0
 15 19  2  0
 15 16  1  0
 16 22  1  0
 16 17  1  0
 17 18  2  0
 18 19  1  0
 18 39  1  0
 19 20  1  0
 20 21  1  0
 20 40  1  0
 20 41  1  0
 21 42  1  6
M  CHG  1  11   1
M  END
>  <i_m_ct_stereo_status>  (260) 
1

>  <s_m_source_file>  (260) 
/var/tmp/pbs.5076255.sched01/tmp7rmqr72f/92ch8atech.sdf

>  <i_m_source_file_index>  (260) 
8

>  <i_lp_mmshare_version>  (260) 
48012

>  <i_f3d_flags>  (260) 
0

>  <s_epik_input>  (260) 
W0NIM11PYyhbY0hdW2NIXTEpW2NIXWMoYzEyKVtDSDJdW0NIMl1OKFtDSDNdKVtDQEhdM1tDQEhdMltDSDJdYzRjKFtDSDJdMylbbkhdbltjSF00

>  <s_epik_cmdline>  (260) 
J2VwaWtfcHl0aG9uJywgJy1waHQnLCAnMi4wJywgJy1waCcsICc3LjAnLCAnLXRuJywgJzgnLCAnLW1hJywgJzIwMCcsICctaW1hZScsICc8aW5maWxlLm1hZT4nLCAnLW9tYWUnLCAnPG91dGZpbGUubWFlPic=

>  <r_lp_tautomer_probability>  (260) 
0.5

>  <r_epik_Ionization_Penalty>  (260) 
0.0521657

>  <r_epik_Ionization_Penalty_Charging>  (260) 
0.0521558

>  <r_epik_Ionization_Penalty_Neutral>  (260) 
9.91598e-06

>  <r_epik_State_Penalty>  (260) 
0.480877

>  <r_epik_Charging_Adjusted_Penalty>  (260) 
0.533033

>  <i_epik_Tot_Q>  (260) 
1

>  <i_epik_Tot_abs_Q>  (260) 
1

>  <s_lp_Force_Field>  (260) 
OPLS3e

>  <r_lp_Energy>  (260) 
35.0007

>  <b_lp_Chiralities_Consistent>  (260) 
1

>  <s_lp_Variant>  (260) 
64:0-2

>  <s_i_glide_gridfile>  (260) 
pfpi4k_grid

>  <i_i_glide_lignum>  (260) 
8

>  <i_i_glide_rotatable_bonds>  (260) 
1

>  <r_i_docking_score>  (260) 
-2.98439

>  <r_i_glide_ligand_efficiency>  (260) 
-0.142114

>  <r_i_glide_ligand_efficiency_sa>  (260) 
-0.392081

>  <r_i_glide_ligand_efficiency_ln>  (260) 
-0.737884

>  <r_i_glide_gscore>  (260) 
-2.98439

>  <r_i_glide_lipo>  (260) 
-0.0441566

>  <r_i_glide_hbond>  (260) 
-0.146642

>  <r_i_glide_metal>  (260) 
-0

>  <r_i_glide_rewards>  (260) 
-1.47016

>  <r_i_glide_evdw>  (260) 
-15.7508

>  <r_i_glide_ecoul>  (260) 
-3.55872

>  <r_i_glide_erotb>  (260) 
0

>  <r_i_glide_esite>  (260) 
-0.00207858

>  <r_i_glide_emodel>  (260) 
-22.7753

>  <r_i_glide_energy>  (260) 
-19.3096

>  <r_i_glide_einternal>  (260) 
4.31232

>  <r_i_glide_intrahb_reward>  (260) 
-0

>  <i_i_glide_confnum>  (260) 
1

>  <i_i_glide_posenum>  (260) 
1

>  <r_i_glide_eff_state_penalty>  (260) 
0

>  <ligand_id>  (260) 
64

>  <original_smiles>  (260) 
COc1ccc2c(c1)CCN(C)C1Cc3[nH]ncc3CC21

>  <smiles>  (260) 
[H]c1nn([H])c2c1C([H])([H])C1([H])c3c([H])c([H])c(OC([H])([H])[H])c([H])c3C([H])([H])C([H])([H])[N+]([H])(C([H])([H])[H])C1([H])C2([H])[H]

$$$$
64:1:2
     RDKit          3D

 43 46  0  0  1  0  0  0  0  0999 V2000
   -2.7343    4.1863    2.8005 C   0  0  0  0  0  0  0  0  0  0  0  0
   -2.4804    3.5548    4.0582 O   0  0  0  0  0  0  0  0  0  0  0  0
   -1.7317    2.3941    4.0213 C   0  0  0  0  0  0  0  0  0  0  0  0
   -1.7536    1.5533    5.1608 C   0  0  0  0  0  0  0  0  0  0  0  0
   -1.0411    0.3311    5.1793 C   0  0  0  0  0  0  0  0  0  0  0  0
   -0.2664   -0.0540    4.0589 C   0  0  0  0  0  0  0  0  0  0  0  0
   -0.2096    0.8007    2.9367 C   0  0  0  0  0  0  0  0  0  0  0  0
   -0.9369    1.9966    2.9165 C   0  0  0  0  0  0  0  0  0  0  0  0
    0.6065    0.4352    1.7080 C   0  0  0  0  0  0  0  0  0  0  0  0
    2.1184    0.3989    1.9498 C   0  0  0  0  0  0  0  0  0  0  0  0
    2.5312    0.0472    3.3360 N   0  0  2  0  0  0  0  0  0  0  0  0
    3.9751    0.2742    3.5446 C   0  0  0  0  0  0  0  0  0  0  0  0
    2.0343   -1.2171    3.9505 C   0  0  2  0  0  0  0  0  0  0  0  0
    2.7020   -2.5110    3.4203 C   0  0  0  0  0  0  0  0  0  0  0  0
    2.0638   -3.7013    4.0603 C   0  0  0  0  0  0  0  0  0  0  0  0
    2.4994   -5.0040    4.0676 N   0  0  0  0  0  0  0  0  0  0  0  0
    1.6585   -5.8303    4.7298 N   0  0  0  0  0  0  0  0  0  0  0  0
    0.6847   -5.0400    5.1478 C   0  0  0  0  0  0  0  0  0  0  0  0
    0.8720   -3.6909    4.7510 C   0  0  0  0  0  0  0  0  0  0  0  0
    0.0543   -2.4588    4.9793 C   0  0  0  0  0  0  0  0  0  0  0  0
    0.4901   -1.3740    3.9717 C   0  0  1  0  0  0  0  0  0  0  0  0
    3.3627   -5.3513    3.6560 H   0  0  0  0  0  0  0  0  0  0  0  0
   -3.3059    5.1111    2.8986 H   0  0  0  0  0  0  0  0  0  0  0  0
   -3.3201    3.5146    2.1672 H   0  0  0  0  0  0  0  0  0  0  0  0
   -1.8260    4.4839    2.2697 H   0  0  0  0  0  0  0  0  0  0  0  0
   -2.3455    1.8377    6.0224 H   0  0  0  0  0  0  0  0  0  0  0  0
   -1.1054   -0.3097    6.0510 H   0  0  0  0  0  0  0  0  0  0  0  0
   -0.8491    2.5763    2.0097 H   0  0  0  0  0  0  0  0  0  0  0  0
    0.2487   -0.5072    1.3042 H   0  0  0  0  0  0  0  0  0  0  0  0
    0.4027    1.1609    0.9166 H   0  0  0  0  0  0  0  0  0  0  0  0
    2.5878   -0.2410    1.2093 H   0  0  0  0  0  0  0  0  0  0  0  0
    2.4886    1.4059    1.7546 H   0  0  0  0  0  0  0  0  0  0  0  0
    4.5816   -0.3647    2.9058 H   0  0  0  0  0  0  0  0  0  0  0  0
    4.2706    0.1113    4.5783 H   0  0  0  0  0  0  0  0  0  0  0  0
    4.2061    1.3089    3.3095 H   0  0  0  0  0  0  0  0  0  0  0  0
    2.3214   -1.1275    4.9944 H   0  0  0  0  0  0  0  0  0  0  0  0
    2.5755   -2.6036    2.3371 H   0  0  0  0  0  0  0  0  0  0  0  0
    3.7718   -2.5334    3.6299 H   0  0  0  0  0  0  0  0  0  0  0  0
   -0.1276   -5.4772    5.7133 H   0  0  0  0  0  0  0  0  0  0  0  0
   -1.0093   -2.6677    4.8724 H   0  0  0  0  0  0  0  0  0  0  0  0
    0.2133   -2.1141    6.0020 H   0  0  0  0  0  0  0  0  0  0  0  0
    0.2383   -1.8020    3.0023 H   0  0  0  0  0  0  0  0  0  0  0  0
    2.0809    0.7581    3.8896 H   0  0  0  0  0  0  0  0  0  0  0  0
  1  2  1  0
  1 23  1  0
  1 24  1  0
  1 25  1  0
  2  3  1  0
  3  8  2  0
  3  4  1  0
  4  5  2  0
  4 26  1  0
  5  6  1  0
  5 27  1  0
  6 21  1  0
  6  7  2  0
  7  8  1  0
  7  9  1  0
  8 28  1  0
  9 10  1  0
  9 29  1  0
  9 30  1  0
 10 11  1  0
 10 31  1  0
 10 32  1  0
 11 12  1  0
 11 13  1  0
 11 43  1  1
 12 33  1  0
 12 34  1  0
 12 35  1  0
 13 21  1  0
 13 14  1  0
 13 36  1  1
 14 15  1  0
 14 37  1  0
 14 38  1  0
 15 19  2  0
 15 16  1  0
 16 22  1  0
 16 17  1  0
 17 18  2  0
 18 19  1  0
 18 39  1  0
 19 20  1  0
 20 21  1  0
 20 40  1  0
 20 41  1  0
 21 42  1  6
M  CHG  1  11   1
M  END
>  <i_m_ct_stereo_status>  (261) 
1

>  <s_m_source_file>  (261) 
/var/tmp/pbs.5076255.sched01/tmp7rmqr72f/92ch8atech.sdf

>  <i_m_source_file_index>  (261) 
8

>  <i_lp_mmshare_version>  (261) 
48012

>  <i_f3d_flags>  (261) 
0

>  <s_epik_input>  (261) 
W0NIM11PYyhbY0hdW2NIXTEpW2NIXWMoYzEyKVtDSDJdW0NIMl1OKFtDSDNdKVtDQEhdM1tDQEhdMltDSDJdYzRjKFtDSDJdMylbbkhdbltjSF00

>  <s_epik_cmdline>  (261) 
J2VwaWtfcHl0aG9uJywgJy1waHQnLCAnMi4wJywgJy1waCcsICc3LjAnLCAnLXRuJywgJzgnLCAnLW1hJywgJzIwMCcsICctaW1hZScsICc8aW5maWxlLm1hZT4nLCAnLW9tYWUnLCAnPG91dGZpbGUubWFlPic=

>  <r_lp_tautomer_probability>  (261) 
0.5

>  <r_epik_Ionization_Penalty>  (261) 
0.0521657

>  <r_epik_Ionization_Penalty_Charging>  (261) 
0.0521558

>  <r_epik_Ionization_Penalty_Neutral>  (261) 
9.91598e-06

>  <r_epik_State_Penalty>  (261) 
0.480877

>  <r_epik_Charging_Adjusted_Penalty>  (261) 
0.533033

>  <i_epik_Tot_Q>  (261) 
1

>  <i_epik_Tot_abs_Q>  (261) 
1

>  <s_lp_Force_Field>  (261) 
OPLS3e

>  <r_lp_Energy>  (261) 
35.0007

>  <b_lp_Chiralities_Consistent>  (261) 
1

>  <s_lp_Variant>  (261) 
64:0-2

>  <s_i_glide_gridfile>  (261) 
pfpi4k_grid

>  <i_i_glide_lignum>  (261) 
8

>  <i_i_glide_rotatable_bonds>  (261) 
1

>  <r_i_docking_score>  (261) 
-2.84476

>  <r_i_glide_ligand_efficiency>  (261) 
-0.135465

>  <r_i_glide_ligand_efficiency_sa>  (261) 
-0.373737

>  <r_i_glide_ligand_efficiency_ln>  (261) 
-0.703361

>  <r_i_glide_gscore>  (261) 
-2.84476

>  <r_i_glide_lipo>  (261) 
-0.0188322

>  <r_i_glide_hbond>  (261) 
0

>  <r_i_glide_metal>  (261) 
-0

>  <r_i_glide_rewards>  (261) 
-1.47016

>  <r_i_glide_evdw>  (261) 
-19.0204

>  <r_i_glide_ecoul>  (261) 
-2.68397

>  <r_i_glide_erotb>  (261) 
0

>  <r_i_glide_esite>  (261) 
-0.00214684

>  <r_i_glide_emodel>  (261) 
-25.0575

>  <r_i_glide_energy>  (261) 
-21.7044

>  <r_i_glide_einternal>  (261) 
4.11029

>  <r_i_glide_intrahb_reward>  (261) 
-0

>  <i_i_glide_confnum>  (261) 
2

>  <i_i_glide_posenum>  (261) 
19

>  <r_i_glide_eff_state_penalty>  (261) 
0

>  <ligand_id>  (261) 
64

>  <original_smiles>  (261) 
COc1ccc2c(c1)CCN(C)C1Cc3[nH]ncc3CC21

>  <smiles>  (261) 
[H]c1nn([H])c2c1C([H])([H])C1([H])c3c([H])c([H])c(OC([H])([H])[H])c([H])c3C([H])([H])C([H])([H])[N+]([H])(C([H])([H])[H])C1([H])C2([H])[H]

$$$$
64:2:0
     RDKit          3D

 42 45  0  0  1  0  0  0  0  0999 V2000
    0.0470    5.8826    3.7470 C   0  0  0  0  0  0  0  0  0  0  0  0
   -1.0052    4.9326    3.8415 O   0  0  0  0  0  0  0  0  0  0  0  0
   -0.6455    3.6087    3.9661 C   0  0  0  0  0  0  0  0  0  0  0  0
   -1.6705    2.6432    3.8808 C   0  0  0  0  0  0  0  0  0  0  0  0
   -1.3771    1.2785    4.0176 C   0  0  0  0  0  0  0  0  0  0  0  0
   -0.0520    0.8342    4.2348 C   0  0  0  0  0  0  0  0  0  0  0  0
    0.9839    1.7894    4.3104 C   0  0  0  0  0  0  0  0  0  0  0  0
    0.6749    3.1593    4.1904 C   0  0  0  0  0  0  0  0  0  0  0  0
    2.4297    1.4139    4.5710 C   0  0  0  0  0  0  0  0  0  0  0  0
    3.1126    0.6105    3.4521 C   0  0  0  0  0  0  0  0  0  0  0  0
    2.3983   -0.5845    3.0069 N   0  0  0  0  0  0  0  0  0  0  0  0
    1.7405   -0.4238    1.7034 C   0  0  0  0  0  0  0  0  0  0  0  0
    1.6235   -1.2368    4.0600 C   0  0  2  0  0  0  0  0  0  0  0  0
    1.5331   -2.7622    3.8332 C   0  0  0  0  0  0  0  0  0  0  0  0
    0.7454   -3.3651    4.9674 C   0  0  0  0  0  0  0  0  0  0  0  0
    0.6699   -4.6891    5.3136 N   0  0  0  0  0  0  0  0  0  0  0  0
   -0.1276   -4.8745    6.3799 N   0  0  0  0  0  0  0  0  0  0  0  0
   -0.5451   -3.6702    6.7128 C   0  0  0  0  0  0  0  0  0  0  0  0
   -0.0552   -2.6687    5.8210 C   0  0  0  0  0  0  0  0  0  0  0  0
   -0.2698   -1.1751    5.7540 C   0  0  0  0  0  0  0  0  0  0  0  0
    0.1918   -0.6710    4.3717 C   0  0  1  0  0  0  0  0  0  0  0  0
    1.1593   -5.4460    4.8721 H   0  0  0  0  0  0  0  0  0  0  0  0
   -0.3263    6.9113    3.6621 H   0  0  0  0  0  0  0  0  0  0  0  0
    0.6576    5.6689    2.8686 H   0  0  0  0  0  0  0  0  0  0  0  0
    0.6784    5.8716    4.6316 H   0  0  0  0  0  0  0  0  0  0  0  0
   -2.6854    2.9590    3.6838 H   0  0  0  0  0  0  0  0  0  0  0  0
   -2.1748    0.5438    3.9369 H   0  0  0  0  0  0  0  0  0  0  0  0
    1.5226    3.8356    4.2952 H   0  0  0  0  0  0  0  0  0  0  0  0
    2.9978    2.3356    4.6964 H   0  0  0  0  0  0  0  0  0  0  0  0
    2.4831    0.9227    5.5401 H   0  0  0  0  0  0  0  0  0  0  0  0
    3.2973    1.2643    2.6006 H   0  0  0  0  0  0  0  0  0  0  0  0
    4.0904    0.2997    3.8292 H   0  0  0  0  0  0  0  0  0  0  0  0
    1.3885   -1.3822    1.3279 H   0  0  0  0  0  0  0  0  0  0  0  0
    2.4547   -0.0528    0.9687 H   0  0  0  0  0  0  0  0  0  0  0  0
    0.8956    0.2746    1.7204 H   0  0  0  0  0  0  0  0  0  0  0  0
    2.2294   -1.1229    4.9658 H   0  0  0  0  0  0  0  0  0  0  0  0
    0.9890   -2.9849    2.9230 H   0  0  0  0  0  0  0  0  0  0  0  0
    2.5115   -3.2178    3.7739 H   0  0  0  0  0  0  0  0  0  0  0  0
   -1.1920   -3.5522    7.5607 H   0  0  0  0  0  0  0  0  0  0  0  0
   -1.3072   -0.9246    5.9329 H   0  0  0  0  0  0  0  0  0  0  0  0
    0.3264   -0.6951    6.5301 H   0  0  0  0  0  0  0  0  0  0  0  0
   -0.4818   -1.1103    3.6432 H   0  0  0  0  0  0  0  0  0  0  0  0
  1  2  1  0
  1 23  1  0
  1 24  1  0
  1 25  1  0
  2  3  1  0
  3  8  2  0
  3  4  1  0
  4  5  2  0
  4 26  1  0
  5  6  1  0
  5 27  1  0
  6 21  1  0
  6  7  2  0
  7  8  1  0
  7  9  1  0
  8 28  1  0
  9 10  1  0
  9 29  1  0
  9 30  1  0
 10 11  1  0
 10 31  1  0
 10 32  1  0
 11 12  1  0
 11 13  1  0
 12 33  1  0
 12 34  1  0
 12 35  1  0
 13 21  1  0
 13 14  1  0
 13 36  1  1
 14 15  1  0
 14 37  1  0
 14 38  1  0
 15 19  2  0
 15 16  1  0
 16 22  1  0
 16 17  1  0
 17 18  2  0
 18 19  1  0
 18 39  1  0
 19 20  1  0
 20 21  1  0
 20 40  1  0
 20 41  1  0
 21 42  1  6
M  END
>  <i_m_ct_stereo_status>  (262) 
1

>  <s_m_source_file>  (262) 
/var/tmp/pbs.5076255.sched01/tmp7rmqr72f/92ch8atech.sdf

>  <i_m_source_file_index>  (262) 
9

>  <i_lp_mmshare_version>  (262) 
48012

>  <i_f3d_flags>  (262) 
0

>  <s_epik_input>  (262) 
W0NIM11PYyhbY0hdW2NIXTEpW2NIXWMoYzEyKVtDSDJdW0NIMl1OKFtDSDNdKVtDQEhdM1tDQEhdMltDSDJdYzRjKFtDSDJdMylbbkhdbltjSF00

>  <s_epik_cmdline>  (262) 
J2VwaWtfcHl0aG9uJywgJy1waHQnLCAnMi4wJywgJy1waCcsICc3LjAnLCAnLXRuJywgJzgnLCAnLW1hJywgJzIwMCcsICctaW1hZScsICc8aW5maWxlLm1hZT4nLCAnLW9tYWUnLCAnPG91dGZpbGUubWFlPic=

>  <r_lp_tautomer_probability>  (262) 
0.5

>  <r_epik_Ionization_Penalty>  (262) 
1.46631

>  <r_epik_Ionization_Penalty_Charging>  (262) 
0

>  <r_epik_Ionization_Penalty_Neutral>  (262) 
1.46631

>  <r_epik_State_Penalty>  (262) 
2.05576

>  <r_epik_Charging_Adjusted_Penalty>  (262) 
2.05576

>  <i_epik_Tot_Q>  (262) 
0

>  <i_epik_Tot_abs_Q>  (262) 
0

>  <s_lp_Force_Field>  (262) 
OPLS3e

>  <r_lp_Energy>  (262) 
34.1342

>  <b_lp_Chiralities_Consistent>  (262) 
1

>  <s_lp_Variant>  (262) 
64:0-3

>  <s_i_glide_gridfile>  (262) 
pfpi4k_grid

>  <i_i_glide_lignum>  (262) 
9

>  <i_i_glide_rotatable_bonds>  (262) 
1

>  <r_i_docking_score>  (262) 
-2.96903

>  <r_i_glide_ligand_efficiency>  (262) 
-0.141382

>  <r_i_glide_ligand_efficiency_sa>  (262) 
-0.390063

>  <r_i_glide_ligand_efficiency_ln>  (262) 
-0.734086

>  <r_i_glide_gscore>  (262) 
-2.96903

>  <r_i_glide_lipo>  (262) 
-0.029291

>  <r_i_glide_hbond>  (262) 
-0.132597

>  <r_i_glide_metal>  (262) 
-0

>  <r_i_glide_rewards>  (262) 
-1.47704

>  <r_i_glide_evdw>  (262) 
-17.7797

>  <r_i_glide_ecoul>  (262) 
-2.92075

>  <r_i_glide_erotb>  (262) 
0

>  <r_i_glide_esite>  (262) 
-0.00300616

>  <r_i_glide_emodel>  (262) 
-22.3202

>  <r_i_glide_energy>  (262) 
-20.7004

>  <r_i_glide_einternal>  (262) 
3.60652

>  <r_i_glide_intrahb_reward>  (262) 
-0

>  <i_i_glide_confnum>  (262) 
2

>  <i_i_glide_posenum>  (262) 
19

>  <r_i_glide_eff_state_penalty>  (262) 
0

>  <ligand_id>  (262) 
64

>  <original_smiles>  (262) 
COc1ccc2c(c1)CCN(C)C1Cc3[nH]ncc3CC21

>  <smiles>  (262) 
[H]c1nn([H])c2c1C([H])([H])C1([H])c3c([H])c([H])c(OC([H])([H])[H])c([H])c3C([H])([H])C([H])([H])N(C([H])([H])[H])C1([H])C2([H])[H]

$$$$
64:2:1
     RDKit          3D

 42 45  0  0  1  0  0  0  0  0999 V2000
   -4.5366    4.4810    2.0511 C   0  0  0  0  0  0  0  0  0  0  0  0
   -3.2815    4.9992    2.4805 O   0  0  0  0  0  0  0  0  0  0  0  0
   -2.4008    4.1535    3.1223 C   0  0  0  0  0  0  0  0  0  0  0  0
   -2.7738    2.9023    3.6608 C   0  0  0  0  0  0  0  0  0  0  0  0
   -1.8279    2.1082    4.3227 C   0  0  0  0  0  0  0  0  0  0  0  0
   -0.4884    2.5272    4.4666 C   0  0  0  0  0  0  0  0  0  0  0  0
   -0.1033    3.7764    3.9164 C   0  0  0  0  0  0  0  0  0  0  0  0
   -1.0688    4.5864    3.2840 C   0  0  0  0  0  0  0  0  0  0  0  0
    1.3242    4.2751    4.0226 C   0  0  0  0  0  0  0  0  0  0  0  0
    2.4001    3.4366    3.2889 C   0  0  0  0  0  0  0  0  0  0  0  0
    2.4060    1.9911    3.5564 N   0  0  0  0  0  0  0  0  0  0  0  0
    1.8548    1.1801    2.4692 C   0  0  0  0  0  0  0  0  0  0  0  0
    1.9973    1.6537    4.9217 C   0  0  2  0  0  0  0  0  0  0  0  0
    2.6762    0.3568    5.4308 C   0  0  0  0  0  0  0  0  0  0  0  0
    2.2125    0.0960    6.8258 C   0  0  0  0  0  0  0  0  0  0  0  0
    2.7806   -0.7590    7.7438 N   0  0  0  0  0  0  0  0  0  0  0  0
    2.1121   -0.7516    8.9148 N   0  0  0  0  0  0  0  0  0  0  0  0
    1.1279    0.1183    8.7333 C   0  0  0  0  0  0  0  0  0  0  0  0
    1.1295    0.6628    7.4149 C   0  0  0  0  0  0  0  0  0  0  0  0
    0.2172    1.6416    6.7342 C   0  0  0  0  0  0  0  0  0  0  0  0
    0.4562    1.5855    5.2055 C   0  0  1  0  0  0  0  0  0  0  0  0
    3.6042   -1.3269    7.6086 H   0  0  0  0  0  0  0  0  0  0  0  0
   -5.0906    5.2729    1.5458 H   0  0  0  0  0  0  0  0  0  0  0  0
   -5.1672    4.1426    2.8731 H   0  0  0  0  0  0  0  0  0  0  0  0
   -4.4081    3.6605    1.3418 H   0  0  0  0  0  0  0  0  0  0  0  0
   -3.7845    2.5375    3.5647 H   0  0  0  0  0  0  0  0  0  0  0  0
   -2.1321    1.1493    4.7161 H   0  0  0  0  0  0  0  0  0  0  0  0
   -0.7784    5.5320    2.8529 H   0  0  0  0  0  0  0  0  0  0  0  0
    1.3578    5.2837    3.6097 H   0  0  0  0  0  0  0  0  0  0  0  0
    1.5661    4.3853    5.0768 H   0  0  0  0  0  0  0  0  0  0  0  0
    2.3281    3.6043    2.2129 H   0  0  0  0  0  0  0  0  0  0  0  0
    3.3826    3.8175    3.5969 H   0  0  0  0  0  0  0  0  0  0  0  0
    2.0422    0.1205    2.6332 H   0  0  0  0  0  0  0  0  0  0  0  0
    2.3524    1.4351    1.5333 H   0  0  0  0  0  0  0  0  0  0  0  0
    0.7826    1.3248    2.3213 H   0  0  0  0  0  0  0  0  0  0  0  0
    2.4131    2.4473    5.5470 H   0  0  0  0  0  0  0  0  0  0  0  0
    2.3805   -0.4999    4.8278 H   0  0  0  0  0  0  0  0  0  0  0  0
    3.7609    0.4356    5.3924 H   0  0  0  0  0  0  0  0  0  0  0  0
    0.4476    0.3145    9.5482 H   0  0  0  0  0  0  0  0  0  0  0  0
   -0.8238    1.4436    6.9778 H   0  0  0  0  0  0  0  0  0  0  0  0
    0.4391    2.6440    7.0944 H   0  0  0  0  0  0  0  0  0  0  0  0
    0.1395    0.5924    4.8833 H   0  0  0  0  0  0  0  0  0  0  0  0
  1  2  1  0
  1 23  1  0
  1 24  1  0
  1 25  1  0
  2  3  1  0
  3  8  2  0
  3  4  1  0
  4  5  2  0
  4 26  1  0
  5  6  1  0
  5 27  1  0
  6 21  1  0
  6  7  2  0
  7  8  1  0
  7  9  1  0
  8 28  1  0
  9 10  1  0
  9 29  1  0
  9 30  1  0
 10 11  1  0
 10 31  1  0
 10 32  1  0
 11 12  1  0
 11 13  1  0
 12 33  1  0
 12 34  1  0
 12 35  1  0
 13 21  1  0
 13 14  1  0
 13 36  1  1
 14 15  1  0
 14 37  1  0
 14 38  1  0
 15 19  2  0
 15 16  1  0
 16 22  1  0
 16 17  1  0
 17 18  2  0
 18 19  1  0
 18 39  1  0
 19 20  1  0
 20 21  1  0
 20 40  1  0
 20 41  1  0
 21 42  1  6
M  END
>  <i_m_ct_stereo_status>  (263) 
1

>  <s_m_source_file>  (263) 
/var/tmp/pbs.5076255.sched01/tmp7rmqr72f/92ch8atech.sdf

>  <i_m_source_file_index>  (263) 
9

>  <i_lp_mmshare_version>  (263) 
48012

>  <i_f3d_flags>  (263) 
0

>  <s_epik_input>  (263) 
W0NIM11PYyhbY0hdW2NIXTEpW2NIXWMoYzEyKVtDSDJdW0NIMl1OKFtDSDNdKVtDQEhdM1tDQEhdMltDSDJdYzRjKFtDSDJdMylbbkhdbltjSF00

>  <s_epik_cmdline>  (263) 
J2VwaWtfcHl0aG9uJywgJy1waHQnLCAnMi4wJywgJy1waCcsICc3LjAnLCAnLXRuJywgJzgnLCAnLW1hJywgJzIwMCcsICctaW1hZScsICc8aW5maWxlLm1hZT4nLCAnLW9tYWUnLCAnPG91dGZpbGUubWFlPic=

>  <r_lp_tautomer_probability>  (263) 
0.5

>  <r_epik_Ionization_Penalty>  (263) 
1.46631

>  <r_epik_Ionization_Penalty_Charging>  (263) 
0

>  <r_epik_Ionization_Penalty_Neutral>  (263) 
1.46631

>  <r_epik_State_Penalty>  (263) 
2.05576

>  <r_epik_Charging_Adjusted_Penalty>  (263) 
2.05576

>  <i_epik_Tot_Q>  (263) 
0

>  <i_epik_Tot_abs_Q>  (263) 
0

>  <s_lp_Force_Field>  (263) 
OPLS3e

>  <r_lp_Energy>  (263) 
34.1342

>  <b_lp_Chiralities_Consistent>  (263) 
1

>  <s_lp_Variant>  (263) 
64:0-3

>  <s_i_glide_gridfile>  (263) 
pfpi4k_grid

>  <i_i_glide_lignum>  (263) 
9

>  <i_i_glide_rotatable_bonds>  (263) 
1

>  <r_i_docking_score>  (263) 
-2.67706

>  <r_i_glide_ligand_efficiency>  (263) 
-0.127479

>  <r_i_glide_ligand_efficiency_sa>  (263) 
-0.351705

>  <r_i_glide_ligand_efficiency_ln>  (263) 
-0.661897

>  <r_i_glide_gscore>  (263) 
-2.67706

>  <r_i_glide_lipo>  (263) 
-0.0290477

>  <r_i_glide_hbond>  (263) 
-0.11151

>  <r_i_glide_metal>  (263) 
-0

>  <r_i_glide_rewards>  (263) 
-1.47704

>  <r_i_glide_evdw>  (263) 
-15.7848

>  <r_i_glide_ecoul>  (263) 
-1.80151

>  <r_i_glide_erotb>  (263) 
0

>  <r_i_glide_esite>  (263) 
0

>  <r_i_glide_emodel>  (263) 
-20.4234

>  <r_i_glide_energy>  (263) 
-17.5863

>  <r_i_glide_einternal>  (263) 
0.400974

>  <r_i_glide_intrahb_reward>  (263) 
-0

>  <i_i_glide_confnum>  (263) 
2

>  <i_i_glide_posenum>  (263) 
24

>  <r_i_glide_eff_state_penalty>  (263) 
0

>  <ligand_id>  (263) 
64

>  <original_smiles>  (263) 
COc1ccc2c(c1)CCN(C)C1Cc3[nH]ncc3CC21

>  <smiles>  (263) 
[H]c1nn([H])c2c1C([H])([H])C1([H])c3c([H])c([H])c(OC([H])([H])[H])c([H])c3C([H])([H])C([H])([H])N(C([H])([H])[H])C1([H])C2([H])[H]

$$$$
64:2:2
     RDKit          3D

 42 45  0  0  1  0  0  0  0  0999 V2000
   -3.5554    3.2960    2.4331 C   0  0  0  0  0  0  0  0  0  0  0  0
   -2.1617    3.0715    2.5732 O   0  0  0  0  0  0  0  0  0  0  0  0
   -1.6407    3.1007    3.8542 C   0  0  0  0  0  0  0  0  0  0  0  0
   -0.2401    3.1851    3.9467 C   0  0  0  0  0  0  0  0  0  0  0  0
    0.3888    3.2260    5.2171 C   0  0  0  0  0  0  0  0  0  0  0  0
   -0.3667    3.1543    6.4054 C   0  0  0  0  0  0  0  0  0  0  0  0
   -1.7807    3.0676    6.3199 C   0  0  0  0  0  0  0  0  0  0  0  0
   -2.3947    3.0311    5.0490 C   0  0  0  0  0  0  0  0  0  0  0  0
   -2.6695    2.9486    7.5397 C   0  0  0  0  0  0  0  0  0  0  0  0
   -2.7041    4.1948    8.4525 C   0  0  0  0  0  0  0  0  0  0  0  0
   -1.3966    4.7134    8.8531 N   0  0  0  0  0  0  0  0  0  0  0  0
   -0.9823    5.9281    8.1443 C   0  0  0  0  0  0  0  0  0  0  0  0
   -0.3885    3.6680    9.0159 C   0  0  2  0  0  0  0  0  0  0  0  0
    0.6322    4.0347   10.1177 C   0  0  0  0  0  0  0  0  0  0  0  0
    1.6061    2.9218   10.2611 C   0  0  0  0  0  0  0  0  0  0  0  0
    2.4946    2.7013   11.2729 N   0  0  0  0  0  0  0  0  0  0  0  0
    3.2511    1.5928   11.0820 N   0  0  0  0  0  0  0  0  0  0  0  0
    2.8165    1.1161    9.9180 C   0  0  0  0  0  0  0  0  0  0  0  0
    1.8154    1.9374    9.3209 C   0  0  0  0  0  0  0  0  0  0  0  0
    1.0569    1.8346    8.0314 C   0  0  0  0  0  0  0  0  0  0  0  0
    0.3792    3.1983    7.7324 C   0  0  1  0  0  0  0  0  0  0  0  0
    2.5908    3.2737   12.1009 H   0  0  0  0  0  0  0  0  0  0  0  0
   -3.8611    3.2715    1.3845 H   0  0  0  0  0  0  0  0  0  0  0  0
   -3.7818    4.2846    2.8223 H   0  0  0  0  0  0  0  0  0  0  0  0
   -4.1195    2.5322    2.9592 H   0  0  0  0  0  0  0  0  0  0  0  0
    0.3430    3.2505    3.0424 H   0  0  0  0  0  0  0  0  0  0  0  0
    1.4763    3.3079    5.2667 H   0  0  0  0  0  0  0  0  0  0  0  0
   -3.4730    2.9592    5.0386 H   0  0  0  0  0  0  0  0  0  0  0  0
   -3.6878    2.7738    7.2077 H   0  0  0  0  0  0  0  0  0  0  0  0
   -2.3998    2.0490    8.0789 H   0  0  0  0  0  0  0  0  0  0  0  0
   -3.2754    4.9871    7.9799 H   0  0  0  0  0  0  0  0  0  0  0  0
   -3.2635    3.9361    9.3490 H   0  0  0  0  0  0  0  0  0  0  0  0
   -0.1039    6.3740    8.6160 H   0  0  0  0  0  0  0  0  0  0  0  0
   -1.7750    6.6825    8.2069 H   0  0  0  0  0  0  0  0  0  0  0  0
   -0.7581    5.7726    7.0899 H   0  0  0  0  0  0  0  0  0  0  0  0
   -0.9298    2.8141    9.4160 H   0  0  0  0  0  0  0  0  0  0  0  0
    1.1914    4.9248    9.8338 H   0  0  0  0  0  0  0  0  0  0  0  0
    0.1340    4.2263   11.0706 H   0  0  0  0  0  0  0  0  0  0  0  0
    3.2547    0.2142    9.5230 H   0  0  0  0  0  0  0  0  0  0  0  0
    1.7196    1.5418    7.2150 H   0  0  0  0  0  0  0  0  0  0  0  0
    0.2822    1.0616    8.1167 H   0  0  0  0  0  0  0  0  0  0  0  0
    1.1776    3.9234    7.5679 H   0  0  0  0  0  0  0  0  0  0  0  0
  1  2  1  0
  1 23  1  0
  1 24  1  0
  1 25  1  0
  2  3  1  0
  3  8  2  0
  3  4  1  0
  4  5  2  0
  4 26  1  0
  5  6  1  0
  5 27  1  0
  6 21  1  0
  6  7  2  0
  7  8  1  0
  7  9  1  0
  8 28  1  0
  9 10  1  0
  9 29  1  0
  9 30  1  0
 10 11  1  0
 10 31  1  0
 10 32  1  0
 11 12  1  0
 11 13  1  0
 12 33  1  0
 12 34  1  0
 12 35  1  0
 13 21  1  0
 13 14  1  0
 13 36  1  1
 14 15  1  0
 14 37  1  0
 14 38  1  0
 15 19  2  0
 15 16  1  0
 16 22  1  0
 16 17  1  0
 17 18  2  0
 18 19  1  0
 18 39  1  0
 19 20  1  0
 20 21  1  0
 20 40  1  0
 20 41  1  0
 21 42  1  6
M  END
>  <i_m_ct_stereo_status>  (264) 
1

>  <s_m_source_file>  (264) 
/var/tmp/pbs.5076255.sched01/tmp7rmqr72f/92ch8atech.sdf

>  <i_m_source_file_index>  (264) 
9

>  <i_lp_mmshare_version>  (264) 
48012

>  <i_f3d_flags>  (264) 
0

>  <s_epik_input>  (264) 
W0NIM11PYyhbY0hdW2NIXTEpW2NIXWMoYzEyKVtDSDJdW0NIMl1OKFtDSDNdKVtDQEhdM1tDQEhdMltDSDJdYzRjKFtDSDJdMylbbkhdbltjSF00

>  <s_epik_cmdline>  (264) 
J2VwaWtfcHl0aG9uJywgJy1waHQnLCAnMi4wJywgJy1waCcsICc3LjAnLCAnLXRuJywgJzgnLCAnLW1hJywgJzIwMCcsICctaW1hZScsICc8aW5maWxlLm1hZT4nLCAnLW9tYWUnLCAnPG91dGZpbGUubWFlPic=

>  <r_lp_tautomer_probability>  (264) 
0.5

>  <r_epik_Ionization_Penalty>  (264) 
1.46631

>  <r_epik_Ionization_Penalty_Charging>  (264) 
0

>  <r_epik_Ionization_Penalty_Neutral>  (264) 
1.46631

>  <r_epik_State_Penalty>  (264) 
2.05576

>  <r_epik_Charging_Adjusted_Penalty>  (264) 
2.05576

>  <i_epik_Tot_Q>  (264) 
0

>  <i_epik_Tot_abs_Q>  (264) 
0

>  <s_lp_Force_Field>  (264) 
OPLS3e

>  <r_lp_Energy>  (264) 
34.1342

>  <b_lp_Chiralities_Consistent>  (264) 
1

>  <s_lp_Variant>  (264) 
64:0-3

>  <s_i_glide_gridfile>  (264) 
pfpi4k_grid

>  <i_i_glide_lignum>  (264) 
9

>  <i_i_glide_rotatable_bonds>  (264) 
1

>  <r_i_docking_score>  (264) 
-2.51851

>  <r_i_glide_ligand_efficiency>  (264) 
-0.119929

>  <r_i_glide_ligand_efficiency_sa>  (264) 
-0.330876

>  <r_i_glide_ligand_efficiency_ln>  (264) 
-0.622697

>  <r_i_glide_gscore>  (264) 
-2.51851

>  <r_i_glide_lipo>  (264) 
-0.352424

>  <r_i_glide_hbond>  (264) 
0

>  <r_i_glide_metal>  (264) 
-0

>  <r_i_glide_rewards>  (264) 
-1.47704

>  <r_i_glide_evdw>  (264) 
-15.1067

>  <r_i_glide_ecoul>  (264) 
0.441865

>  <r_i_glide_erotb>  (264) 
0

>  <r_i_glide_esite>  (264) 
0

>  <r_i_glide_emodel>  (264) 
-15.6065

>  <r_i_glide_energy>  (264) 
-14.6648

>  <r_i_glide_einternal>  (264) 
3.66424

>  <r_i_glide_intrahb_reward>  (264) 
-0

>  <i_i_glide_confnum>  (264) 
1

>  <i_i_glide_posenum>  (264) 
2

>  <r_i_glide_eff_state_penalty>  (264) 
0

>  <ligand_id>  (264) 
64

>  <original_smiles>  (264) 
COc1ccc2c(c1)CCN(C)C1Cc3[nH]ncc3CC21

>  <smiles>  (264) 
[H]c1nn([H])c2c1C([H])([H])C1([H])c3c([H])c([H])c(OC([H])([H])[H])c([H])c3C([H])([H])C([H])([H])N(C([H])([H])[H])C1([H])C2([H])[H]

$$$$
64:3:0
     RDKit          3D

 42 45  0  0  1  0  0  0  0  0999 V2000
    4.6172   -1.3048   -1.1589 C   0  0  0  0  0  0  0  0  0  0  0  0
    4.8151   -2.7150   -1.1012 O   0  0  0  0  0  0  0  0  0  0  0  0
    4.2042   -3.4120   -0.0852 C   0  0  0  0  0  0  0  0  0  0  0  0
    4.3783   -4.8037   -0.0452 C   0  0  0  0  0  0  0  0  0  0  0  0
    3.7512   -5.5796    0.9582 C   0  0  0  0  0  0  0  0  0  0  0  0
    2.9457   -4.9759    1.9487 C   0  0  0  0  0  0  0  0  0  0  0  0
    2.7851   -3.5690    1.9212 C   0  0  0  0  0  0  0  0  0  0  0  0
    3.3960   -2.8068    0.9100 C   0  0  0  0  0  0  0  0  0  0  0  0
    1.9333   -2.8335    2.9410 C   0  0  0  0  0  0  0  0  0  0  0  0
    2.4539   -2.8750    4.3861 C   0  0  0  0  0  0  0  0  0  0  0  0
    2.7485   -4.2108    4.9104 N   0  0  0  0  0  0  0  0  0  0  0  0
    4.1799   -4.4998    5.0135 C   0  0  0  0  0  0  0  0  0  0  0  0
    1.8845   -5.2741    4.3774 C   0  0  2  0  0  0  0  0  0  0  0  0
    1.6859   -6.4188    5.4084 C   0  0  0  0  0  0  0  0  0  0  0  0
    0.7492   -7.4393    4.8187 C   0  0  0  0  0  0  0  0  0  0  0  0
    0.1205   -8.3537    5.5441 N   0  0  0  0  0  0  0  0  0  0  0  0
   -0.5726   -9.0499    4.6291 N   0  0  0  0  0  0  0  0  0  0  0  0
   -0.4059   -8.5838    3.3497 C   0  0  0  0  0  0  0  0  0  0  0  0
    0.4634   -7.5264    3.4309 C   0  0  0  0  0  0  0  0  0  0  0  0
    1.0587   -6.6175    2.3852 C   0  0  0  0  0  0  0  0  0  0  0  0
    2.2809   -5.8803    2.9862 C   0  0  1  0  0  0  0  0  0  0  0  0
   -1.1849   -9.8306    4.8873 H   0  0  0  0  0  0  0  0  0  0  0  0
    5.1535   -0.8422   -1.9917 H   0  0  0  0  0  0  0  0  0  0  0  0
    4.9819   -0.8460   -0.2391 H   0  0  0  0  0  0  0  0  0  0  0  0
    3.5559   -1.0870   -1.2866 H   0  0  0  0  0  0  0  0  0  0  0  0
    4.9851   -5.2820   -0.7889 H   0  0  0  0  0  0  0  0  0  0  0  0
    3.8897   -6.6514    0.9589 H   0  0  0  0  0  0  0  0  0  0  0  0
    3.2022   -1.7399    0.9135 H   0  0  0  0  0  0  0  0  0  0  0  0
    1.8839   -1.7883    2.6504 H   0  0  0  0  0  0  0  0  0  0  0  0
    0.9108   -3.1867    2.8770 H   0  0  0  0  0  0  0  0  0  0  0  0
    3.3310   -2.2428    4.4850 H   0  0  0  0  0  0  0  0  0  0  0  0
    1.6859   -2.4302    5.0216 H   0  0  0  0  0  0  0  0  0  0  0  0
    4.3587   -5.4116    5.5867 H   0  0  0  0  0  0  0  0  0  0  0  0
    4.6824   -3.6958    5.5555 H   0  0  0  0  0  0  0  0  0  0  0  0
    4.6740   -4.5995    4.0463 H   0  0  0  0  0  0  0  0  0  0  0  0
    0.9044   -4.8107    4.2717 H   0  0  0  0  0  0  0  0  0  0  0  0
    2.6400   -6.9017    5.6065 H   0  0  0  0  0  0  0  0  0  0  0  0
    1.3119   -6.0360    6.3507 H   0  0  0  0  0  0  0  0  0  0  0  0
   -0.9068   -9.0163    2.4879 H   0  0  0  0  0  0  0  0  0  0  0  0
    0.3145   -5.8857    2.0824 H   0  0  0  0  0  0  0  0  0  0  0  0
    1.3288   -7.1767    1.4892 H   0  0  0  0  0  0  0  0  0  0  0  0
    3.0339   -6.6414    3.1918 H   0  0  0  0  0  0  0  0  0  0  0  0
  1  2  1  0
  1 23  1  0
  1 24  1  0
  1 25  1  0
  2  3  1  0
  3  8  2  0
  3  4  1  0
  4  5  2  0
  4 26  1  0
  5  6  1  0
  5 27  1  0
  6 21  1  0
  6  7  2  0
  7  8  1  0
  7  9  1  0
  8 28  1  0
  9 10  1  0
  9 29  1  0
  9 30  1  0
 10 11  1  0
 10 31  1  0
 10 32  1  0
 11 12  1  0
 11 13  1  0
 12 33  1  0
 12 34  1  0
 12 35  1  0
 13 21  1  0
 13 14  1  0
 13 36  1  6
 14 37  1  0
 14 38  1  0
 14 15  1  0
 15 16  2  0
 15 19  1  0
 16 17  1  0
 17 22  1  0
 17 18  1  0
 18 39  1  0
 18 19  2  0
 19 20  1  0
 20 21  1  0
 20 40  1  0
 20 41  1  0
 21 42  1  1
M  END
>  <i_m_ct_stereo_status>  (265) 
1

>  <s_m_source_file>  (265) 
/var/tmp/pbs.5076255.sched01/tmp7rmqr72f/92ch8atech.sdf

>  <i_m_source_file_index>  (265) 
10

>  <i_lp_mmshare_version>  (265) 
48012

>  <i_f3d_flags>  (265) 
0

>  <s_epik_input>  (265) 
W0NIM11PYyhbY0hdW2NIXTEpW2NIXWMoYzEyKVtDSDJdW0NIMl1OKFtDSDNdKVtDQEhdM1tDQEhdMltDSDJdYzRjKFtDSDJdMylbbkhdbltjSF00

>  <s_epik_cmdline>  (265) 
J2VwaWtfcHl0aG9uJywgJy1waHQnLCAnMi4wJywgJy1waCcsICc3LjAnLCAnLXRuJywgJzgnLCAnLW1hJywgJzIwMCcsICctaW1hZScsICc8aW5maWxlLm1hZT4nLCAnLW9tYWUnLCAnPG91dGZpbGUubWFlPic=

>  <r_lp_tautomer_probability>  (265) 
0.5

>  <r_epik_Ionization_Penalty>  (265) 
1.70065

>  <r_epik_Ionization_Penalty_Charging>  (265) 
0

>  <r_epik_Ionization_Penalty_Neutral>  (265) 
1.70065

>  <r_epik_State_Penalty>  (265) 
2.12229

>  <r_epik_Charging_Adjusted_Penalty>  (265) 
2.12229

>  <i_epik_Tot_Q>  (265) 
0

>  <i_epik_Tot_abs_Q>  (265) 
0

>  <s_lp_Force_Field>  (265) 
OPLS3e

>  <r_lp_Energy>  (265) 
35.5962

>  <b_lp_Chiralities_Consistent>  (265) 
1

>  <s_lp_Variant>  (265) 
64:0-4

>  <s_i_glide_gridfile>  (265) 
pfpi4k_grid

>  <i_i_glide_lignum>  (265) 
10

>  <i_i_glide_rotatable_bonds>  (265) 
1

>  <r_i_docking_score>  (265) 
-3.43711

>  <r_i_glide_ligand_efficiency>  (265) 
-0.163672

>  <r_i_glide_ligand_efficiency_sa>  (265) 
-0.451558

>  <r_i_glide_ligand_efficiency_ln>  (265) 
-0.849819

>  <r_i_glide_gscore>  (265) 
-3.43711

>  <r_i_glide_lipo>  (265) 
-0.0527853

>  <r_i_glide_hbond>  (265) 
-0.16

>  <r_i_glide_metal>  (265) 
-0

>  <r_i_glide_rewards>  (265) 
-1.47704

>  <r_i_glide_evdw>  (265) 
-16.6118

>  <r_i_glide_ecoul>  (265) 
-5.44465

>  <r_i_glide_erotb>  (265) 
0

>  <r_i_glide_esite>  (265) 
-0.1

>  <r_i_glide_emodel>  (265) 
-25.3473

>  <r_i_glide_energy>  (265) 
-22.0565

>  <r_i_glide_einternal>  (265) 
3.30316

>  <r_i_glide_intrahb_reward>  (265) 
-0

>  <i_i_glide_confnum>  (265) 
1

>  <i_i_glide_posenum>  (265) 
1

>  <r_i_glide_eff_state_penalty>  (265) 
0

>  <ligand_id>  (265) 
64

>  <original_smiles>  (265) 
COc1ccc2c(c1)CCN(C)C1Cc3[nH]ncc3CC21

>  <smiles>  (265) 
[H]c1c([H])c2c(c([H])c1OC([H])([H])[H])C([H])([H])C([H])([H])N(C([H])([H])[H])C1([H])C([H])([H])c3nn([H])c([H])c3C([H])([H])C21[H]

$$$$
64:3:1
     RDKit          3D

 42 45  0  0  1  0  0  0  0  0999 V2000
    2.9176   -0.2398    1.9143 C   0  0  0  0  0  0  0  0  0  0  0  0
    3.7957   -1.1457    2.5736 O   0  0  0  0  0  0  0  0  0  0  0  0
    3.2313   -2.0651    3.4338 C   0  0  0  0  0  0  0  0  0  0  0  0
    4.0854   -3.0167    4.0269 C   0  0  0  0  0  0  0  0  0  0  0  0
    3.5724   -4.0021    4.8895 C   0  0  0  0  0  0  0  0  0  0  0  0
    2.1952   -4.0588    5.1959 C   0  0  0  0  0  0  0  0  0  0  0  0
    1.3402   -3.0874    4.6317 C   0  0  0  0  0  0  0  0  0  0  0  0
    1.8551   -2.1218    3.7504 C   0  0  0  0  0  0  0  0  0  0  0  0
   -0.1511   -3.0766    4.8915 C   0  0  0  0  0  0  0  0  0  0  0  0
   -0.5635   -2.7766    6.3386 C   0  0  0  0  0  0  0  0  0  0  0  0
    0.0640   -3.6019    7.3705 N   0  0  0  0  0  0  0  0  0  0  0  0
    1.1027   -2.9010    8.1337 C   0  0  0  0  0  0  0  0  0  0  0  0
    0.3780   -4.9680    6.9320 C   0  0  2  0  0  0  0  0  0  0  0  0
    0.3331   -5.9719    8.1168 C   0  0  0  0  0  0  0  0  0  0  0  0
    0.5939   -7.3561    7.5932 C   0  0  0  0  0  0  0  0  0  0  0  0
    0.3044   -8.4622    8.2703 N   0  0  0  0  0  0  0  0  0  0  0  0
    0.7116   -9.4409    7.4444 N   0  0  0  0  0  0  0  0  0  0  0  0
    1.2320   -8.9715    6.2626 C   0  0  0  0  0  0  0  0  0  0  0  0
    1.1890   -7.6087    6.3280 C   0  0  0  0  0  0  0  0  0  0  0  0
    1.6313   -6.5278    5.3669 C   0  0  0  0  0  0  0  0  0  0  0  0
    1.7021   -5.1825    6.1177 C   0  0  1  0  0  0  0  0  0  0  0  0
    0.6800  -10.4327    7.6944 H   0  0  0  0  0  0  0  0  0  0  0  0
    3.4552    0.4627    1.2638 H   0  0  0  0  0  0  0  0  0  0  0  0
    2.3648    0.3577    2.6427 H   0  0  0  0  0  0  0  0  0  0  0  0
    2.2154   -0.7941    1.2873 H   0  0  0  0  0  0  0  0  0  0  0  0
    5.1431   -2.9855    3.8127 H   0  0  0  0  0  0  0  0  0  0  0  0
    4.2469   -4.7387    5.3239 H   0  0  0  0  0  0  0  0  0  0  0  0
    1.1421   -1.4277    3.3129 H   0  0  0  0  0  0  0  0  0  0  0  0
   -0.6036   -2.3164    4.2640 H   0  0  0  0  0  0  0  0  0  0  0  0
   -0.5487   -4.0181    4.5340 H   0  0  0  0  0  0  0  0  0  0  0  0
   -0.3976   -1.7244    6.5592 H   0  0  0  0  0  0  0  0  0  0  0  0
   -1.6442   -2.9371    6.4044 H   0  0  0  0  0  0  0  0  0  0  0  0
    1.4159   -3.4832    9.0014 H   0  0  0  0  0  0  0  0  0  0  0  0
    0.7113   -1.9593    8.5229 H   0  0  0  0  0  0  0  0  0  0  0  0
    1.9892   -2.6655    7.5412 H   0  0  0  0  0  0  0  0  0  0  0  0
   -0.4556   -5.2548    6.2860 H   0  0  0  0  0  0  0  0  0  0  0  0
    1.1101   -5.7228    8.8401 H   0  0  0  0  0  0  0  0  0  0  0  0
   -0.6241   -5.9192    8.6337 H   0  0  0  0  0  0  0  0  0  0  0  0
    1.6027   -9.6330    5.4823 H   0  0  0  0  0  0  0  0  0  0  0  0
    0.9115   -6.4603    4.5569 H   0  0  0  0  0  0  0  0  0  0  0  0
    2.5830   -6.7838    4.9079 H   0  0  0  0  0  0  0  0  0  0  0  0
    2.4988   -5.2773    6.8564 H   0  0  0  0  0  0  0  0  0  0  0  0
  1  2  1  0
  1 23  1  0
  1 24  1  0
  1 25  1  0
  2  3  1  0
  3  8  2  0
  3  4  1  0
  4  5  2  0
  4 26  1  0
  5  6  1  0
  5 27  1  0
  6 21  1  0
  6  7  2  0
  7  8  1  0
  7  9  1  0
  8 28  1  0
  9 10  1  0
  9 29  1  0
  9 30  1  0
 10 11  1  0
 10 31  1  0
 10 32  1  0
 11 12  1  0
 11 13  1  0
 12 33  1  0
 12 34  1  0
 12 35  1  0
 13 21  1  0
 13 14  1  0
 13 36  1  6
 14 37  1  0
 14 38  1  0
 14 15  1  0
 15 16  2  0
 15 19  1  0
 16 17  1  0
 17 22  1  0
 17 18  1  0
 18 39  1  0
 18 19  2  0
 19 20  1  0
 20 21  1  0
 20 40  1  0
 20 41  1  0
 21 42  1  1
M  END
>  <i_m_ct_stereo_status>  (266) 
1

>  <s_m_source_file>  (266) 
/var/tmp/pbs.5076255.sched01/tmp7rmqr72f/92ch8atech.sdf

>  <i_m_source_file_index>  (266) 
10

>  <i_lp_mmshare_version>  (266) 
48012

>  <i_f3d_flags>  (266) 
0

>  <s_epik_input>  (266) 
W0NIM11PYyhbY0hdW2NIXTEpW2NIXWMoYzEyKVtDSDJdW0NIMl1OKFtDSDNdKVtDQEhdM1tDQEhdMltDSDJdYzRjKFtDSDJdMylbbkhdbltjSF00

>  <s_epik_cmdline>  (266) 
J2VwaWtfcHl0aG9uJywgJy1waHQnLCAnMi4wJywgJy1waCcsICc3LjAnLCAnLXRuJywgJzgnLCAnLW1hJywgJzIwMCcsICctaW1hZScsICc8aW5maWxlLm1hZT4nLCAnLW9tYWUnLCAnPG91dGZpbGUubWFlPic=

>  <r_lp_tautomer_probability>  (266) 
0.5

>  <r_epik_Ionization_Penalty>  (266) 
1.70065

>  <r_epik_Ionization_Penalty_Charging>  (266) 
0

>  <r_epik_Ionization_Penalty_Neutral>  (266) 
1.70065

>  <r_epik_State_Penalty>  (266) 
2.12229

>  <r_epik_Charging_Adjusted_Penalty>  (266) 
2.12229

>  <i_epik_Tot_Q>  (266) 
0

>  <i_epik_Tot_abs_Q>  (266) 
0

>  <s_lp_Force_Field>  (266) 
OPLS3e

>  <r_lp_Energy>  (266) 
35.5962

>  <b_lp_Chiralities_Consistent>  (266) 
1

>  <s_lp_Variant>  (266) 
64:0-4

>  <s_i_glide_gridfile>  (266) 
pfpi4k_grid

>  <i_i_glide_lignum>  (266) 
10

>  <i_i_glide_rotatable_bonds>  (266) 
1

>  <r_i_docking_score>  (266) 
-3.17357

>  <r_i_glide_ligand_efficiency>  (266) 
-0.151122

>  <r_i_glide_ligand_efficiency_sa>  (266) 
-0.416935

>  <r_i_glide_ligand_efficiency_ln>  (266) 
-0.784658

>  <r_i_glide_gscore>  (266) 
-3.17357

>  <r_i_glide_lipo>  (266) 
-0.0189978

>  <r_i_glide_hbond>  (266) 
-0.16

>  <r_i_glide_metal>  (266) 
-0

>  <r_i_glide_rewards>  (266) 
-1.47704

>  <r_i_glide_evdw>  (266) 
-14.2164

>  <r_i_glide_ecoul>  (266) 
-4.74166

>  <r_i_glide_erotb>  (266) 
0

>  <r_i_glide_esite>  (266) 
-0.0954649

>  <r_i_glide_emodel>  (266) 
-21.7959

>  <r_i_glide_energy>  (266) 
-18.9581

>  <r_i_glide_einternal>  (266) 
3.3607

>  <r_i_glide_intrahb_reward>  (266) 
-0

>  <i_i_glide_confnum>  (266) 
1

>  <i_i_glide_posenum>  (266) 
6

>  <r_i_glide_eff_state_penalty>  (266) 
0

>  <ligand_id>  (266) 
64

>  <original_smiles>  (266) 
COc1ccc2c(c1)CCN(C)C1Cc3[nH]ncc3CC21

>  <smiles>  (266) 
[H]c1c([H])c2c(c([H])c1OC([H])([H])[H])C([H])([H])C([H])([H])N(C([H])([H])[H])C1([H])C([H])([H])c3nn([H])c([H])c3C([H])([H])C21[H]

$$$$
64:3:2
     RDKit          3D

 42 45  0  0  1  0  0  0  0  0999 V2000
    1.5295   -0.7281    2.6575 C   0  0  0  0  0  0  0  0  0  0  0  0
    0.8198   -1.3475    3.7222 O   0  0  0  0  0  0  0  0  0  0  0  0
    1.0162   -2.6945    3.9479 C   0  0  0  0  0  0  0  0  0  0  0  0
    1.9374   -3.4944    3.2312 C   0  0  0  0  0  0  0  0  0  0  0  0
    2.0361   -4.8705    3.5032 C   0  0  0  0  0  0  0  0  0  0  0  0
    1.2387   -5.4847    4.4894 C   0  0  0  0  0  0  0  0  0  0  0  0
    0.3377   -4.6828    5.2327 C   0  0  0  0  0  0  0  0  0  0  0  0
    0.2320   -3.3016    4.9452 C   0  0  0  0  0  0  0  0  0  0  0  0
   -0.5578   -5.2918    6.2903 C   0  0  0  0  0  0  0  0  0  0  0  0
    0.1701   -5.8798    7.5231 C   0  0  0  0  0  0  0  0  0  0  0  0
    1.2597   -6.8195    7.2486 N   0  0  0  0  0  0  0  0  0  0  0  0
    2.5994   -6.2597    7.4470 C   0  0  0  0  0  0  0  0  0  0  0  0
    1.0467   -7.6462    6.0555 C   0  0  2  0  0  0  0  0  0  0  0  0
    1.7439   -9.0333    6.1793 C   0  0  0  0  0  0  0  0  0  0  0  0
    1.4469   -9.8289    4.9438 C   0  0  0  0  0  0  0  0  0  0  0  0
    1.6392  -11.1363    4.8738 N   0  0  0  0  0  0  0  0  0  0  0  0
    1.2402  -11.4461    3.6264 N   0  0  0  0  0  0  0  0  0  0  0  0
    0.8293  -10.3408    2.9049 C   0  0  0  0  0  0  0  0  0  0  0  0
    0.9667   -9.2634    3.7310 C   0  0  0  0  0  0  0  0  0  0  0  0
    0.7132   -7.7944    3.5378 C   0  0  0  0  0  0  0  0  0  0  0  0
    1.4029   -6.9969    4.6747 C   0  0  1  0  0  0  0  0  0  0  0  0
    1.2808  -12.4002    3.2919 H   0  0  0  0  0  0  0  0  0  0  0  0
    1.2788    0.3325    2.6285 H   0  0  0  0  0  0  0  0  0  0  0  0
    1.2576   -1.1557    1.6917 H   0  0  0  0  0  0  0  0  0  0  0  0
    2.6090   -0.7989    2.7926 H   0  0  0  0  0  0  0  0  0  0  0  0
    2.5735   -3.0760    2.4651 H   0  0  0  0  0  0  0  0  0  0  0  0
    2.7368   -5.4648    2.9360 H   0  0  0  0  0  0  0  0  0  0  0  0
   -0.4802   -2.6913    5.4797 H   0  0  0  0  0  0  0  0  0  0  0  0
   -1.2467   -4.5304    6.6506 H   0  0  0  0  0  0  0  0  0  0  0  0
   -1.1895   -6.0402    5.8174 H   0  0  0  0  0  0  0  0  0  0  0  0
    0.5385   -5.0760    8.1555 H   0  0  0  0  0  0  0  0  0  0  0  0
   -0.5684   -6.4190    8.1243 H   0  0  0  0  0  0  0  0  0  0  0  0
    3.3615   -7.0387    7.4184 H   0  0  0  0  0  0  0  0  0  0  0  0
    2.6670   -5.8042    8.4360 H   0  0  0  0  0  0  0  0  0  0  0  0
    2.8602   -5.4962    6.7149 H   0  0  0  0  0  0  0  0  0  0  0  0
   -0.0196   -7.8734    6.0525 H   0  0  0  0  0  0  0  0  0  0  0  0
    2.8254   -8.9115    6.2518 H   0  0  0  0  0  0  0  0  0  0  0  0
    1.4242   -9.5677    7.0745 H   0  0  0  0  0  0  0  0  0  0  0  0
    0.4876  -10.4041    1.8784 H   0  0  0  0  0  0  0  0  0  0  0  0
   -0.3578   -7.6061    3.5670 H   0  0  0  0  0  0  0  0  0  0  0  0
    1.0622   -7.4677    2.5591 H   0  0  0  0  0  0  0  0  0  0  0  0
    2.4758   -7.1542    4.5497 H   0  0  0  0  0  0  0  0  0  0  0  0
  1  2  1  0
  1 23  1  0
  1 24  1  0
  1 25  1  0
  2  3  1  0
  3  8  2  0
  3  4  1  0
  4  5  2  0
  4 26  1  0
  5  6  1  0
  5 27  1  0
  6 21  1  0
  6  7  2  0
  7  8  1  0
  7  9  1  0
  8 28  1  0
  9 10  1  0
  9 29  1  0
  9 30  1  0
 10 11  1  0
 10 31  1  0
 10 32  1  0
 11 12  1  0
 11 13  1  0
 12 33  1  0
 12 34  1  0
 12 35  1  0
 13 21  1  0
 13 14  1  0
 13 36  1  6
 14 37  1  0
 14 38  1  0
 14 15  1  0
 15 16  2  0
 15 19  1  0
 16 17  1  0
 17 22  1  0
 17 18  1  0
 18 39  1  0
 18 19  2  0
 19 20  1  0
 20 21  1  0
 20 40  1  0
 20 41  1  0
 21 42  1  6
M  END
>  <i_m_ct_stereo_status>  (267) 
1

>  <s_m_source_file>  (267) 
/var/tmp/pbs.5076255.sched01/tmp7rmqr72f/92ch8atech.sdf

>  <i_m_source_file_index>  (267) 
10

>  <i_lp_mmshare_version>  (267) 
48012

>  <i_f3d_flags>  (267) 
0

>  <s_epik_input>  (267) 
W0NIM11PYyhbY0hdW2NIXTEpW2NIXWMoYzEyKVtDSDJdW0NIMl1OKFtDSDNdKVtDQEhdM1tDQEhdMltDSDJdYzRjKFtDSDJdMylbbkhdbltjSF00

>  <s_epik_cmdline>  (267) 
J2VwaWtfcHl0aG9uJywgJy1waHQnLCAnMi4wJywgJy1waCcsICc3LjAnLCAnLXRuJywgJzgnLCAnLW1hJywgJzIwMCcsICctaW1hZScsICc8aW5maWxlLm1hZT4nLCAnLW9tYWUnLCAnPG91dGZpbGUubWFlPic=

>  <r_lp_tautomer_probability>  (267) 
0.5

>  <r_epik_Ionization_Penalty>  (267) 
1.70065

>  <r_epik_Ionization_Penalty_Charging>  (267) 
0

>  <r_epik_Ionization_Penalty_Neutral>  (267) 
1.70065

>  <r_epik_State_Penalty>  (267) 
2.12229

>  <r_epik_Charging_Adjusted_Penalty>  (267) 
2.12229

>  <i_epik_Tot_Q>  (267) 
0

>  <i_epik_Tot_abs_Q>  (267) 
0

>  <s_lp_Force_Field>  (267) 
OPLS3e

>  <r_lp_Energy>  (267) 
35.5962

>  <b_lp_Chiralities_Consistent>  (267) 
1

>  <s_lp_Variant>  (267) 
64:0-4

>  <s_i_glide_gridfile>  (267) 
pfpi4k_grid

>  <i_i_glide_lignum>  (267) 
10

>  <i_i_glide_rotatable_bonds>  (267) 
1

>  <r_i_docking_score>  (267) 
-2.75461

>  <r_i_glide_ligand_efficiency>  (267) 
-0.131172

>  <r_i_glide_ligand_efficiency_sa>  (267) 
-0.361893

>  <r_i_glide_ligand_efficiency_ln>  (267) 
-0.681071

>  <r_i_glide_gscore>  (267) 
-2.75461

>  <r_i_glide_lipo>  (267) 
-0.237578

>  <r_i_glide_hbond>  (267) 
-0.157951

>  <r_i_glide_metal>  (267) 
-0

>  <r_i_glide_rewards>  (267) 
-1.47704

>  <r_i_glide_evdw>  (267) 
-18.0753

>  <r_i_glide_ecoul>  (267) 
0.144809

>  <r_i_glide_erotb>  (267) 
0

>  <r_i_glide_esite>  (267) 
0

>  <r_i_glide_emodel>  (267) 
-21.7998

>  <r_i_glide_energy>  (267) 
-17.9305

>  <r_i_glide_einternal>  (267) 
0.0771829

>  <r_i_glide_intrahb_reward>  (267) 
-0

>  <i_i_glide_confnum>  (267) 
1

>  <i_i_glide_posenum>  (267) 
20

>  <r_i_glide_eff_state_penalty>  (267) 
0

>  <ligand_id>  (267) 
64

>  <original_smiles>  (267) 
COc1ccc2c(c1)CCN(C)C1Cc3[nH]ncc3CC21

>  <smiles>  (267) 
[H]c1c([H])c2c(c([H])c1OC([H])([H])[H])C([H])([H])C([H])([H])N(C([H])([H])[H])C1([H])C([H])([H])c3nn([H])c([H])c3C([H])([H])C21[H]

$$$$
65:0:0
     RDKit          3D

 61 66  0  0  1  0  0  0  0  0999 V2000
    2.9036   -2.5302   -3.3899 C   0  0  0  0  0  0  0  0  0  0  0  0
    3.4140   -2.3921   -2.1581 C   0  0  0  0  0  0  0  0  0  0  0  0
    2.9177   -3.0734   -0.9572 C   0  0  0  0  0  0  0  0  0  0  0  0
    2.0163   -3.9045   -0.9111 O   0  0  0  0  0  0  0  0  0  0  0  0
    3.6711   -2.5662    0.2969 C   0  0  2  0  0  0  0  0  0  0  0  0
    4.0109   -1.1501   -0.2526 C   0  0  1  0  0  0  0  0  0  0  0  0
    4.9583   -0.3779    0.4734 O   0  0  0  0  0  0  0  0  0  0  0  0
    4.4698   -1.4253   -1.6911 C   0  0  1  0  0  0  0  0  0  0  0  0
    5.8428   -2.1248   -1.6616 C   0  0  0  0  0  0  0  0  0  0  0  0
    5.8316   -3.4391   -0.8502 C   0  0  1  0  0  0  0  0  0  0  0  0
    7.1971   -3.7066   -0.6162 O   0  0  0  0  0  0  0  0  0  0  0  0
    5.0153   -3.3590    0.4992 C   0  0  2  0  0  0  0  0  0  0  0  0
    4.9329   -4.7210    1.3214 C   0  0  0  0  0  0  0  0  0  0  0  0
    5.0748   -5.9746    0.4140 C   0  0  0  0  0  0  0  0  0  0  0  0
    6.1741   -4.7224    2.2571 C   0  0  0  0  0  0  0  0  0  0  0  0
    3.6154   -4.8475    2.1971 C   0  0  1  0  0  0  0  0  0  0  0  0
    2.5805   -5.4054    1.3928 O   0  0  0  0  0  0  0  0  0  0  0  0
    3.7715   -5.8210    3.3992 C   0  0  0  0  0  0  0  0  0  0  0  0
    2.4449   -6.1629    4.1050 C   0  0  1  0  0  0  0  0  0  0  0  0
    2.7096   -7.0735    5.2956 C   0  0  0  0  0  0  0  0  0  0  0  0
    2.9318   -8.5500    5.0599 C   0  0  0  0  0  0  0  0  0  0  0  0
    1.6764   -8.0757    5.7498 C   0  0  0  0  0  0  0  0  0  0  0  0
    1.6793   -4.8939    4.4415 C   0  0  1  0  0  0  0  0  0  0  0  0
    0.2589   -5.1271    4.9233 C   0  0  0  0  0  0  0  0  0  0  0  0
    2.4196   -3.8811    5.1079 O   0  0  0  0  0  0  0  0  0  0  0  0
    2.0099   -3.5835    3.7526 C   0  0  1  0  0  0  0  0  0  0  0  0
    3.1434   -3.4643    2.7246 C   0  0  2  0  0  0  0  0  0  0  0  0
    2.7409   -2.5256    1.5658 C   0  0  1  0  0  0  0  0  0  0  0  0
    2.5321   -1.2256    2.0919 O   0  0  0  0  0  0  0  0  0  0  0  0
    3.2719   -1.9475   -4.2204 H   0  0  0  0  0  0  0  0  0  0  0  0
    2.0922   -3.2129   -3.5872 H   0  0  0  0  0  0  0  0  0  0  0  0
    3.0874   -0.5716   -0.2946 H   0  0  0  0  0  0  0  0  0  0  0  0
    5.0126    0.4844    0.0791 H   0  0  0  0  0  0  0  0  0  0  0  0
    4.4841   -0.5141   -2.2944 H   0  0  0  0  0  0  0  0  0  0  0  0
    6.1710   -2.3309   -2.6834 H   0  0  0  0  0  0  0  0  0  0  0  0
    6.5738   -1.4510   -1.2179 H   0  0  0  0  0  0  0  0  0  0  0  0
    5.4201   -4.2198   -1.4987 H   0  0  0  0  0  0  0  0  0  0  0  0
    7.6147   -3.8419   -1.4541 H   0  0  0  0  0  0  0  0  0  0  0  0
    5.6004   -2.6883    1.1303 H   0  0  0  0  0  0  0  0  0  0  0  0
    4.9054   -6.8974    0.9662 H   0  0  0  0  0  0  0  0  0  0  0  0
    6.0803   -6.0520    0.0021 H   0  0  0  0  0  0  0  0  0  0  0  0
    4.3710   -5.9670   -0.4193 H   0  0  0  0  0  0  0  0  0  0  0  0
    6.3224   -5.6758    2.7614 H   0  0  0  0  0  0  0  0  0  0  0  0
    6.0717   -3.9536    3.0229 H   0  0  0  0  0  0  0  0  0  0  0  0
    7.1053   -4.5156    1.7292 H   0  0  0  0  0  0  0  0  0  0  0  0
    2.6130   -4.9949    0.5356 H   0  0  0  0  0  0  0  0  0  0  0  0
    4.2388   -6.7530    3.0861 H   0  0  0  0  0  0  0  0  0  0  0  0
    4.4411   -5.3719    4.1388 H   0  0  0  0  0  0  0  0  0  0  0  0
    1.8280   -6.7303    3.4049 H   0  0  0  0  0  0  0  0  0  0  0  0
    3.3293   -6.6231    6.0732 H   0  0  0  0  0  0  0  0  0  0  0  0
    2.8441   -8.9132    4.0358 H   0  0  0  0  0  0  0  0  0  0  0  0
    3.6670   -9.0657    5.6742 H   0  0  0  0  0  0  0  0  0  0  0  0
    1.5923   -8.2680    6.8175 H   0  0  0  0  0  0  0  0  0  0  0  0
    0.7405   -8.1149    5.1939 H   0  0  0  0  0  0  0  0  0  0  0  0
   -0.3122   -5.6575    4.1602 H   0  0  0  0  0  0  0  0  0  0  0  0
   -0.2340   -4.1743    5.1184 H   0  0  0  0  0  0  0  0  0  0  0  0
    0.2401   -5.7092    5.8420 H   0  0  0  0  0  0  0  0  0  0  0  0
    1.2212   -2.8371    3.6937 H   0  0  0  0  0  0  0  0  0  0  0  0
    3.9793   -2.9939    3.2492 H   0  0  0  0  0  0  0  0  0  0  0  0
    1.7422   -2.8263    1.2691 H   0  0  0  0  0  0  0  0  0  0  0  0
    2.0930   -0.7016    1.4333 H   0  0  0  0  0  0  0  0  0  0  0  0
  1  2  2  0
  1 30  1  0
  1 31  1  0
  2  8  1  0
  2  3  1  0
  3  4  2  0
  5  3  1  6
  5 12  1  0
  5 28  1  0
  5  6  1  0
  6  7  1  0
  6  8  1  0
  6 32  1  6
  7 33  1  0
  8  9  1  0
  8 34  1  6
  9 10  1  0
  9 35  1  0
  9 36  1  0
 10 11  1  0
 10 12  1  0
 10 37  1  6
 11 38  1  0
 12 13  1  0
 12 39  1  1
 13 14  1  0
 13 15  1  0
 13 16  1  0
 14 40  1  0
 14 41  1  0
 14 42  1  0
 15 43  1  0
 15 44  1  0
 15 45  1  0
 16 27  1  0
 16 17  1  6
 16 18  1  0
 17 46  1  0
 18 19  1  0
 18 47  1  0
 18 48  1  0
 19 20  1  0
 19 23  1  0
 19 49  1  6
 20 22  1  0
 20 21  1  0
 20 50  1  0
 21 22  1  0
 21 51  1  0
 21 52  1  0
 22 53  1  0
 22 54  1  0
 23 26  1  0
 23 24  1  1
 23 25  1  0
 24 55  1  0
 24 56  1  0
 24 57  1  0
 25 26  1  0
 26 27  1  0
 26 58  1  1
 27 28  1  0
 27 59  1  1
 28 29  1  0
 28 60  1  6
 29 61  1  0
M  END
>  <i_m_ct_stereo_status>  (268) 
1

>  <s_m_source_file>  (268) 
/var/tmp/pbs.5076255.sched01/tmp7rmqr72f/92ch8atech.sdf

>  <i_m_source_file_index>  (268) 
11

>  <i_lp_mmshare_version>  (268) 
48012

>  <i_f3d_flags>  (268) 
0

>  <s_epik_input>  (268) 
Tz1DMUMoPVtDSDJdKVtDQEBIXShbQ0BASF0yW09IXSlbQ0gyXVtDQEBIXShbT0hdKVtDQEBIXShbQ0BdMTIzKUMoW0NIM10pKFtDSDNdKVtDQF00KFtPSF0pW0NAQEhdKFtDQEhdM1tPSF0pW0NASF01W0NAQF0oTzUpKFtDSDNdKVtDQEBIXShbQ0gyXTQpW0NIXTZbQ0gyXVtDSDJdNg==

>  <s_epik_cmdline>  (268) 
J2VwaWtfcHl0aG9uJywgJy1waHQnLCAnMi4wJywgJy1waCcsICc3LjAnLCAnLXRuJywgJzgnLCAnLW1hJywgJzIwMCcsICctaW1hZScsICc8aW5maWxlLm1hZT4nLCAnLW9tYWUnLCAnPG91dGZpbGUubWFlPic=

>  <r_lp_tautomer_probability>  (268) 
1

>  <r_epik_Ionization_Penalty>  (268) 
3.01083e-07

>  <r_epik_Ionization_Penalty_Charging>  (268) 
0

>  <r_epik_Ionization_Penalty_Neutral>  (268) 
3.01083e-07

>  <r_epik_State_Penalty>  (268) 
-0

>  <r_epik_Charging_Adjusted_Penalty>  (268) 
0

>  <i_epik_Tot_Q>  (268) 
0

>  <i_epik_Tot_abs_Q>  (268) 
0

>  <s_lp_Force_Field>  (268) 
OPLS3e

>  <r_lp_Energy>  (268) 
62.0602

>  <b_lp_Chiralities_Consistent>  (268) 
1

>  <s_lp_Variant>  (268) 
65:0-1

>  <s_i_glide_gridfile>  (268) 
pfpi4k_grid

>  <i_i_glide_lignum>  (268) 
11

>  <i_i_glide_rotatable_bonds>  (268) 
5

>  <r_i_docking_score>  (268) 
-3.69898

>  <r_i_glide_ligand_efficiency>  (268) 
-0.127551

>  <r_i_glide_ligand_efficiency_sa>  (268) 
-0.391877

>  <r_i_glide_ligand_efficiency_ln>  (268) 
-0.846972

>  <r_i_glide_gscore>  (268) 
-3.69898

>  <r_i_glide_lipo>  (268) 
-0.504748

>  <r_i_glide_hbond>  (268) 
-0.000445499

>  <r_i_glide_metal>  (268) 
-0

>  <r_i_glide_rewards>  (268) 
-1.15116

>  <r_i_glide_evdw>  (268) 
-27.7667

>  <r_i_glide_ecoul>  (268) 
-5.09705

>  <r_i_glide_erotb>  (268) 
0.120059

>  <r_i_glide_esite>  (268) 
-0.00978929

>  <r_i_glide_emodel>  (268) 
-45.806

>  <r_i_glide_energy>  (268) 
-32.8638

>  <r_i_glide_einternal>  (268) 
1.274

>  <r_i_glide_intrahb_reward>  (268) 
-0.5

>  <i_i_glide_confnum>  (268) 
5

>  <i_i_glide_posenum>  (268) 
24

>  <r_i_glide_eff_state_penalty>  (268) 
0

>  <ligand_id>  (268) 
65

>  <original_smiles>  (268) 
C=C1C(=O)C23C(O)C1CC(O)C2C(C)(C)C1(O)CC(C2CC2)C2(C)OC2C1C3O

>  <smiles>  (268) 
[H]OC1([H])C([H])([H])C2([H])C(=C([H])[H])C(=O)C3(C2([H])O[H])C([H])(O[H])C2([H])C4([H])OC4(C([H])([H])[H])C([H])(C4([H])C([H])([H])C4([H])[H])C([H])([H])C2(O[H])C(C([H])([H])[H])(C([H])([H])[H])C13[H]

$$$$
65:0:1
     RDKit          3D

 61 66  0  0  1  0  0  0  0  0999 V2000
    2.9955   -2.5400   -3.3619 C   0  0  0  0  0  0  0  0  0  0  0  0
    3.4875   -2.4055   -2.1218 C   0  0  0  0  0  0  0  0  0  0  0  0
    2.9767   -3.0886   -0.9265 C   0  0  0  0  0  0  0  0  0  0  0  0
    2.0743   -3.9187   -0.8888 O   0  0  0  0  0  0  0  0  0  0  0  0
    3.7107   -2.5819    0.3375 C   0  0  2  0  0  0  0  0  0  0  0  0
    4.0514   -1.1651   -0.2060 C   0  0  1  0  0  0  0  0  0  0  0  0
    4.9939   -0.3985    0.5275 O   0  0  0  0  0  0  0  0  0  0  0  0
    4.5329   -1.4372   -1.6365 C   0  0  1  0  0  0  0  0  0  0  0  0
    5.9110   -2.1327   -1.5802 C   0  0  0  0  0  0  0  0  0  0  0  0
    5.8962   -3.4511   -0.7729 C   0  0  1  0  0  0  0  0  0  0  0  0
    7.2488   -3.7911   -0.5386 O   0  0  0  0  0  0  0  0  0  0  0  0
    5.0561   -3.3730    0.5611 C   0  0  2  0  0  0  0  0  0  0  0  0
    4.9643   -4.7381    1.3735 C   0  0  0  0  0  0  0  0  0  0  0  0
    5.1256   -5.9890    0.4649 C   0  0  0  0  0  0  0  0  0  0  0  0
    6.1897   -4.7407    2.3277 C   0  0  0  0  0  0  0  0  0  0  0  0
    3.6342   -4.8724    2.2266 C   0  0  1  0  0  0  0  0  0  0  0  0
    2.6156   -5.4332    1.4070 O   0  0  0  0  0  0  0  0  0  0  0  0
    3.7778   -5.8505    3.4265 C   0  0  0  0  0  0  0  0  0  0  0  0
    2.4429   -6.2025    4.1103 C   0  0  1  0  0  0  0  0  0  0  0  0
    2.6927   -7.1168    5.3010 C   0  0  0  0  0  0  0  0  0  0  0  0
    2.9650   -8.5835    5.0601 C   0  0  0  0  0  0  0  0  0  0  0  0
    1.6737   -8.1522    5.7102 C   0  0  0  0  0  0  0  0  0  0  0  0
    1.6698   -4.9369    4.4410 C   0  0  1  0  0  0  0  0  0  0  0  0
    0.2425   -5.1823    4.9022 C   0  0  0  0  0  0  0  0  0  0  0  0
    2.3950   -3.9263    5.1206 O   0  0  0  0  0  0  0  0  0  0  0  0
    2.0020   -3.6243    3.7643 C   0  0  1  0  0  0  0  0  0  0  0  0
    3.1489   -3.4937    2.7516 C   0  0  2  0  0  0  0  0  0  0  0  0
    2.7597   -2.5518    1.5914 C   0  0  1  0  0  0  0  0  0  0  0  0
    2.5393   -1.2552    2.1192 O   0  0  0  0  0  0  0  0  0  0  0  0
    3.3740   -1.9514   -4.1843 H   0  0  0  0  0  0  0  0  0  0  0  0
    2.1882   -3.2242   -3.5746 H   0  0  0  0  0  0  0  0  0  0  0  0
    3.1282   -0.5843   -0.2590 H   0  0  0  0  0  0  0  0  0  0  0  0
    5.0666    0.4554    0.1187 H   0  0  0  0  0  0  0  0  0  0  0  0
    4.5502   -0.5238   -2.2363 H   0  0  0  0  0  0  0  0  0  0  0  0
    6.2532   -2.3358   -2.5966 H   0  0  0  0  0  0  0  0  0  0  0  0
    6.6225   -1.4512   -1.1235 H   0  0  0  0  0  0  0  0  0  0  0  0
    5.4783   -4.2159   -1.4322 H   0  0  0  0  0  0  0  0  0  0  0  0
    7.6148   -3.1652    0.0681 H   0  0  0  0  0  0  0  0  0  0  0  0
    5.6209   -2.7008    1.2098 H   0  0  0  0  0  0  0  0  0  0  0  0
    4.9511   -6.9144    1.0098 H   0  0  0  0  0  0  0  0  0  0  0  0
    6.1378   -6.0646    0.0710 H   0  0  0  0  0  0  0  0  0  0  0  0
    4.4367   -5.9808   -0.3807 H   0  0  0  0  0  0  0  0  0  0  0  0
    6.3327   -5.6960    2.8290 H   0  0  0  0  0  0  0  0  0  0  0  0
    6.0698   -3.9765    3.0943 H   0  0  0  0  0  0  0  0  0  0  0  0
    7.1288   -4.5307    1.8176 H   0  0  0  0  0  0  0  0  0  0  0  0
    2.6163   -4.9847    0.5662 H   0  0  0  0  0  0  0  0  0  0  0  0
    4.2514   -6.7800    3.1153 H   0  0  0  0  0  0  0  0  0  0  0  0
    4.4332   -5.4026    4.1790 H   0  0  0  0  0  0  0  0  0  0  0  0
    1.8400   -6.7691    3.3992 H   0  0  0  0  0  0  0  0  0  0  0  0
    3.2732   -6.6574    6.1020 H   0  0  0  0  0  0  0  0  0  0  0  0
    2.9243   -8.9389    4.0308 H   0  0  0  0  0  0  0  0  0  0  0  0
    3.6943   -9.0836    5.6952 H   0  0  0  0  0  0  0  0  0  0  0  0
    1.5590   -8.3602    6.7724 H   0  0  0  0  0  0  0  0  0  0  0  0
    0.7586   -8.2132    5.1222 H   0  0  0  0  0  0  0  0  0  0  0  0
   -0.3124   -5.7115    4.1268 H   0  0  0  0  0  0  0  0  0  0  0  0
   -0.2535   -4.2309    5.0952 H   0  0  0  0  0  0  0  0  0  0  0  0
    0.2178   -5.7705    5.8174 H   0  0  0  0  0  0  0  0  0  0  0  0
    1.2098   -2.8819    3.6946 H   0  0  0  0  0  0  0  0  0  0  0  0
    3.9720   -3.0217    3.2918 H   0  0  0  0  0  0  0  0  0  0  0  0
    1.7685   -2.8605    1.2777 H   0  0  0  0  0  0  0  0  0  0  0  0
    2.1106   -0.7291    1.4534 H   0  0  0  0  0  0  0  0  0  0  0  0
  1  2  2  0
  1 30  1  0
  1 31  1  0
  2  8  1  0
  2  3  1  0
  3  4  2  0
  5  3  1  6
  5 12  1  0
  5 28  1  0
  5  6  1  0
  6  7  1  0
  6  8  1  0
  6 32  1  6
  7 33  1  0
  8  9  1  0
  8 34  1  6
  9 10  1  0
  9 35  1  0
  9 36  1  0
 10 11  1  0
 10 12  1  0
 10 37  1  6
 11 38  1  0
 12 13  1  0
 12 39  1  1
 13 14  1  0
 13 15  1  0
 13 16  1  0
 14 40  1  0
 14 41  1  0
 14 42  1  0
 15 43  1  0
 15 44  1  0
 15 45  1  0
 16 27  1  0
 16 17  1  6
 16 18  1  0
 17 46  1  0
 18 19  1  0
 18 47  1  0
 18 48  1  0
 19 20  1  0
 19 23  1  0
 19 49  1  6
 20 22  1  0
 20 21  1  0
 20 50  1  0
 21 22  1  0
 21 51  1  0
 21 52  1  0
 22 53  1  0
 22 54  1  0
 23 26  1  0
 23 24  1  1
 23 25  1  0
 24 55  1  0
 24 56  1  0
 24 57  1  0
 25 26  1  0
 26 27  1  0
 26 58  1  1
 27 28  1  0
 27 59  1  1
 28 29  1  0
 28 60  1  6
 29 61  1  0
M  END
>  <i_m_ct_stereo_status>  (269) 
1

>  <s_m_source_file>  (269) 
/var/tmp/pbs.5076255.sched01/tmp7rmqr72f/92ch8atech.sdf

>  <i_m_source_file_index>  (269) 
11

>  <i_lp_mmshare_version>  (269) 
48012

>  <i_f3d_flags>  (269) 
0

>  <s_epik_input>  (269) 
Tz1DMUMoPVtDSDJdKVtDQEBIXShbQ0BASF0yW09IXSlbQ0gyXVtDQEBIXShbT0hdKVtDQEBIXShbQ0BdMTIzKUMoW0NIM10pKFtDSDNdKVtDQF00KFtPSF0pW0NAQEhdKFtDQEhdM1tPSF0pW0NASF01W0NAQF0oTzUpKFtDSDNdKVtDQEBIXShbQ0gyXTQpW0NIXTZbQ0gyXVtDSDJdNg==

>  <s_epik_cmdline>  (269) 
J2VwaWtfcHl0aG9uJywgJy1waHQnLCAnMi4wJywgJy1waCcsICc3LjAnLCAnLXRuJywgJzgnLCAnLW1hJywgJzIwMCcsICctaW1hZScsICc8aW5maWxlLm1hZT4nLCAnLW9tYWUnLCAnPG91dGZpbGUubWFlPic=

>  <r_lp_tautomer_probability>  (269) 
1

>  <r_epik_Ionization_Penalty>  (269) 
3.01083e-07

>  <r_epik_Ionization_Penalty_Charging>  (269) 
0

>  <r_epik_Ionization_Penalty_Neutral>  (269) 
3.01083e-07

>  <r_epik_State_Penalty>  (269) 
-0

>  <r_epik_Charging_Adjusted_Penalty>  (269) 
0

>  <i_epik_Tot_Q>  (269) 
0

>  <i_epik_Tot_abs_Q>  (269) 
0

>  <s_lp_Force_Field>  (269) 
OPLS3e

>  <r_lp_Energy>  (269) 
62.0602

>  <b_lp_Chiralities_Consistent>  (269) 
1

>  <s_lp_Variant>  (269) 
65:0-1

>  <s_i_glide_gridfile>  (269) 
pfpi4k_grid

>  <i_i_glide_lignum>  (269) 
11

>  <i_i_glide_rotatable_bonds>  (269) 
5

>  <r_i_docking_score>  (269) 
-3.61964

>  <r_i_glide_ligand_efficiency>  (269) 
-0.124815

>  <r_i_glide_ligand_efficiency_sa>  (269) 
-0.383471

>  <r_i_glide_ligand_efficiency_ln>  (269) 
-0.828805

>  <r_i_glide_gscore>  (269) 
-3.61964

>  <r_i_glide_lipo>  (269) 
-0.48031

>  <r_i_glide_hbond>  (269) 
0

>  <r_i_glide_metal>  (269) 
-0

>  <r_i_glide_rewards>  (269) 
-1.15116

>  <r_i_glide_evdw>  (269) 
-28.066

>  <r_i_glide_ecoul>  (269) 
-4.65812

>  <r_i_glide_erotb>  (269) 
0.120059

>  <r_i_glide_esite>  (269) 
-0.00620881

>  <r_i_glide_emodel>  (269) 
-45.7287

>  <r_i_glide_energy>  (269) 
-32.7241

>  <r_i_glide_einternal>  (269) 
0.848468

>  <r_i_glide_intrahb_reward>  (269) 
-0.5

>  <i_i_glide_confnum>  (269) 
5

>  <i_i_glide_posenum>  (269) 
21

>  <r_i_glide_eff_state_penalty>  (269) 
0

>  <ligand_id>  (269) 
65

>  <original_smiles>  (269) 
C=C1C(=O)C23C(O)C1CC(O)C2C(C)(C)C1(O)CC(C2CC2)C2(C)OC2C1C3O

>  <smiles>  (269) 
[H]OC1([H])C([H])([H])C2([H])C(=C([H])[H])C(=O)C3(C2([H])O[H])C([H])(O[H])C2([H])C4([H])OC4(C([H])([H])[H])C([H])(C4([H])C([H])([H])C4([H])[H])C([H])([H])C2(O[H])C(C([H])([H])[H])(C([H])([H])[H])C13[H]

$$$$
65:0:2
     RDKit          3D

 61 66  0  0  1  0  0  0  0  0999 V2000
    3.3525   -2.1789   -3.0018 C   0  0  0  0  0  0  0  0  0  0  0  0
    3.7624   -2.2149   -1.7261 C   0  0  0  0  0  0  0  0  0  0  0  0
    3.1718   -3.0497   -0.6687 C   0  0  0  0  0  0  0  0  0  0  0  0
    2.2728   -3.8757   -0.7951 O   0  0  0  0  0  0  0  0  0  0  0  0
    3.8253   -2.7087    0.6906 C   0  0  2  0  0  0  0  0  0  0  0  0
    4.1870   -1.2269    0.3660 C   0  0  1  0  0  0  0  0  0  0  0  0
    5.0346   -0.5738    1.2969 O   0  0  0  0  0  0  0  0  0  0  0  0
    4.7683   -1.3159   -1.0497 C   0  0  1  0  0  0  0  0  0  0  0  0
    6.1465   -2.0055   -1.0020 C   0  0  0  0  0  0  0  0  0  0  0  0
    6.0843   -3.4232   -0.3901 C   0  0  1  0  0  0  0  0  0  0  0  0
    7.4285   -3.7676   -0.1210 O   0  0  0  0  0  0  0  0  0  0  0  0
    5.1631   -3.5221    0.8918 C   0  0  2  0  0  0  0  0  0  0  0  0
    5.0361   -4.9793    1.5206 C   0  0  0  0  0  0  0  0  0  0  0  0
    5.2613   -6.1013    0.4712 C   0  0  0  0  0  0  0  0  0  0  0  0
    6.2019   -5.1091    2.5424 C   0  0  0  0  0  0  0  0  0  0  0  0
    3.6554   -5.2234    2.2629 C   0  0  1  0  0  0  0  0  0  0  0  0
    2.6944   -5.6724    1.3143 O   0  0  0  0  0  0  0  0  0  0  0  0
    3.7258   -6.3513    3.3316 C   0  0  0  0  0  0  0  0  0  0  0  0
    2.3512   -6.7850    3.8771 C   0  0  1  0  0  0  0  0  0  0  0  0
    2.5299   -7.8487    4.9525 C   0  0  0  0  0  0  0  0  0  0  0  0
    2.7928   -9.2784    4.5384 C   0  0  0  0  0  0  0  0  0  0  0  0
    1.4783   -8.9088    5.1814 C   0  0  0  0  0  0  0  0  0  0  0  0
    1.5485   -5.5729    4.3177 C   0  0  1  0  0  0  0  0  0  0  0  0
    0.0984   -5.8714    4.6525 C   0  0  0  0  0  0  0  0  0  0  0  0
    2.2249   -4.6596    5.1711 O   0  0  0  0  0  0  0  0  0  0  0  0
    1.9170   -4.1806    3.8409 C   0  0  1  0  0  0  0  0  0  0  0  0
    3.1252   -3.9251    2.9281 C   0  0  2  0  0  0  0  0  0  0  0  0
    2.8003   -2.8403    1.8762 C   0  0  1  0  0  0  0  0  0  0  0  0
    2.5856   -1.6110    2.5507 O   0  0  0  0  0  0  0  0  0  0  0  0
    3.7821   -1.4884   -3.7111 H   0  0  0  0  0  0  0  0  0  0  0  0
    2.5615   -2.8219   -3.3528 H   0  0  0  0  0  0  0  0  0  0  0  0
    3.2762   -0.6220    0.3052 H   0  0  0  0  0  0  0  0  0  0  0  0
    4.5501   -0.5090    2.1102 H   0  0  0  0  0  0  0  0  0  0  0  0
    4.8189   -0.3322   -1.5210 H   0  0  0  0  0  0  0  0  0  0  0  0
    6.5603   -2.0662   -2.0110 H   0  0  0  0  0  0  0  0  0  0  0  0
    6.8295   -1.3941   -0.4093 H   0  0  0  0  0  0  0  0  0  0  0  0
    5.7173   -4.0967   -1.1689 H   0  0  0  0  0  0  0  0  0  0  0  0
    7.9067   -3.7748   -0.9385 H   0  0  0  0  0  0  0  0  0  0  0  0
    5.6933   -2.9434    1.6491 H   0  0  0  0  0  0  0  0  0  0  0  0
    5.0568   -7.0902    0.8770 H   0  0  0  0  0  0  0  0  0  0  0  0
    6.2927   -6.1279    0.1197 H   0  0  0  0  0  0  0  0  0  0  0  0
    4.6233   -5.9808   -0.4053 H   0  0  0  0  0  0  0  0  0  0  0  0
    6.3180   -6.1240    2.9208 H   0  0  0  0  0  0  0  0  0  0  0  0
    6.0402   -4.4558    3.4005 H   0  0  0  0  0  0  0  0  0  0  0  0
    7.1673   -4.8384    2.1135 H   0  0  0  0  0  0  0  0  0  0  0  0
    2.7663   -5.1413    0.5290 H   0  0  0  0  0  0  0  0  0  0  0  0
    4.2221   -7.2334    2.9325 H   0  0  0  0  0  0  0  0  0  0  0  0
    4.3307   -6.0085    4.1755 H   0  0  0  0  0  0  0  0  0  0  0  0
    1.7975   -7.2525    3.0611 H   0  0  0  0  0  0  0  0  0  0  0  0
    3.0773   -7.5060    5.8315 H   0  0  0  0  0  0  0  0  0  0  0  0
    2.7928   -9.4991    3.4711 H   0  0  0  0  0  0  0  0  0  0  0  0
    3.4834   -9.8712    5.1361 H   0  0  0  0  0  0  0  0  0  0  0  0
    1.3118   -9.2474    6.2023 H   0  0  0  0  0  0  0  0  0  0  0  0
    0.5906   -8.8756    4.5508 H   0  0  0  0  0  0  0  0  0  0  0  0
   -0.4071   -6.2925    3.7823 H   0  0  0  0  0  0  0  0  0  0  0  0
   -0.4196   -4.9564    4.9360 H   0  0  0  0  0  0  0  0  0  0  0  0
    0.0158   -6.5733    5.4794 H   0  0  0  0  0  0  0  0  0  0  0  0
    1.1284   -3.4328    3.8213 H   0  0  0  0  0  0  0  0  0  0  0  0
    3.9089   -3.5275    3.5748 H   0  0  0  0  0  0  0  0  0  0  0  0
    1.8169   -3.0926    1.4745 H   0  0  0  0  0  0  0  0  0  0  0  0
    2.1550   -1.0137    1.9506 H   0  0  0  0  0  0  0  0  0  0  0  0
  1  2  2  0
  1 30  1  0
  1 31  1  0
  2  8  1  0
  2  3  1  0
  3  4  2  0
  5  3  1  6
  5 12  1  0
  5 28  1  0
  5  6  1  0
  6  7  1  0
  6  8  1  0
  6 32  1  6
  7 33  1  0
  8  9  1  0
  8 34  1  6
  9 10  1  0
  9 35  1  0
  9 36  1  0
 10 11  1  0
 10 12  1  0
 10 37  1  6
 11 38  1  0
 12 13  1  0
 12 39  1  1
 13 14  1  0
 13 15  1  0
 13 16  1  0
 14 40  1  0
 14 41  1  0
 14 42  1  0
 15 43  1  0
 15 44  1  0
 15 45  1  0
 16 27  1  0
 16 17  1  6
 16 18  1  0
 17 46  1  0
 18 19  1  0
 18 47  1  0
 18 48  1  0
 19 20  1  0
 19 23  1  0
 19 49  1  6
 20 22  1  0
 20 21  1  0
 20 50  1  0
 21 22  1  0
 21 51  1  0
 21 52  1  0
 22 53  1  0
 22 54  1  0
 23 26  1  0
 23 24  1  1
 23 25  1  0
 24 55  1  0
 24 56  1  0
 24 57  1  0
 25 26  1  0
 26 27  1  0
 26 58  1  1
 27 28  1  0
 27 59  1  1
 28 29  1  0
 28 60  1  6
 29 61  1  0
M  END
>  <i_m_ct_stereo_status>  (270) 
1

>  <s_m_source_file>  (270) 
/var/tmp/pbs.5076255.sched01/tmp7rmqr72f/92ch8atech.sdf

>  <i_m_source_file_index>  (270) 
11

>  <i_lp_mmshare_version>  (270) 
48012

>  <i_f3d_flags>  (270) 
0

>  <s_epik_input>  (270) 
Tz1DMUMoPVtDSDJdKVtDQEBIXShbQ0BASF0yW09IXSlbQ0gyXVtDQEBIXShbT0hdKVtDQEBIXShbQ0BdMTIzKUMoW0NIM10pKFtDSDNdKVtDQF00KFtPSF0pW0NAQEhdKFtDQEhdM1tPSF0pW0NASF01W0NAQF0oTzUpKFtDSDNdKVtDQEBIXShbQ0gyXTQpW0NIXTZbQ0gyXVtDSDJdNg==

>  <s_epik_cmdline>  (270) 
J2VwaWtfcHl0aG9uJywgJy1waHQnLCAnMi4wJywgJy1waCcsICc3LjAnLCAnLXRuJywgJzgnLCAnLW1hJywgJzIwMCcsICctaW1hZScsICc8aW5maWxlLm1hZT4nLCAnLW9tYWUnLCAnPG91dGZpbGUubWFlPic=

>  <r_lp_tautomer_probability>  (270) 
1

>  <r_epik_Ionization_Penalty>  (270) 
3.01083e-07

>  <r_epik_Ionization_Penalty_Charging>  (270) 
0

>  <r_epik_Ionization_Penalty_Neutral>  (270) 
3.01083e-07

>  <r_epik_State_Penalty>  (270) 
-0

>  <r_epik_Charging_Adjusted_Penalty>  (270) 
0

>  <i_epik_Tot_Q>  (270) 
0

>  <i_epik_Tot_abs_Q>  (270) 
0

>  <s_lp_Force_Field>  (270) 
OPLS3e

>  <r_lp_Energy>  (270) 
62.0602

>  <b_lp_Chiralities_Consistent>  (270) 
1

>  <s_lp_Variant>  (270) 
65:0-1

>  <s_i_glide_gridfile>  (270) 
pfpi4k_grid

>  <i_i_glide_lignum>  (270) 
11

>  <i_i_glide_rotatable_bonds>  (270) 
5

>  <r_i_docking_score>  (270) 
-3.21005

>  <r_i_glide_ligand_efficiency>  (270) 
-0.110691

>  <r_i_glide_ligand_efficiency_sa>  (270) 
-0.340079

>  <r_i_glide_ligand_efficiency_ln>  (270) 
-0.735019

>  <r_i_glide_gscore>  (270) 
-3.21005

>  <r_i_glide_lipo>  (270) 
-0.343788

>  <r_i_glide_hbond>  (270) 
0

>  <r_i_glide_metal>  (270) 
-0

>  <r_i_glide_rewards>  (270) 
-1.15116

>  <r_i_glide_evdw>  (270) 
-29.8876

>  <r_i_glide_ecoul>  (270) 
-2.22667

>  <r_i_glide_erotb>  (270) 
0.120059

>  <r_i_glide_esite>  (270) 
-0.00677525

>  <r_i_glide_emodel>  (270) 
-43.9395

>  <r_i_glide_energy>  (270) 
-32.1143

>  <r_i_glide_einternal>  (270) 
1.20868

>  <r_i_glide_intrahb_reward>  (270) 
-0.5

>  <i_i_glide_confnum>  (270) 
1

>  <i_i_glide_posenum>  (270) 
14

>  <r_i_glide_eff_state_penalty>  (270) 
0

>  <ligand_id>  (270) 
65

>  <original_smiles>  (270) 
C=C1C(=O)C23C(O)C1CC(O)C2C(C)(C)C1(O)CC(C2CC2)C2(C)OC2C1C3O

>  <smiles>  (270) 
[H]OC1([H])C([H])([H])C2([H])C(=C([H])[H])C(=O)C3(C2([H])O[H])C([H])(O[H])C2([H])C4([H])OC4(C([H])([H])[H])C([H])(C4([H])C([H])([H])C4([H])[H])C([H])([H])C2(O[H])C(C([H])([H])[H])(C([H])([H])[H])C13[H]

$$$$
66:0:0
     RDKit          3D

 55 58  0  0  1  0  0  0  0  0999 V2000
   -1.1445   -7.5371    4.1409 C   0  0  0  0  0  0  0  0  0  0  0  0
   -0.5348   -8.5366    3.1662 C   0  0  0  0  0  0  0  0  0  0  0  0
   -1.5773   -9.3001    2.3626 C   0  0  0  0  0  0  0  0  0  0  0  0
    0.7888   -8.7707    2.9960 C   0  0  0  0  0  0  0  0  0  0  0  0
    1.9708   -8.1193    3.7172 C   0  0  0  0  0  0  0  0  0  0  0  0
    2.9288   -7.3177    2.8006 C   0  0  1  0  0  0  0  0  0  0  0  0
    3.8517   -8.4106    1.7194 S   0  0  0  0  0  0  0  0  0  0  0  0
    5.1297   -7.3433    2.3567 C   0  0  1  0  0  0  0  0  0  0  0  0
    5.4915   -6.2249    1.3869 C   0  0  0  0  0  0  0  0  0  0  0  0
    4.3233   -5.6715    0.5382 C   0  0  0  0  0  0  0  0  0  0  0  0
    3.0873   -5.0854    1.2749 C   0  0  1  0  0  0  0  0  0  0  0  0
    3.5020   -3.9993    2.3247 C   0  0  0  0  0  0  0  0  0  0  0  0
    3.9553   -2.6635    1.7538 C   0  0  1  0  0  0  0  0  0  0  0  0
    3.3782   -2.2320    0.4641 C   0  0  1  0  0  0  0  0  0  0  0  0
    2.4126   -3.1178   -0.1998 C   0  0  0  0  0  0  0  0  0  0  0  0
    2.2575   -4.4179    0.1261 C   0  0  0  0  0  0  0  0  0  0  0  0
    1.2864   -5.2671   -0.6887 C   0  0  0  0  0  0  0  0  0  0  0  0
    3.0668   -1.4209    1.6993 C   0  0  0  0  0  0  0  0  0  0  0  0
    1.6635   -1.4086    2.2619 C   0  0  0  0  0  0  0  0  0  0  0  0
    3.7107   -0.0648    1.8812 C   0  0  0  0  0  0  0  0  0  0  0  0
    2.2366   -6.1631    2.0471 C   0  0  0  0  0  0  0  0  0  0  0  0
    1.0253   -5.9339    2.1103 O   0  0  0  0  0  0  0  0  0  0  0  0
    4.2160   -6.8820    3.4356 N   0  0  0  0  0  0  0  0  0  0  0  0
    4.5813   -7.4742    4.7370 C   0  0  0  0  0  0  0  0  0  0  0  0
   -1.7646   -8.0571    4.8639 H   0  0  0  0  0  0  0  0  0  0  0  0
   -1.7824   -6.8387    3.5981 H   0  0  0  0  0  0  0  0  0  0  0  0
   -0.4065   -6.9508    4.6833 H   0  0  0  0  0  0  0  0  0  0  0  0
   -2.2468   -9.8420    3.0337 H   0  0  0  0  0  0  0  0  0  0  0  0
   -1.1272  -10.0261    1.6887 H   0  0  0  0  0  0  0  0  0  0  0  0
   -2.1841   -8.6155    1.7694 H   0  0  0  0  0  0  0  0  0  0  0  0
    1.0645   -9.5118    2.2628 H   0  0  0  0  0  0  0  0  0  0  0  0
    1.6234   -7.4881    4.5277 H   0  0  0  0  0  0  0  0  0  0  0  0
    2.4843   -8.9413    4.2037 H   0  0  0  0  0  0  0  0  0  0  0  0
    5.9668   -7.8945    2.7900 H   0  0  0  0  0  0  0  0  0  0  0  0
    5.9936   -5.4019    1.9078 H   0  0  0  0  0  0  0  0  0  0  0  0
    6.2367   -6.6022    0.6794 H   0  0  0  0  0  0  0  0  0  0  0  0
    4.7527   -4.8967   -0.1082 H   0  0  0  0  0  0  0  0  0  0  0  0
    4.0036   -6.4400   -0.1738 H   0  0  0  0  0  0  0  0  0  0  0  0
    2.6485   -3.8067    2.9818 H   0  0  0  0  0  0  0  0  0  0  0  0
    4.2737   -4.3493    3.0021 H   0  0  0  0  0  0  0  0  0  0  0  0
    5.0274   -2.4846    1.8818 H   0  0  0  0  0  0  0  0  0  0  0  0
    4.0416   -1.7660   -0.2690 H   0  0  0  0  0  0  0  0  0  0  0  0
    1.8717   -2.7010   -1.0276 H   0  0  0  0  0  0  0  0  0  0  0  0
    1.7623   -6.2069   -0.7943 H   0  0  0  0  0  0  0  0  0  0  0  0
    1.0698   -4.8064   -1.6592 H   0  0  0  0  0  0  0  0  0  0  0  0
    0.3416   -5.4829   -0.2227 H   0  0  0  0  0  0  0  0  0  0  0  0
    1.0641   -0.6323    1.7784 H   0  0  0  0  0  0  0  0  0  0  0  0
    1.6801   -1.2333    3.3391 H   0  0  0  0  0  0  0  0  0  0  0  0
    1.1594   -2.3669    2.0852 H   0  0  0  0  0  0  0  0  0  0  0  0
    3.1317    0.7094    1.3841 H   0  0  0  0  0  0  0  0  0  0  0  0
    4.7166   -0.0607    1.4667 H   0  0  0  0  0  0  0  0  0  0  0  0
    3.7827    0.1814    2.9455 H   0  0  0  0  0  0  0  0  0  0  0  0
    5.5546   -7.0709    5.0586 H   0  0  0  0  0  0  0  0  0  0  0  0
    4.6559   -8.5573    4.7326 H   0  0  0  0  0  0  0  0  0  0  0  0
    3.8551   -7.1643    5.5014 H   0  0  0  0  0  0  0  0  0  0  0  0
  1  2  1  0
  1 25  1  0
  1 26  1  0
  1 27  1  0
  2  3  1  0
  2  4  2  3
  3 28  1  0
  3 29  1  0
  3 30  1  0
  4  5  1  0
  4 31  1  0
  6  5  1  1
  5 32  1  0
  5 33  1  0
  6 21  1  0
  6 23  1  0
  6  7  1  0
  7  8  1  0
  8  9  1  0
  8 23  1  0
  8 34  1  1
  9 10  1  0
  9 35  1  0
  9 36  1  0
 10 11  1  0
 10 37  1  0
 10 38  1  0
 11 16  1  0
 11 12  1  1
 11 21  1  0
 12 13  1  0
 12 39  1  0
 12 40  1  0
 13 18  1  0
 13 14  1  0
 13 41  1  6
 14 15  1  0
 14 18  1  0
 14 42  1  6
 15 16  2  0
 15 43  1  0
 16 17  1  0
 17 44  1  0
 17 45  1  0
 17 46  1  0
 18 19  1  0
 18 20  1  0
 19 47  1  0
 19 48  1  0
 19 49  1  0
 20 50  1  0
 20 51  1  0
 20 52  1  0
 21 22  2  0
 23 24  1  0
 24 53  1  0
 24 54  1  0
 24 55  1  0
M  END
>  <i_m_ct_stereo_status>  (271) 
1

>  <s_m_source_file>  (271) 
/var/tmp/pbs.5076255.sched01/tmp7rmqr72f/92ch8atech.sdf

>  <i_m_source_file_index>  (271) 
12

>  <i_lp_mmshare_version>  (271) 
48012

>  <i_f3d_flags>  (271) 
0

>  <s_epik_input>  (271) 
W0NIM11DKFtDSDNdKT1bQ0hdW0NIMl1bQ0BAXShDMT1PKShOMltDSDNdKVNbQ0BIXTJbQ0gyXVtDSDJdW0NAXTEzW0NIMl1bQ0BIXTRbQ0BIXShDNChbQ0gzXSlbQ0gzXSlbQ0hdPUMzW0NIM10=

>  <s_epik_cmdline>  (271) 
J2VwaWtfcHl0aG9uJywgJy1waHQnLCAnMi4wJywgJy1waCcsICc3LjAnLCAnLXRuJywgJzgnLCAnLW1hJywgJzIwMCcsICctaW1hZScsICc8aW5maWxlLm1hZT4nLCAnLW9tYWUnLCAnPG91dGZpbGUubWFlPic=

>  <r_epik_Ionization_Penalty>  (271) 
0.00207177

>  <r_epik_Ionization_Penalty_Charging>  (271) 
0

>  <r_epik_Ionization_Penalty_Neutral>  (271) 
0.00207177

>  <r_epik_State_Penalty>  (271) 
0.0014186

>  <r_epik_Charging_Adjusted_Penalty>  (271) 
0.0014186

>  <i_epik_Tot_Q>  (271) 
0

>  <i_epik_Tot_abs_Q>  (271) 
0

>  <s_epik_Chemistry_Notes>  (271) 
This compound contains an acetal/aminal-like group ( X-CH(R)-Y where X, Y are N, S, or O) that may be acid/base labile, releasing an aldehyde.

>  <s_lp_Force_Field>  (271) 
OPLS3e

>  <r_lp_Energy>  (271) 
49.1022

>  <b_lp_Chiralities_Consistent>  (271) 
1

>  <s_lp_Variant>  (271) 
66:0-1

>  <s_i_glide_gridfile>  (271) 
pfpi4k_grid

>  <i_i_glide_lignum>  (271) 
12

>  <i_i_glide_rotatable_bonds>  (271) 
2

>  <r_i_docking_score>  (271) 
-2.56033

>  <r_i_glide_ligand_efficiency>  (271) 
-0.10668

>  <r_i_glide_ligand_efficiency_sa>  (271) 
-0.307719

>  <r_i_glide_ligand_efficiency_ln>  (271) 
-0.612804

>  <r_i_glide_gscore>  (271) 
-2.56033

>  <r_i_glide_lipo>  (271) 
-0.508726

>  <r_i_glide_hbond>  (271) 
-0.0718888

>  <r_i_glide_metal>  (271) 
-0

>  <r_i_glide_rewards>  (271) 
-1.05312

>  <r_i_glide_evdw>  (271) 
-20.1036

>  <r_i_glide_ecoul>  (271) 
-1.49819

>  <r_i_glide_erotb>  (271) 
0.318276

>  <r_i_glide_esite>  (271) 
-0.0149613

>  <r_i_glide_emodel>  (271) 
-25.1836

>  <r_i_glide_energy>  (271) 
-21.6018

>  <r_i_glide_einternal>  (271) 
0.0309053

>  <r_i_glide_intrahb_reward>  (271) 
-0

>  <i_i_glide_confnum>  (271) 
5

>  <i_i_glide_posenum>  (271) 
9

>  <r_i_glide_eff_state_penalty>  (271) 
0

>  <ligand_id>  (271) 
66

>  <original_smiles>  (271) 
CC(C)=CCC12SC(CCC3(CC4C(C=C3C)C4(C)C)C1=O)N2C

>  <smiles>  (271) 
[H]C(=C(C([H])([H])[H])C([H])([H])[H])C([H])([H])C12SC([H])(N1C([H])([H])[H])C([H])([H])C([H])([H])C1(C2=O)C(C([H])([H])[H])=C([H])C2([H])C([H])(C1([H])[H])C2(C([H])([H])[H])C([H])([H])[H]

$$$$
66:0:1
     RDKit          3D

 55 58  0  0  1  0  0  0  0  0999 V2000
    4.4721    0.1784    1.1142 C   0  0  0  0  0  0  0  0  0  0  0  0
    3.9746   -0.3418    2.4515 C   0  0  0  0  0  0  0  0  0  0  0  0
    4.4984    0.4301    3.6610 C   0  0  0  0  0  0  0  0  0  0  0  0
    3.1491   -1.4005    2.6063 C   0  0  0  0  0  0  0  0  0  0  0  0
    2.5426   -2.2566    1.4904 C   0  0  0  0  0  0  0  0  0  0  0  0
    3.1065   -3.6961    1.3978 C   0  0  1  0  0  0  0  0  0  0  0  0
    4.8680   -3.6605    1.0219 S   0  0  0  0  0  0  0  0  0  0  0  0
    4.2449   -4.8756   -0.1270 C   0  0  1  0  0  0  0  0  0  0  0  0
    4.4659   -6.3039    0.3585 C   0  0  0  0  0  0  0  0  0  0  0  0
    4.3467   -6.5287    1.8784 C   0  0  0  0  0  0  0  0  0  0  0  0
    3.0177   -6.1366    2.5840 C   0  0  1  0  0  0  0  0  0  0  0  0
    1.7739   -6.8020    1.8827 C   0  0  0  0  0  0  0  0  0  0  0  0
    1.6172   -8.2906    2.1039 C   0  0  1  0  0  0  0  0  0  0  0  0
    2.0961   -8.8590    3.3850 C   0  0  1  0  0  0  0  0  0  0  0  0
    2.7276   -7.9569    4.3486 C   0  0  0  0  0  0  0  0  0  0  0  0
    3.1828   -6.7178    4.0234 C   0  0  0  0  0  0  0  0  0  0  0  0
    3.9224   -5.9012    5.0793 C   0  0  0  0  0  0  0  0  0  0  0  0
    0.6178   -8.8969    3.0910 C   0  0  0  0  0  0  0  0  0  0  0  0
   -0.3204   -8.0397    3.9214 C   0  0  0  0  0  0  0  0  0  0  0  0
   -0.0479  -10.2026    2.7451 C   0  0  0  0  0  0  0  0  0  0  0  0
    2.7458   -4.5802    2.6072 C   0  0  0  0  0  0  0  0  0  0  0  0
    2.1107   -4.1524    3.5729 O   0  0  0  0  0  0  0  0  0  0  0  0
    2.8534   -4.3990    0.0984 N   0  0  0  0  0  0  0  0  0  0  0  0
    2.3720   -3.6079   -1.0497 C   0  0  0  0  0  0  0  0  0  0  0  0
    5.5605    0.1253    1.0733 H   0  0  0  0  0  0  0  0  0  0  0  0
    4.1785    1.2198    0.9900 H   0  0  0  0  0  0  0  0  0  0  0  0
    4.0875   -0.3366    0.2386 H   0  0  0  0  0  0  0  0  0  0  0  0
    5.5889    0.4079    3.6762 H   0  0  0  0  0  0  0  0  0  0  0  0
    4.1386    0.0176    4.6028 H   0  0  0  0  0  0  0  0  0  0  0  0
    4.1860    1.4758    3.6262 H   0  0  0  0  0  0  0  0  0  0  0  0
    2.8709   -1.6843    3.6025 H   0  0  0  0  0  0  0  0  0  0  0  0
    1.4686   -2.2789    1.7017 H   0  0  0  0  0  0  0  0  0  0  0  0
    2.6022   -1.7235    0.5647 H   0  0  0  0  0  0  0  0  0  0  0  0
    4.5449   -4.6707   -1.1509 H   0  0  0  0  0  0  0  0  0  0  0  0
    3.8231   -6.9989   -0.1719 H   0  0  0  0  0  0  0  0  0  0  0  0
    5.4777   -6.6108    0.0805 H   0  0  0  0  0  0  0  0  0  0  0  0
    4.5298   -7.5916    2.0495 H   0  0  0  0  0  0  0  0  0  0  0  0
    5.1817   -6.0367    2.3851 H   0  0  0  0  0  0  0  0  0  0  0  0
    0.8693   -6.3094    2.2465 H   0  0  0  0  0  0  0  0  0  0  0  0
    1.7631   -6.6223    0.8152 H   0  0  0  0  0  0  0  0  0  0  0  0
    1.8239   -8.8893    1.2062 H   0  0  0  0  0  0  0  0  0  0  0  0
    2.6225   -9.8267    3.3417 H   0  0  0  0  0  0  0  0  0  0  0  0
    2.8774   -8.3459    5.3433 H   0  0  0  0  0  0  0  0  0  0  0  0
    4.8069   -5.4159    4.6578 H   0  0  0  0  0  0  0  0  0  0  0  0
    4.2560   -6.5455    5.8998 H   0  0  0  0  0  0  0  0  0  0  0  0
    3.2734   -5.1425    5.5168 H   0  0  0  0  0  0  0  0  0  0  0  0
   -0.6377   -8.5859    4.8136 H   0  0  0  0  0  0  0  0  0  0  0  0
   -1.2029   -7.7712    3.3397 H   0  0  0  0  0  0  0  0  0  0  0  0
    0.1747   -7.1188    4.2536 H   0  0  0  0  0  0  0  0  0  0  0  0
   -0.3121  -10.7396    3.6533 H   0  0  0  0  0  0  0  0  0  0  0  0
    0.6243  -10.8376    2.1631 H   0  0  0  0  0  0  0  0  0  0  0  0
   -0.9451  -10.0396    2.1487 H   0  0  0  0  0  0  0  0  0  0  0  0
    2.2347   -4.2539   -1.9215 H   0  0  0  0  0  0  0  0  0  0  0  0
    3.0312   -2.7866   -1.3245 H   0  0  0  0  0  0  0  0  0  0  0  0
    1.3909   -3.2015   -0.8177 H   0  0  0  0  0  0  0  0  0  0  0  0
  1  2  1  0
  1 25  1  0
  1 26  1  0
  1 27  1  0
  2  3  1  0
  2  4  2  3
  3 28  1  0
  3 29  1  0
  3 30  1  0
  4  5  1  0
  4 31  1  0
  6  5  1  6
  5 32  1  0
  5 33  1  0
  6 21  1  0
  6 23  1  0
  6  7  1  0
  7  8  1  0
  8  9  1  0
  8 23  1  0
  8 34  1  6
  9 10  1  0
  9 35  1  0
  9 36  1  0
 10 11  1  0
 10 37  1  0
 10 38  1  0
 11 16  1  0
 11 12  1  6
 11 21  1  0
 12 13  1  0
 12 39  1  0
 12 40  1  0
 13 18  1  0
 13 14  1  0
 13 41  1  6
 14 15  1  0
 14 18  1  0
 14 42  1  6
 15 16  2  0
 15 43  1  0
 16 17  1  0
 17 44  1  0
 17 45  1  0
 17 46  1  0
 18 19  1  0
 18 20  1  0
 19 47  1  0
 19 48  1  0
 19 49  1  0
 20 50  1  0
 20 51  1  0
 20 52  1  0
 21 22  2  0
 23 24  1  0
 24 53  1  0
 24 54  1  0
 24 55  1  0
M  END
>  <i_m_ct_stereo_status>  (272) 
1

>  <s_m_source_file>  (272) 
/var/tmp/pbs.5076255.sched01/tmp7rmqr72f/92ch8atech.sdf

>  <i_m_source_file_index>  (272) 
12

>  <i_lp_mmshare_version>  (272) 
48012

>  <i_f3d_flags>  (272) 
0

>  <s_epik_input>  (272) 
W0NIM11DKFtDSDNdKT1bQ0hdW0NIMl1bQ0BAXShDMT1PKShOMltDSDNdKVNbQ0BIXTJbQ0gyXVtDSDJdW0NAXTEzW0NIMl1bQ0BIXTRbQ0BIXShDNChbQ0gzXSlbQ0gzXSlbQ0hdPUMzW0NIM10=

>  <s_epik_cmdline>  (272) 
J2VwaWtfcHl0aG9uJywgJy1waHQnLCAnMi4wJywgJy1waCcsICc3LjAnLCAnLXRuJywgJzgnLCAnLW1hJywgJzIwMCcsICctaW1hZScsICc8aW5maWxlLm1hZT4nLCAnLW9tYWUnLCAnPG91dGZpbGUubWFlPic=

>  <r_epik_Ionization_Penalty>  (272) 
0.00207177

>  <r_epik_Ionization_Penalty_Charging>  (272) 
0

>  <r_epik_Ionization_Penalty_Neutral>  (272) 
0.00207177

>  <r_epik_State_Penalty>  (272) 
0.0014186

>  <r_epik_Charging_Adjusted_Penalty>  (272) 
0.0014186

>  <i_epik_Tot_Q>  (272) 
0

>  <i_epik_Tot_abs_Q>  (272) 
0

>  <s_epik_Chemistry_Notes>  (272) 
This compound contains an acetal/aminal-like group ( X-CH(R)-Y where X, Y are N, S, or O) that may be acid/base labile, releasing an aldehyde.

>  <s_lp_Force_Field>  (272) 
OPLS3e

>  <r_lp_Energy>  (272) 
49.1022

>  <b_lp_Chiralities_Consistent>  (272) 
1

>  <s_lp_Variant>  (272) 
66:0-1

>  <s_i_glide_gridfile>  (272) 
pfpi4k_grid

>  <i_i_glide_lignum>  (272) 
12

>  <i_i_glide_rotatable_bonds>  (272) 
2

>  <r_i_docking_score>  (272) 
-2.27577

>  <r_i_glide_ligand_efficiency>  (272) 
-0.0948238

>  <r_i_glide_ligand_efficiency_sa>  (272) 
-0.273519

>  <r_i_glide_ligand_efficiency_ln>  (272) 
-0.544696

>  <r_i_glide_gscore>  (272) 
-2.27577

>  <r_i_glide_lipo>  (272) 
-0.376218

>  <r_i_glide_hbond>  (272) 
0

>  <r_i_glide_metal>  (272) 
-0

>  <r_i_glide_rewards>  (272) 
-1.05312

>  <r_i_glide_evdw>  (272) 
-19.0235

>  <r_i_glide_ecoul>  (272) 
-1.39976

>  <r_i_glide_erotb>  (272) 
0.318276

>  <r_i_glide_esite>  (272) 
-0.00357413

>  <r_i_glide_emodel>  (272) 
-23.1107

>  <r_i_glide_energy>  (272) 
-20.4232

>  <r_i_glide_einternal>  (272) 
1.00238

>  <r_i_glide_intrahb_reward>  (272) 
-0

>  <i_i_glide_confnum>  (272) 
3

>  <i_i_glide_posenum>  (272) 
35

>  <r_i_glide_eff_state_penalty>  (272) 
0

>  <ligand_id>  (272) 
66

>  <original_smiles>  (272) 
CC(C)=CCC12SC(CCC3(CC4C(C=C3C)C4(C)C)C1=O)N2C

>  <smiles>  (272) 
[H]C(=C(C([H])([H])[H])C([H])([H])[H])C([H])([H])C12SC([H])(N1C([H])([H])[H])C([H])([H])C([H])([H])C1(C2=O)C(C([H])([H])[H])=C([H])C2([H])C([H])(C1([H])[H])C2(C([H])([H])[H])C([H])([H])[H]

$$$$
66:0:2
     RDKit          3D

 55 58  0  0  1  0  0  0  0  0999 V2000
   -0.9938   -7.8570    2.2901 C   0  0  0  0  0  0  0  0  0  0  0  0
    0.1854   -8.1227    3.2124 C   0  0  0  0  0  0  0  0  0  0  0  0
    0.5457   -9.5969    3.3028 C   0  0  0  0  0  0  0  0  0  0  0  0
    0.8760   -7.1903    3.9122 C   0  0  0  0  0  0  0  0  0  0  0  0
    0.6527   -5.6840    3.9611 C   0  0  0  0  0  0  0  0  0  0  0  0
    1.8889   -4.8083    3.6001 C   0  0  1  0  0  0  0  0  0  0  0  0
    3.1316   -4.9216    4.9024 S   0  0  0  0  0  0  0  0  0  0  0  0
    3.0382   -3.1616    4.5841 C   0  0  1  0  0  0  0  0  0  0  0  0
    4.1641   -2.6651    3.6808 C   0  0  0  0  0  0  0  0  0  0  0  0
    4.6041   -3.6490    2.5723 C   0  0  0  0  0  0  0  0  0  0  0  0
    3.5393   -4.1417    1.5603 C   0  0  1  0  0  0  0  0  0  0  0  0
    2.7718   -2.9506    0.8843 C   0  0  0  0  0  0  0  0  0  0  0  0
    3.5611   -2.1349   -0.1281 C   0  0  1  0  0  0  0  0  0  0  0  0
    4.6083   -2.8463   -0.9216 C   0  0  1  0  0  0  0  0  0  0  0  0
    4.8121   -4.2886   -0.6357 C   0  0  0  0  0  0  0  0  0  0  0  0
    4.3809   -4.8954    0.4766 C   0  0  0  0  0  0  0  0  0  0  0  0
    4.7562   -6.3575    0.7197 C   0  0  0  0  0  0  0  0  0  0  0  0
    3.4034   -2.3119   -1.6426 C   0  0  0  0  0  0  0  0  0  0  0  0
    2.4008   -3.2700   -2.2496 C   0  0  0  0  0  0  0  0  0  0  0  0
    3.5508   -1.0801   -2.5254 C   0  0  0  0  0  0  0  0  0  0  0  0
    2.4353   -5.0793    2.1809 C   0  0  0  0  0  0  0  0  0  0  0  0
    1.9269   -5.9021    1.4261 O   0  0  0  0  0  0  0  0  0  0  0  0
    1.7513   -3.3430    3.8779 N   0  0  0  0  0  0  0  0  0  0  0  0
    0.6153   -2.8796    4.6809 C   0  0  0  0  0  0  0  0  0  0  0  0
   -1.8842   -8.3680    2.6614 H   0  0  0  0  0  0  0  0  0  0  0  0
   -0.7849   -8.2539    1.2950 H   0  0  0  0  0  0  0  0  0  0  0  0
   -1.2413   -6.8076    2.1675 H   0  0  0  0  0  0  0  0  0  0  0  0
   -0.3017  -10.1785    3.6719 H   0  0  0  0  0  0  0  0  0  0  0  0
    1.3858   -9.7695    3.9766 H   0  0  0  0  0  0  0  0  0  0  0  0
    0.8151   -9.9871    2.3196 H   0  0  0  0  0  0  0  0  0  0  0  0
    1.6908   -7.5389    4.5310 H   0  0  0  0  0  0  0  0  0  0  0  0
   -0.1694   -5.4368    3.3099 H   0  0  0  0  0  0  0  0  0  0  0  0
    0.2988   -5.4705    4.9695 H   0  0  0  0  0  0  0  0  0  0  0  0
    2.8845   -2.5837    5.5033 H   0  0  0  0  0  0  0  0  0  0  0  0
    3.9050   -1.7029    3.2378 H   0  0  0  0  0  0  0  0  0  0  0  0
    5.0485   -2.4773    4.2871 H   0  0  0  0  0  0  0  0  0  0  0  0
    5.4035   -3.1495    2.0201 H   0  0  0  0  0  0  0  0  0  0  0  0
    5.1012   -4.5093    3.0261 H   0  0  0  0  0  0  0  0  0  0  0  0
    1.8949   -3.3345    0.3760 H   0  0  0  0  0  0  0  0  0  0  0  0
    2.3680   -2.2519    1.6176 H   0  0  0  0  0  0  0  0  0  0  0  0
    3.8111   -1.1380    0.2117 H   0  0  0  0  0  0  0  0  0  0  0  0
    5.5480   -2.3398   -1.0794 H   0  0  0  0  0  0  0  0  0  0  0  0
    5.3981   -4.8231   -1.3698 H   0  0  0  0  0  0  0  0  0  0  0  0
    5.0497   -6.5309    1.7578 H   0  0  0  0  0  0  0  0  0  0  0  0
    5.5989   -6.6369    0.0849 H   0  0  0  0  0  0  0  0  0  0  0  0
    3.9334   -7.0288    0.4653 H   0  0  0  0  0  0  0  0  0  0  0  0
    2.7017   -3.5547   -3.2593 H   0  0  0  0  0  0  0  0  0  0  0  0
    1.4130   -2.8137   -2.2955 H   0  0  0  0  0  0  0  0  0  0  0  0
    2.3256   -4.1828   -1.6490 H   0  0  0  0  0  0  0  0  0  0  0  0
    3.8759   -1.3586   -3.5258 H   0  0  0  0  0  0  0  0  0  0  0  0
    4.2774   -0.3902   -2.1009 H   0  0  0  0  0  0  0  0  0  0  0  0
    2.5987   -0.5594   -2.6043 H   0  0  0  0  0  0  0  0  0  0  0  0
    0.6785   -1.7948    4.8155 H   0  0  0  0  0  0  0  0  0  0  0  0
    0.5668   -3.3355    5.6765 H   0  0  0  0  0  0  0  0  0  0  0  0
   -0.3192   -3.0712    4.1515 H   0  0  0  0  0  0  0  0  0  0  0  0
  1  2  1  0
  1 25  1  0
  1 26  1  0
  1 27  1  0
  2  3  1  0
  2  4  2  3
  3 28  1  0
  3 29  1  0
  3 30  1  0
  4  5  1  0
  4 31  1  0
  6  5  1  1
  5 32  1  0
  5 33  1  0
  6 21  1  0
  6 23  1  0
  6  7  1  0
  7  8  1  0
  8  9  1  0
  8 23  1  0
  8 34  1  1
  9 10  1  0
  9 35  1  0
  9 36  1  0
 10 11  1  0
 10 37  1  0
 10 38  1  0
 11 16  1  0
 11 12  1  6
 11 21  1  0
 12 13  1  0
 12 39  1  0
 12 40  1  0
 13 18  1  0
 13 14  1  0
 13 41  1  6
 14 15  1  0
 14 18  1  0
 14 42  1  6
 15 16  2  0
 15 43  1  0
 16 17  1  0
 17 44  1  0
 17 45  1  0
 17 46  1  0
 18 19  1  0
 18 20  1  0
 19 47  1  0
 19 48  1  0
 19 49  1  0
 20 50  1  0
 20 51  1  0
 20 52  1  0
 21 22  2  0
 23 24  1  0
 24 53  1  0
 24 54  1  0
 24 55  1  0
M  END
>  <i_m_ct_stereo_status>  (273) 
1

>  <s_m_source_file>  (273) 
/var/tmp/pbs.5076255.sched01/tmp7rmqr72f/92ch8atech.sdf

>  <i_m_source_file_index>  (273) 
12

>  <i_lp_mmshare_version>  (273) 
48012

>  <i_f3d_flags>  (273) 
0

>  <s_epik_input>  (273) 
W0NIM11DKFtDSDNdKT1bQ0hdW0NIMl1bQ0BAXShDMT1PKShOMltDSDNdKVNbQ0BIXTJbQ0gyXVtDSDJdW0NAXTEzW0NIMl1bQ0BIXTRbQ0BIXShDNChbQ0gzXSlbQ0gzXSlbQ0hdPUMzW0NIM10=

>  <s_epik_cmdline>  (273) 
J2VwaWtfcHl0aG9uJywgJy1waHQnLCAnMi4wJywgJy1waCcsICc3LjAnLCAnLXRuJywgJzgnLCAnLW1hJywgJzIwMCcsICctaW1hZScsICc8aW5maWxlLm1hZT4nLCAnLW9tYWUnLCAnPG91dGZpbGUubWFlPic=

>  <r_epik_Ionization_Penalty>  (273) 
0.00207177

>  <r_epik_Ionization_Penalty_Charging>  (273) 
0

>  <r_epik_Ionization_Penalty_Neutral>  (273) 
0.00207177

>  <r_epik_State_Penalty>  (273) 
0.0014186

>  <r_epik_Charging_Adjusted_Penalty>  (273) 
0.0014186

>  <i_epik_Tot_Q>  (273) 
0

>  <i_epik_Tot_abs_Q>  (273) 
0

>  <s_epik_Chemistry_Notes>  (273) 
This compound contains an acetal/aminal-like group ( X-CH(R)-Y where X, Y are N, S, or O) that may be acid/base labile, releasing an aldehyde.

>  <s_lp_Force_Field>  (273) 
OPLS3e

>  <r_lp_Energy>  (273) 
49.1022

>  <b_lp_Chiralities_Consistent>  (273) 
1

>  <s_lp_Variant>  (273) 
66:0-1

>  <s_i_glide_gridfile>  (273) 
pfpi4k_grid

>  <i_i_glide_lignum>  (273) 
12

>  <i_i_glide_rotatable_bonds>  (273) 
2

>  <r_i_docking_score>  (273) 
-2.26076

>  <r_i_glide_ligand_efficiency>  (273) 
-0.0941982

>  <r_i_glide_ligand_efficiency_sa>  (273) 
-0.271715

>  <r_i_glide_ligand_efficiency_ln>  (273) 
-0.541103

>  <r_i_glide_gscore>  (273) 
-2.26076

>  <r_i_glide_lipo>  (273) 
-0.384997

>  <r_i_glide_hbond>  (273) 
0

>  <r_i_glide_metal>  (273) 
-0

>  <r_i_glide_rewards>  (273) 
-1.05312

>  <r_i_glide_evdw>  (273) 
-21.2919

>  <r_i_glide_ecoul>  (273) 
-0.419459

>  <r_i_glide_erotb>  (273) 
0.318276

>  <r_i_glide_esite>  (273) 
-0.0134053

>  <r_i_glide_emodel>  (273) 
-24.8886

>  <r_i_glide_energy>  (273) 
-21.7114

>  <r_i_glide_einternal>  (273) 
0.03272

>  <r_i_glide_intrahb_reward>  (273) 
-0

>  <i_i_glide_confnum>  (273) 
3

>  <i_i_glide_posenum>  (273) 
5

>  <r_i_glide_eff_state_penalty>  (273) 
0

>  <ligand_id>  (273) 
66

>  <original_smiles>  (273) 
CC(C)=CCC12SC(CCC3(CC4C(C=C3C)C4(C)C)C1=O)N2C

>  <smiles>  (273) 
[H]C(=C(C([H])([H])[H])C([H])([H])[H])C([H])([H])C12SC([H])(N1C([H])([H])[H])C([H])([H])C([H])([H])C1(C2=O)C(C([H])([H])[H])=C([H])C2([H])C([H])(C1([H])[H])C2(C([H])([H])[H])C([H])([H])[H]

$$$$
67:0:0
     RDKit          3D

 76 81  0  0  1  0  0  0  0  0999 V2000
    5.1661    2.3768    6.0802 C   0  0  0  0  0  0  0  0  0  0  0  0
    4.4526    1.2624    5.5517 O   0  0  0  0  0  0  0  0  0  0  0  0
    3.1475    1.5391    5.0362 C   0  0  2  0  0  0  0  0  0  0  0  0
    2.3019    2.2612    6.1209 C   0  0  0  0  0  0  0  0  0  0  0  0
    0.7890    2.3954    5.8251 C   0  0  1  0  0  0  0  0  0  0  0  0
    0.3921    3.6490    4.9316 C   0  0  0  0  0  0  0  0  0  0  0  0
    0.4732    4.9246    5.8165 C   0  0  0  0  0  0  0  0  0  0  0  0
    1.2997    3.8952    3.7036 C   0  0  0  0  0  0  0  0  0  0  0  0
   -1.0581    3.5442    4.3935 C   0  0  0  0  0  0  0  0  0  0  0  0
   -1.7659    4.5338    4.2190 O   0  0  0  0  0  0  0  0  0  0  0  0
   -1.5787    2.1579    4.0327 C   0  0  0  0  0  0  0  0  0  0  0  0
   -1.3244    1.1899    5.1856 C   0  0  0  0  0  0  0  0  0  0  0  0
    0.1804    0.9938    5.4898 C   0  0  2  0  0  0  0  0  0  0  0  0
    0.2295    0.0880    6.7564 C   0  0  0  0  0  0  0  0  0  0  0  0
    0.9698    0.3359    4.3032 C   0  0  2  0  0  0  0  0  0  0  0  0
    0.2859   -0.9584    3.7717 C   0  0  0  0  0  0  0  0  0  0  0  0
    1.0942   -1.7778    2.7393 C   0  0  0  0  0  0  0  0  0  0  0  0
    2.5572   -1.9610    3.1852 C   0  0  1  0  0  0  0  0  0  0  0  0
    2.5178   -2.8325    4.4871 C   0  0  0  0  0  0  0  0  0  0  0  0
    3.5285   -2.7279    2.2385 C   0  0  2  0  0  0  0  0  0  0  0  0
    4.9035   -2.2661    2.7429 C   0  0  1  0  0  0  0  0  0  0  0  0
    6.0052   -2.3163    1.8304 O   0  0  0  0  0  0  0  0  0  0  0  0
    5.9509   -2.4124    0.4709 C   0  0  0  0  0  0  0  0  0  0  0  0
    6.9998   -2.4329   -0.1777 O   0  0  0  0  0  0  0  0  0  0  0  0
    4.5787   -2.4657   -0.1860 C   0  0  1  0  0  0  0  0  0  0  0  0
    4.5506   -1.4073   -1.2904 C   0  0  0  0  0  0  0  0  0  0  0  0
    4.1497   -3.8721   -0.6152 C   0  0  0  0  0  0  0  0  0  0  0  0
    2.9399   -3.8101    0.1722 O   0  0  0  0  0  0  0  0  0  0  0  0
    3.3518   -2.5404    0.7327 C   0  0  1  0  0  0  0  0  0  0  0  0
    4.6998   -0.9547    3.5539 C   0  0  1  0  0  0  0  0  0  0  0  0
    5.6193    0.0574    3.2115 O   0  0  0  0  0  0  0  0  0  0  0  0
    3.2126   -0.5439    3.3680 C   0  0  1  0  0  0  0  0  0  0  0  0
    3.1163    0.3595    2.0929 C   0  0  0  0  0  0  0  0  0  0  0  0
    2.5117    0.1859    4.5817 C   0  0  1  0  0  0  0  0  0  0  0  0
    6.1990    2.0923    6.2798 H   0  0  0  0  0  0  0  0  0  0  0  0
    4.7470    2.7218    7.0269 H   0  0  0  0  0  0  0  0  0  0  0  0
    5.1647    3.2161    5.3831 H   0  0  0  0  0  0  0  0  0  0  0  0
    3.2649    2.2013    4.1839 H   0  0  0  0  0  0  0  0  0  0  0  0
    2.4329    1.7207    7.0587 H   0  0  0  0  0  0  0  0  0  0  0  0
    2.7043    3.2535    6.3059 H   0  0  0  0  0  0  0  0  0  0  0  0
    0.3632    2.6401    6.8001 H   0  0  0  0  0  0  0  0  0  0  0  0
    1.4762    5.0962    6.2083 H   0  0  0  0  0  0  0  0  0  0  0  0
   -0.2014    4.8629    6.6717 H   0  0  0  0  0  0  0  0  0  0  0  0
    0.2070    5.8223    5.2601 H   0  0  0  0  0  0  0  0  0  0  0  0
    2.3099    4.1852    3.9941 H   0  0  0  0  0  0  0  0  0  0  0  0
    0.9188    4.7150    3.0931 H   0  0  0  0  0  0  0  0  0  0  0  0
    1.3677    3.0343    3.0417 H   0  0  0  0  0  0  0  0  0  0  0  0
   -2.6475    2.2261    3.8297 H   0  0  0  0  0  0  0  0  0  0  0  0
   -1.1014    1.8230    3.1133 H   0  0  0  0  0  0  0  0  0  0  0  0
   -1.8152    1.5873    6.0747 H   0  0  0  0  0  0  0  0  0  0  0  0
   -1.8259    0.2416    4.9945 H   0  0  0  0  0  0  0  0  0  0  0  0
   -0.2986   -0.8539    6.6095 H   0  0  0  0  0  0  0  0  0  0  0  0
   -0.2449    0.5753    7.6103 H   0  0  0  0  0  0  0  0  0  0  0  0
    1.2399   -0.1668    7.0746 H   0  0  0  0  0  0  0  0  0  0  0  0
    0.8849    1.0238    3.4719 H   0  0  0  0  0  0  0  0  0  0  0  0
    0.0025   -1.6172    4.5897 H   0  0  0  0  0  0  0  0  0  0  0  0
   -0.6505   -0.6700    3.2945 H   0  0  0  0  0  0  0  0  0  0  0  0
    0.6251   -2.7510    2.6193 H   0  0  0  0  0  0  0  0  0  0  0  0
    1.0097   -1.3020    1.7649 H   0  0  0  0  0  0  0  0  0  0  0  0
    3.4988   -2.9630    4.9448 H   0  0  0  0  0  0  0  0  0  0  0  0
    2.1448   -3.8359    4.2654 H   0  0  0  0  0  0  0  0  0  0  0  0
    1.8718   -2.4455    5.2739 H   0  0  0  0  0  0  0  0  0  0  0  0
    3.4612   -3.7965    2.4355 H   0  0  0  0  0  0  0  0  0  0  0  0
    5.1927   -3.0028    3.4930 H   0  0  0  0  0  0  0  0  0  0  0  0
    3.5839   -1.3945   -1.7927 H   0  0  0  0  0  0  0  0  0  0  0  0
    5.3029   -1.5977   -2.0552 H   0  0  0  0  0  0  0  0  0  0  0  0
    4.7270   -0.4065   -0.8987 H   0  0  0  0  0  0  0  0  0  0  0  0
    3.9352   -3.9456   -1.6834 H   0  0  0  0  0  0  0  0  0  0  0  0
    4.8040   -4.6859   -0.2900 H   0  0  0  0  0  0  0  0  0  0  0  0
    2.6493   -1.7556    0.4516 H   0  0  0  0  0  0  0  0  0  0  0  0
    4.8804   -1.1775    4.6062 H   0  0  0  0  0  0  0  0  0  0  0  0
    5.4224    0.8001    3.7647 H   0  0  0  0  0  0  0  0  0  0  0  0
    3.5187    1.3497    2.2655 H   0  0  0  0  0  0  0  0  0  0  0  0
    2.1087    0.5215    1.7205 H   0  0  0  0  0  0  0  0  0  0  0  0
    3.7065   -0.0208    1.2661 H   0  0  0  0  0  0  0  0  0  0  0  0
    2.6371   -0.4514    5.4525 H   0  0  0  0  0  0  0  0  0  0  0  0
  1  2  1  0
  1 35  1  0
  1 36  1  0
  1 37  1  0
  2  3  1  0
  3 34  1  0
  3  4  1  0
  3 38  1  6
  4  5  1  0
  4 39  1  0
  4 40  1  0
  5 13  1  0
  5  6  1  0
  5 41  1  1
  6  7  1  0
  6  8  1  0
  6  9  1  0
  7 42  1  0
  7 43  1  0
  7 44  1  0
  8 45  1  0
  8 46  1  0
  8 47  1  0
  9 10  2  0
  9 11  1  0
 11 12  1  0
 11 48  1  0
 11 49  1  0
 12 13  1  0
 12 50  1  0
 12 51  1  0
 13 14  1  1
 13 15  1  0
 14 52  1  0
 14 53  1  0
 14 54  1  0
 15 34  1  0
 15 16  1  0
 15 55  1  6
 16 17  1  0
 16 56  1  0
 16 57  1  0
 17 18  1  0
 17 58  1  0
 17 59  1  0
 18 32  1  0
 18 19  1  1
 18 20  1  0
 19 60  1  0
 19 61  1  0
 19 62  1  0
 20 29  1  0
 20 21  1  0
 20 63  1  6
 21 22  1  0
 21 30  1  0
 21 64  1  1
 22 23  1  0
 23 24  2  0
 23 25  1  0
 25 29  1  0
 25 26  1  6
 25 27  1  0
 26 65  1  0
 26 66  1  0
 26 67  1  0
 27 28  1  0
 27 68  1  0
 27 69  1  0
 28 29  1  0
 29 70  1  1
 30 31  1  0
 30 32  1  0
 30 71  1  1
 31 72  1  0
 32 33  1  6
 32 34  1  0
 33 73  1  0
 33 74  1  0
 33 75  1  0
 34 76  1  1
M  END
>  <i_m_ct_stereo_status>  (274) 
1

>  <s_m_source_file>  (274) 
/var/tmp/pbs.5076255.sched01/tmp7rmqr72f/92ch8atech.sdf

>  <i_m_source_file_index>  (274) 
13

>  <i_lp_mmshare_version>  (274) 
48012

>  <i_f3d_flags>  (274) 
0

>  <s_epik_input>  (274) 
W0NIMl0xW0NIMl1DKD1PKUMoW0NIM10pKFtDSDNdKVtDQEBIXShbQ0BAXTEyW0NIM10pW0NIMl1bQ0BASF0oT1tDSDNdKVtDQEhdM1tDQEhdMltDSDJdW0NIMl1bQ0BAXTQoW0NIM10pW0NAQEhdNVtDQEhdKFtDQEBIXShbT0hdKVtDQF0zNFtDSDNdKU9DKD1PKVtDQF02KFtDSDNdKVtDQEhdNU9bQ0gyXTY=

>  <s_epik_cmdline>  (274) 
J2VwaWtfcHl0aG9uJywgJy1waHQnLCAnMi4wJywgJy1waCcsICc3LjAnLCAnLXRuJywgJzgnLCAnLW1hJywgJzIwMCcsICctaW1hZScsICc8aW5maWxlLm1hZT4nLCAnLW9tYWUnLCAnPG91dGZpbGUubWFlPic=

>  <r_lp_tautomer_probability>  (274) 
1

>  <r_epik_Ionization_Penalty>  (274) 
7.25062e-08

>  <r_epik_Ionization_Penalty_Charging>  (274) 
0

>  <r_epik_Ionization_Penalty_Neutral>  (274) 
7.25062e-08

>  <r_epik_State_Penalty>  (274) 
-0

>  <r_epik_Charging_Adjusted_Penalty>  (274) 
0

>  <i_epik_Tot_Q>  (274) 
0

>  <i_epik_Tot_abs_Q>  (274) 
0

>  <s_epik_Chemistry_Notes>  (274) 
This compound has an ester and may undergo hydrolysis at high or low pH.

>  <s_lp_Force_Field>  (274) 
OPLS3e

>  <r_lp_Energy>  (274) 
85.3312

>  <b_lp_Chiralities_Consistent>  (274) 
1

>  <s_lp_Variant>  (274) 
67:0-1

>  <s_i_glide_gridfile>  (274) 
pfpi4k_grid

>  <i_i_glide_lignum>  (274) 
13

>  <i_i_glide_rotatable_bonds>  (274) 
2

>  <r_i_docking_score>  (274) 
-3.06529

>  <r_i_glide_ligand_efficiency>  (274) 
-0.0901556

>  <r_i_glide_ligand_efficiency_sa>  (274) 
-0.292069

>  <r_i_glide_ligand_efficiency_ln>  (274) 
-0.677208

>  <r_i_glide_gscore>  (274) 
-3.06529

>  <r_i_glide_lipo>  (274) 
-0.210216

>  <r_i_glide_hbond>  (274) 
-0.121641

>  <r_i_glide_metal>  (274) 
-0

>  <r_i_glide_rewards>  (274) 
-0.754513

>  <r_i_glide_evdw>  (274) 
-22.8486

>  <r_i_glide_ecoul>  (274) 
-5.31996

>  <r_i_glide_erotb>  (274) 
0

>  <r_i_glide_esite>  (274) 
-0.0384925

>  <r_i_glide_emodel>  (274) 
-38.1912

>  <r_i_glide_energy>  (274) 
-28.1686

>  <r_i_glide_einternal>  (274) 
1.44813

>  <r_i_glide_intrahb_reward>  (274) 
-0.5

>  <i_i_glide_confnum>  (274) 
1

>  <i_i_glide_posenum>  (274) 
30

>  <r_i_glide_eff_state_penalty>  (274) 
0

>  <ligand_id>  (274) 
67

>  <original_smiles>  (274) 
COC1CC2C(C)(C)C(=O)CCC2(C)C2CCC3(C)C4C(OC(=O)C5(C)COC45)C(O)C3(C)C12

>  <smiles>  (274) 
[H]OC1([H])C2([H])OC(=O)C3(C([H])([H])[H])C([H])([H])OC3([H])C2([H])C2(C([H])([H])[H])C([H])([H])C([H])([H])C3([H])C([H])(C([H])(OC([H])([H])[H])C([H])([H])C4([H])C(C([H])([H])[H])(C([H])([H])[H])C(=O)C([H])([H])C([H])([H])C34C([H])([H])[H])C12C([H])([H])[H]

$$$$
67:0:1
     RDKit          3D

 76 81  0  0  1  0  0  0  0  0999 V2000
    5.2170    2.3526    6.0777 C   0  0  0  0  0  0  0  0  0  0  0  0
    4.4983    1.2507    5.5314 O   0  0  0  0  0  0  0  0  0  0  0  0
    3.1983    1.5411    5.0114 C   0  0  2  0  0  0  0  0  0  0  0  0
    2.3638    2.2337    6.1215 C   0  0  0  0  0  0  0  0  0  0  0  0
    0.8475    2.3679    5.8557 C   0  0  1  0  0  0  0  0  0  0  0  0
    0.4301    3.6416    5.0028 C   0  0  0  0  0  0  0  0  0  0  0  0
    0.5193    4.8951    5.9189 C   0  0  0  0  0  0  0  0  0  0  0  0
    1.3139    3.9244    3.7652 C   0  0  0  0  0  0  0  0  0  0  0  0
   -1.0277    3.5426    4.4902 C   0  0  0  0  0  0  0  0  0  0  0  0
   -1.7438    4.5332    4.3594 O   0  0  0  0  0  0  0  0  0  0  0  0
   -1.5484    2.1652    4.0987 C   0  0  0  0  0  0  0  0  0  0  0  0
   -1.2704    1.1674    5.2210 C   0  0  0  0  0  0  0  0  0  0  0  0
    0.2411    0.9704    5.4929 C   0  0  2  0  0  0  0  0  0  0  0  0
    0.3160    0.0338    6.7356 C   0  0  0  0  0  0  0  0  0  0  0  0
    1.0131    0.3492    4.2759 C   0  0  2  0  0  0  0  0  0  0  0  0
    0.3266   -0.9368    3.7237 C   0  0  0  0  0  0  0  0  0  0  0  0
    1.1217   -1.7193    2.6536 C   0  0  0  0  0  0  0  0  0  0  0  0
    2.5937   -1.9079    3.0697 C   0  0  1  0  0  0  0  0  0  0  0  0
    2.5799   -2.8148    4.3496 C   0  0  0  0  0  0  0  0  0  0  0  0
    3.5527   -2.6480    2.0904 C   0  0  2  0  0  0  0  0  0  0  0  0
    4.9335   -2.1975    2.5848 C   0  0  1  0  0  0  0  0  0  0  0  0
    6.0239   -2.2078    1.6557 O   0  0  0  0  0  0  0  0  0  0  0  0
    5.9447   -2.2743    0.2904 C   0  0  0  0  0  0  0  0  0  0  0  0
    6.9852   -2.2643   -0.3728 O   0  0  0  0  0  0  0  0  0  0  0  0
    4.5636   -2.3216   -0.3451 C   0  0  1  0  0  0  0  0  0  0  0  0
    4.5079   -1.2387   -1.4241 C   0  0  0  0  0  0  0  0  0  0  0  0
    4.1276   -3.7154   -0.8047 C   0  0  0  0  0  0  0  0  0  0  0  0
    2.9302   -3.6759    0.0066 O   0  0  0  0  0  0  0  0  0  0  0  0
    3.3518   -2.4198    0.5913 C   0  0  1  0  0  0  0  0  0  0  0  0
    4.7408   -0.9057    3.4287 C   0  0  1  0  0  0  0  0  0  0  0  0
    5.6682    0.0958    3.0595 O   0  0  0  0  0  0  0  0  0  0  0  0
    3.2481   -0.4938    3.2812 C   0  0  1  0  0  0  0  0  0  0  0  0
    3.1209    0.4415    2.0314 C   0  0  0  0  0  0  0  0  0  0  0  0
    2.5608    0.1988    4.5252 C   0  0  1  0  0  0  0  0  0  0  0  0
    6.2558    2.0703    6.2462 H   0  0  0  0  0  0  0  0  0  0  0  0
    4.8133    2.6560    7.0447 H   0  0  0  0  0  0  0  0  0  0  0  0
    5.1965    3.2197    5.4163 H   0  0  0  0  0  0  0  0  0  0  0  0
    3.3128    2.2264    4.1759 H   0  0  0  0  0  0  0  0  0  0  0  0
    2.5096    1.6705    7.0426 H   0  0  0  0  0  0  0  0  0  0  0  0
    2.7639    3.2235    6.3258 H   0  0  0  0  0  0  0  0  0  0  0  0
    0.4370    2.5861    6.8434 H   0  0  0  0  0  0  0  0  0  0  0  0
    1.5281    5.0610    6.2964 H   0  0  0  0  0  0  0  0  0  0  0  0
   -0.1394    4.8069    6.7840 H   0  0  0  0  0  0  0  0  0  0  0  0
    0.2368    5.8060    5.3925 H   0  0  0  0  0  0  0  0  0  0  0  0
    2.3277    4.2104    4.0460 H   0  0  0  0  0  0  0  0  0  0  0  0
    0.9191    4.7566    3.1807 H   0  0  0  0  0  0  0  0  0  0  0  0
    1.3756    3.0809    3.0806 H   0  0  0  0  0  0  0  0  0  0  0  0
   -2.6208    2.2297    3.9132 H   0  0  0  0  0  0  0  0  0  0  0  0
   -1.0832    1.8567    3.1639 H   0  0  0  0  0  0  0  0  0  0  0  0
   -1.7458    1.5418    6.1285 H   0  0  0  0  0  0  0  0  0  0  0  0
   -1.7707    0.2208    5.0151 H   0  0  0  0  0  0  0  0  0  0  0  0
   -0.2097   -0.9064    6.5721 H   0  0  0  0  0  0  0  0  0  0  0  0
   -0.1460    0.4956    7.6100 H   0  0  0  0  0  0  0  0  0  0  0  0
    1.3329   -0.2240    7.0287 H   0  0  0  0  0  0  0  0  0  0  0  0
    0.9116    1.0593    3.4654 H   0  0  0  0  0  0  0  0  0  0  0  0
    0.0656   -1.6169    4.5316 H   0  0  0  0  0  0  0  0  0  0  0  0
   -0.6226   -0.6539    3.2767 H   0  0  0  0  0  0  0  0  0  0  0  0
    0.6539   -2.6895    2.5100 H   0  0  0  0  0  0  0  0  0  0  0  0
    1.0143   -1.2188    1.6942 H   0  0  0  0  0  0  0  0  0  0  0  0
    3.5683   -2.9515    4.7886 H   0  0  0  0  0  0  0  0  0  0  0  0
    2.2070   -3.8134    4.1085 H   0  0  0  0  0  0  0  0  0  0  0  0
    1.9445   -2.4516    5.1578 H   0  0  0  0  0  0  0  0  0  0  0  0
    3.4895   -3.7219    2.2578 H   0  0  0  0  0  0  0  0  0  0  0  0
    5.2379   -2.9533    3.3096 H   0  0  0  0  0  0  0  0  0  0  0  0
    3.5298   -1.2145   -1.9045 H   0  0  0  0  0  0  0  0  0  0  0  0
    5.2477   -1.3979   -2.2069 H   0  0  0  0  0  0  0  0  0  0  0  0
    4.6837   -0.2551   -0.9992 H   0  0  0  0  0  0  0  0  0  0  0  0
    3.8944   -3.7636   -1.8713 H   0  0  0  0  0  0  0  0  0  0  0  0
    4.7890   -4.5391   -0.5131 H   0  0  0  0  0  0  0  0  0  0  0  0
    2.6426   -1.6298    0.3438 H   0  0  0  0  0  0  0  0  0  0  0  0
    4.9490   -1.1475    4.4715 H   0  0  0  0  0  0  0  0  0  0  0  0
    6.5346   -0.2768    3.0701 H   0  0  0  0  0  0  0  0  0  0  0  0
    3.5075    1.4328    2.2292 H   0  0  0  0  0  0  0  0  0  0  0  0
    2.1055    0.6021    1.6803 H   0  0  0  0  0  0  0  0  0  0  0  0
    3.7022    0.0922    1.1837 H   0  0  0  0  0  0  0  0  0  0  0  0
    2.7040   -0.4606    5.3750 H   0  0  0  0  0  0  0  0  0  0  0  0
  1  2  1  0
  1 35  1  0
  1 36  1  0
  1 37  1  0
  2  3  1  0
  3 34  1  0
  3  4  1  0
  3 38  1  6
  4  5  1  0
  4 39  1  0
  4 40  1  0
  5 13  1  0
  5  6  1  0
  5 41  1  1
  6  7  1  0
  6  8  1  0
  6  9  1  0
  7 42  1  0
  7 43  1  0
  7 44  1  0
  8 45  1  0
  8 46  1  0
  8 47  1  0
  9 10  2  0
  9 11  1  0
 11 12  1  0
 11 48  1  0
 11 49  1  0
 12 13  1  0
 12 50  1  0
 12 51  1  0
 13 14  1  1
 13 15  1  0
 14 52  1  0
 14 53  1  0
 14 54  1  0
 15 34  1  0
 15 16  1  0
 15 55  1  6
 16 17  1  0
 16 56  1  0
 16 57  1  0
 17 18  1  0
 17 58  1  0
 17 59  1  0
 18 32  1  0
 18 19  1  1
 18 20  1  0
 19 60  1  0
 19 61  1  0
 19 62  1  0
 20 29  1  0
 20 21  1  0
 20 63  1  6
 21 22  1  0
 21 30  1  0
 21 64  1  1
 22 23  1  0
 23 24  2  0
 23 25  1  0
 25 29  1  0
 25 26  1  6
 25 27  1  0
 26 65  1  0
 26 66  1  0
 26 67  1  0
 27 28  1  0
 27 68  1  0
 27 69  1  0
 28 29  1  0
 29 70  1  1
 30 31  1  0
 30 32  1  0
 30 71  1  1
 31 72  1  0
 32 33  1  6
 32 34  1  0
 33 73  1  0
 33 74  1  0
 33 75  1  0
 34 76  1  1
M  END
>  <i_m_ct_stereo_status>  (275) 
1

>  <s_m_source_file>  (275) 
/var/tmp/pbs.5076255.sched01/tmp7rmqr72f/92ch8atech.sdf

>  <i_m_source_file_index>  (275) 
13

>  <i_lp_mmshare_version>  (275) 
48012

>  <i_f3d_flags>  (275) 
0

>  <s_epik_input>  (275) 
W0NIMl0xW0NIMl1DKD1PKUMoW0NIM10pKFtDSDNdKVtDQEBIXShbQ0BAXTEyW0NIM10pW0NIMl1bQ0BASF0oT1tDSDNdKVtDQEhdM1tDQEhdMltDSDJdW0NIMl1bQ0BAXTQoW0NIM10pW0NAQEhdNVtDQEhdKFtDQEBIXShbT0hdKVtDQF0zNFtDSDNdKU9DKD1PKVtDQF02KFtDSDNdKVtDQEhdNU9bQ0gyXTY=

>  <s_epik_cmdline>  (275) 
J2VwaWtfcHl0aG9uJywgJy1waHQnLCAnMi4wJywgJy1waCcsICc3LjAnLCAnLXRuJywgJzgnLCAnLW1hJywgJzIwMCcsICctaW1hZScsICc8aW5maWxlLm1hZT4nLCAnLW9tYWUnLCAnPG91dGZpbGUubWFlPic=

>  <r_lp_tautomer_probability>  (275) 
1

>  <r_epik_Ionization_Penalty>  (275) 
7.25062e-08

>  <r_epik_Ionization_Penalty_Charging>  (275) 
0

>  <r_epik_Ionization_Penalty_Neutral>  (275) 
7.25062e-08

>  <r_epik_State_Penalty>  (275) 
-0

>  <r_epik_Charging_Adjusted_Penalty>  (275) 
0

>  <i_epik_Tot_Q>  (275) 
0

>  <i_epik_Tot_abs_Q>  (275) 
0

>  <s_epik_Chemistry_Notes>  (275) 
This compound has an ester and may undergo hydrolysis at high or low pH.

>  <s_lp_Force_Field>  (275) 
OPLS3e

>  <r_lp_Energy>  (275) 
85.3312

>  <b_lp_Chiralities_Consistent>  (275) 
1

>  <s_lp_Variant>  (275) 
67:0-1

>  <s_i_glide_gridfile>  (275) 
pfpi4k_grid

>  <i_i_glide_lignum>  (275) 
13

>  <i_i_glide_rotatable_bonds>  (275) 
2

>  <r_i_docking_score>  (275) 
-2.77259

>  <r_i_glide_ligand_efficiency>  (275) 
-0.0815469

>  <r_i_glide_ligand_efficiency_sa>  (275) 
-0.26418

>  <r_i_glide_ligand_efficiency_ln>  (275) 
-0.612544

>  <r_i_glide_gscore>  (275) 
-2.77259

>  <r_i_glide_lipo>  (275) 
-0.244717

>  <r_i_glide_hbond>  (275) 
-0.183989

>  <r_i_glide_metal>  (275) 
-0

>  <r_i_glide_rewards>  (275) 
-0.234047

>  <r_i_glide_evdw>  (275) 
-22.2904

>  <r_i_glide_ecoul>  (275) 
-6.3967

>  <r_i_glide_erotb>  (275) 
0

>  <r_i_glide_esite>  (275) 
-0.0358176

>  <r_i_glide_emodel>  (275) 
-32.9483

>  <r_i_glide_energy>  (275) 
-28.6871

>  <r_i_glide_einternal>  (275) 
1.72422

>  <r_i_glide_intrahb_reward>  (275) 
-0

>  <i_i_glide_confnum>  (275) 
1

>  <i_i_glide_posenum>  (275) 
33

>  <r_i_glide_eff_state_penalty>  (275) 
0

>  <ligand_id>  (275) 
67

>  <original_smiles>  (275) 
COC1CC2C(C)(C)C(=O)CCC2(C)C2CCC3(C)C4C(OC(=O)C5(C)COC45)C(O)C3(C)C12

>  <smiles>  (275) 
[H]OC1([H])C2([H])OC(=O)C3(C([H])([H])[H])C([H])([H])OC3([H])C2([H])C2(C([H])([H])[H])C([H])([H])C([H])([H])C3([H])C([H])(C([H])(OC([H])([H])[H])C([H])([H])C4([H])C(C([H])([H])[H])(C([H])([H])[H])C(=O)C([H])([H])C([H])([H])C34C([H])([H])[H])C12C([H])([H])[H]

$$$$
67:0:2
     RDKit          3D

 76 81  0  0  1  0  0  0  0  0999 V2000
    2.1391   -5.5454    2.7016 C   0  0  0  0  0  0  0  0  0  0  0  0
    2.7448   -4.3165    3.0760 O   0  0  0  0  0  0  0  0  0  0  0  0
    3.1279   -3.4801    1.9879 C   0  0  2  0  0  0  0  0  0  0  0  0
    4.3154   -4.1278    1.2289 C   0  0  0  0  0  0  0  0  0  0  0  0
    5.0157   -3.2184    0.1816 C   0  0  1  0  0  0  0  0  0  0  0  0
    4.3472   -3.1798   -1.2389 C   0  0  0  0  0  0  0  0  0  0  0  0
    4.7798   -4.4540   -1.9452 C   0  0  0  0  0  0  0  0  0  0  0  0
    2.8135   -3.1153   -1.2371 C   0  0  0  0  0  0  0  0  0  0  0  0
    4.8519   -2.0292   -2.1308 C   0  0  0  0  0  0  0  0  0  0  0  0
    4.9166   -2.1339   -3.3510 O   0  0  0  0  0  0  0  0  0  0  0  0
    5.2083   -0.7244   -1.4570 C   0  0  0  0  0  0  0  0  0  0  0  0
    6.1113   -1.0026   -0.2628 C   0  0  0  0  0  0  0  0  0  0  0  0
    5.4259   -1.8669    0.8176 C   0  0  2  0  0  0  0  0  0  0  0  0
    6.5399   -2.1321    1.8416 C   0  0  0  0  0  0  0  0  0  0  0  0
    4.1925   -1.2012    1.4967 C   0  0  2  0  0  0  0  0  0  0  0  0
    4.5059    0.2198    1.9843 C   0  0  0  0  0  0  0  0  0  0  0  0
    3.4217    0.9394    2.8206 C   0  0  0  0  0  0  0  0  0  0  0  0
    2.8956    0.0116    3.9239 C   0  0  1  0  0  0  0  0  0  0  0  0
    4.0880   -0.2482    4.9040 C   0  0  0  0  0  0  0  0  0  0  0  0
    1.7676    0.5325    4.8550 C   0  0  2  0  0  0  0  0  0  0  0  0
    1.1903   -0.7771    5.3951 C   0  0  1  0  0  0  0  0  0  0  0  0
   -0.1697   -0.7745    5.8342 O   0  0  0  0  0  0  0  0  0  0  0  0
   -1.1117    0.1662    5.5686 C   0  0  0  0  0  0  0  0  0  0  0  0
   -2.2116    0.0567    6.0833 O   0  0  0  0  0  0  0  0  0  0  0  0
   -0.7368    1.3094    4.6466 C   0  0  1  0  0  0  0  0  0  0  0  0
   -1.7584    1.4039    3.5249 C   0  0  0  0  0  0  0  0  0  0  0  0
   -0.4961    2.6120    5.3936 C   0  0  0  0  0  0  0  0  0  0  0  0
    0.8420    2.7457    4.8672 O   0  0  0  0  0  0  0  0  0  0  0  0
    0.7250    1.4545    4.2327 C   0  0  1  0  0  0  0  0  0  0  0  0
    1.6229   -1.9348    4.4601 C   0  0  1  0  0  0  0  0  0  0  0  0
    0.5562   -2.7856    4.1072 O   0  0  0  0  0  0  0  0  0  0  0  0
    2.3182   -1.2783    3.2445 C   0  0  1  0  0  0  0  0  0  0  0  0
    1.2311   -0.9574    2.1762 C   0  0  0  0  0  0  0  0  0  0  0  0
    3.4908   -2.0868    2.5788 C   0  0  1  0  0  0  0  0  0  0  0  0
    1.7890   -6.0537    3.6006 H   0  0  0  0  0  0  0  0  0  0  0  0
    2.8355   -6.2211    2.1987 H   0  0  0  0  0  0  0  0  0  0  0  0
    1.2786   -5.3729    2.0515 H   0  0  0  0  0  0  0  0  0  0  0  0
    2.2849   -3.3804    1.3095 H   0  0  0  0  0  0  0  0  0  0  0  0
    5.0508   -4.4581    1.9663 H   0  0  0  0  0  0  0  0  0  0  0  0
    3.9826   -5.0468    0.7492 H   0  0  0  0  0  0  0  0  0  0  0  0
    5.9613   -3.7266    0.0007 H   0  0  0  0  0  0  0  0  0  0  0  0
    4.5485   -5.3162   -1.3258 H   0  0  0  0  0  0  0  0  0  0  0  0
    5.8283   -4.4628   -2.1180 H   0  0  0  0  0  0  0  0  0  0  0  0
    4.2943   -4.5363   -2.9152 H   0  0  0  0  0  0  0  0  0  0  0  0
    2.3483   -4.0184   -0.8447 H   0  0  0  0  0  0  0  0  0  0  0  0
    2.4091   -2.9576   -2.2360 H   0  0  0  0  0  0  0  0  0  0  0  0
    2.4918   -2.2732   -0.6288 H   0  0  0  0  0  0  0  0  0  0  0  0
    5.6992   -0.0893   -2.1886 H   0  0  0  0  0  0  0  0  0  0  0  0
    4.2906   -0.2361   -1.1487 H   0  0  0  0  0  0  0  0  0  0  0  0
    6.9969   -1.5355   -0.6066 H   0  0  0  0  0  0  0  0  0  0  0  0
    6.4946   -0.0685    0.1527 H   0  0  0  0  0  0  0  0  0  0  0  0
    6.9744   -1.1938    2.1925 H   0  0  0  0  0  0  0  0  0  0  0  0
    7.3436   -2.7111    1.3869 H   0  0  0  0  0  0  0  0  0  0  0  0
    6.1969   -2.6874    2.7130 H   0  0  0  0  0  0  0  0  0  0  0  0
    3.4713   -1.0323    0.7091 H   0  0  0  0  0  0  0  0  0  0  0  0
    5.4474    0.2430    2.5225 H   0  0  0  0  0  0  0  0  0  0  0  0
    4.6300    0.8163    1.0743 H   0  0  0  0  0  0  0  0  0  0  0  0
    3.8185    1.8435    3.2785 H   0  0  0  0  0  0  0  0  0  0  0  0
    2.6481    1.2956    2.1511 H   0  0  0  0  0  0  0  0  0  0  0  0
    3.8511   -0.9697    5.6869 H   0  0  0  0  0  0  0  0  0  0  0  0
    4.3750    0.6786    5.4128 H   0  0  0  0  0  0  0  0  0  0  0  0
    5.0006   -0.6184    4.4290 H   0  0  0  0  0  0  0  0  0  0  0  0
    2.1984    1.0652    5.6926 H   0  0  0  0  0  0  0  0  0  0  0  0
    1.7340   -0.9575    6.3259 H   0  0  0  0  0  0  0  0  0  0  0  0
   -1.5262    2.2116    2.8389 H   0  0  0  0  0  0  0  0  0  0  0  0
   -2.7391    1.6229    3.9444 H   0  0  0  0  0  0  0  0  0  0  0  0
   -1.7819    0.4873    2.9494 H   0  0  0  0  0  0  0  0  0  0  0  0
   -1.1522    3.4124    5.0597 H   0  0  0  0  0  0  0  0  0  0  0  0
   -0.5067    2.5263    6.4876 H   0  0  0  0  0  0  0  0  0  0  0  0
    0.7600    1.5338    3.1511 H   0  0  0  0  0  0  0  0  0  0  0  0
    2.3443   -2.5497    5.0045 H   0  0  0  0  0  0  0  0  0  0  0  0
    0.9528   -3.5028    3.6391 H   0  0  0  0  0  0  0  0  0  0  0  0
    0.8866   -1.8538    1.6729 H   0  0  0  0  0  0  0  0  0  0  0  0
    1.5402   -0.3015    1.3726 H   0  0  0  0  0  0  0  0  0  0  0  0
    0.3295   -0.5404    2.6014 H   0  0  0  0  0  0  0  0  0  0  0  0
    4.2027   -2.3220    3.3657 H   0  0  0  0  0  0  0  0  0  0  0  0
  1  2  1  0
  1 35  1  0
  1 36  1  0
  1 37  1  0
  2  3  1  0
  3 34  1  0
  3  4  1  0
  3 38  1  6
  4  5  1  0
  4 39  1  0
  4 40  1  0
  5 13  1  0
  5  6  1  0
  5 41  1  6
  6  7  1  0
  6  8  1  0
  6  9  1  0
  7 42  1  0
  7 43  1  0
  7 44  1  0
  8 45  1  0
  8 46  1  0
  8 47  1  0
  9 10  2  0
  9 11  1  0
 11 12  1  0
 11 48  1  0
 11 49  1  0
 12 13  1  0
 12 50  1  0
 12 51  1  0
 13 14  1  1
 13 15  1  0
 14 52  1  0
 14 53  1  0
 14 54  1  0
 15 34  1  0
 15 16  1  0
 15 55  1  6
 16 17  1  0
 16 56  1  0
 16 57  1  0
 17 18  1  0
 17 58  1  0
 17 59  1  0
 18 32  1  0
 18 19  1  1
 18 20  1  0
 19 60  1  0
 19 61  1  0
 19 62  1  0
 20 29  1  0
 20 21  1  0
 20 63  1  1
 21 22  1  0
 21 30  1  0
 21 64  1  1
 22 23  1  0
 23 24  2  0
 23 25  1  0
 25 29  1  0
 25 26  1  6
 25 27  1  0
 26 65  1  0
 26 66  1  0
 26 67  1  0
 27 28  1  0
 27 68  1  0
 27 69  1  0
 28 29  1  0
 29 70  1  6
 30 31  1  0
 30 32  1  0
 30 71  1  1
 31 72  1  0
 32 33  1  6
 32 34  1  0
 33 73  1  0
 33 74  1  0
 33 75  1  0
 34 76  1  1
M  END
>  <i_m_ct_stereo_status>  (276) 
1

>  <s_m_source_file>  (276) 
/var/tmp/pbs.5076255.sched01/tmp7rmqr72f/92ch8atech.sdf

>  <i_m_source_file_index>  (276) 
13

>  <i_lp_mmshare_version>  (276) 
48012

>  <i_f3d_flags>  (276) 
0

>  <s_epik_input>  (276) 
W0NIMl0xW0NIMl1DKD1PKUMoW0NIM10pKFtDSDNdKVtDQEBIXShbQ0BAXTEyW0NIM10pW0NIMl1bQ0BASF0oT1tDSDNdKVtDQEhdM1tDQEhdMltDSDJdW0NIMl1bQ0BAXTQoW0NIM10pW0NAQEhdNVtDQEhdKFtDQEBIXShbT0hdKVtDQF0zNFtDSDNdKU9DKD1PKVtDQF02KFtDSDNdKVtDQEhdNU9bQ0gyXTY=

>  <s_epik_cmdline>  (276) 
J2VwaWtfcHl0aG9uJywgJy1waHQnLCAnMi4wJywgJy1waCcsICc3LjAnLCAnLXRuJywgJzgnLCAnLW1hJywgJzIwMCcsICctaW1hZScsICc8aW5maWxlLm1hZT4nLCAnLW9tYWUnLCAnPG91dGZpbGUubWFlPic=

>  <r_lp_tautomer_probability>  (276) 
1

>  <r_epik_Ionization_Penalty>  (276) 
7.25062e-08

>  <r_epik_Ionization_Penalty_Charging>  (276) 
0

>  <r_epik_Ionization_Penalty_Neutral>  (276) 
7.25062e-08

>  <r_epik_State_Penalty>  (276) 
-0

>  <r_epik_Charging_Adjusted_Penalty>  (276) 
0

>  <i_epik_Tot_Q>  (276) 
0

>  <i_epik_Tot_abs_Q>  (276) 
0

>  <s_epik_Chemistry_Notes>  (276) 
This compound has an ester and may undergo hydrolysis at high or low pH.

>  <s_lp_Force_Field>  (276) 
OPLS3e

>  <r_lp_Energy>  (276) 
85.3312

>  <b_lp_Chiralities_Consistent>  (276) 
1

>  <s_lp_Variant>  (276) 
67:0-1

>  <s_i_glide_gridfile>  (276) 
pfpi4k_grid

>  <i_i_glide_lignum>  (276) 
13

>  <i_i_glide_rotatable_bonds>  (276) 
2

>  <r_i_docking_score>  (276) 
-2.69612

>  <r_i_glide_ligand_efficiency>  (276) 
-0.0792975

>  <r_i_glide_ligand_efficiency_sa>  (276) 
-0.256893

>  <r_i_glide_ligand_efficiency_ln>  (276) 
-0.595647

>  <r_i_glide_gscore>  (276) 
-2.69612

>  <r_i_glide_lipo>  (276) 
-0.216967

>  <r_i_glide_hbond>  (276) 
-0.16

>  <r_i_glide_metal>  (276) 
-0

>  <r_i_glide_rewards>  (276) 
-0.672981

>  <r_i_glide_evdw>  (276) 
-17.9581

>  <r_i_glide_ecoul>  (276) 
-4.68588

>  <r_i_glide_erotb>  (276) 
0

>  <r_i_glide_esite>  (276) 
-0.0453803

>  <r_i_glide_emodel>  (276) 
-32.3957

>  <r_i_glide_energy>  (276) 
-22.644

>  <r_i_glide_einternal>  (276) 
0.362573

>  <r_i_glide_intrahb_reward>  (276) 
-0.5

>  <i_i_glide_confnum>  (276) 
1

>  <i_i_glide_posenum>  (276) 
19

>  <r_i_glide_eff_state_penalty>  (276) 
0

>  <ligand_id>  (276) 
67

>  <original_smiles>  (276) 
COC1CC2C(C)(C)C(=O)CCC2(C)C2CCC3(C)C4C(OC(=O)C5(C)COC45)C(O)C3(C)C12

>  <smiles>  (276) 
[H]OC1([H])C2([H])OC(=O)C3(C([H])([H])[H])C([H])([H])OC3([H])C2([H])C2(C([H])([H])[H])C([H])([H])C([H])([H])C3([H])C([H])(C([H])(OC([H])([H])[H])C([H])([H])C4([H])C(C([H])([H])[H])(C([H])([H])[H])C(=O)C([H])([H])C([H])([H])C34C([H])([H])[H])C12C([H])([H])[H]

$$$$
68:0:0
     RDKit          3D

 21 22  0  0  1  0  0  0  0  0999 V2000
  -11.8662   -6.5085  -10.1050 C   0  0  0  0  0  0  0  0  0  0  0  0
  -11.0125   -5.4896   -9.5738 O   0  0  0  0  0  0  0  0  0  0  0  0
   -9.9441   -5.9101   -8.8237 C   0  0  0  0  0  0  0  0  0  0  0  0
   -9.2023   -7.0729   -9.1446 C   0  0  0  0  0  0  0  0  0  0  0  0
   -8.1414   -7.4827   -8.3274 C   0  0  0  0  0  0  0  0  0  0  0  0
   -7.7681   -6.7495   -7.1903 C   0  0  0  0  0  0  0  0  0  0  0  0
   -6.7380   -7.0768   -6.3227 N   0  0  0  0  0  0  0  0  0  0  0  0
   -6.6499   -6.1573   -5.3612 C   0  0  0  0  0  0  0  0  0  0  0  0
   -5.6152   -6.2591   -4.2991 C   0  0  0  0  0  0  0  0  0  0  0  0
   -7.8088   -4.8173   -5.4340 S   0  0  0  0  0  0  0  0  0  0  0  0
   -8.4873   -5.5549   -6.8957 C   0  0  0  0  0  0  0  0  0  0  0  0
   -9.5596   -5.1407   -7.7067 C   0  0  0  0  0  0  0  0  0  0  0  0
  -12.6348   -6.0725  -10.7539 H   0  0  0  0  0  0  0  0  0  0  0  0
  -12.3661   -7.0239   -9.2835 H   0  0  0  0  0  0  0  0  0  0  0  0
  -11.3501   -7.2506  -10.7083 H   0  0  0  0  0  0  0  0  0  0  0  0
   -9.4192   -7.6749  -10.0137 H   0  0  0  0  0  0  0  0  0  0  0  0
   -7.5991   -8.3785   -8.5797 H   0  0  0  0  0  0  0  0  0  0  0  0
   -5.0076   -7.1532   -4.4583 H   0  0  0  0  0  0  0  0  0  0  0  0
   -6.0880   -6.3313   -3.3203 H   0  0  0  0  0  0  0  0  0  0  0  0
   -4.9710   -5.3828   -4.3234 H   0  0  0  0  0  0  0  0  0  0  0  0
  -10.1122   -4.2499   -7.4505 H   0  0  0  0  0  0  0  0  0  0  0  0
  1  2  1  0
  1 13  1  0
  1 14  1  0
  1 15  1  0
  2  3  1  0
  3 12  2  0
  3  4  1  0
  4  5  2  0
  4 16  1  0
  5  6  1  0
  5 17  1  0
  6 11  2  0
  6  7  1  0
  7  8  2  0
  8  9  1  0
  8 10  1  0
  9 18  1  0
  9 19  1  0
  9 20  1  0
 10 11  1  0
 11 12  1  0
 12 21  1  0
M  END
>  <i_m_ct_stereo_status>  (277) 
1

>  <s_m_source_file>  (277) 
/var/tmp/pbs.5076255.sched01/tmp7rmqr72f/92ch8atech.sdf

>  <i_m_source_file_index>  (277) 
14

>  <i_lp_mmshare_version>  (277) 
48012

>  <i_f3d_flags>  (277) 
0

>  <s_epik_input>  (277) 
W0NIM11PYyhbY0hdW2NIXTEpW2NIXWMoYzEyKXNjKG4yKVtDSDNd

>  <s_epik_cmdline>  (277) 
J2VwaWtfcHl0aG9uJywgJy1waHQnLCAnMi4wJywgJy1waCcsICc3LjAnLCAnLXRuJywgJzgnLCAnLW1hJywgJzIwMCcsICctaW1hZScsICc8aW5maWxlLm1hZT4nLCAnLW9tYWUnLCAnPG91dGZpbGUubWFlPic=

>  <r_lp_tautomer_probability>  (277) 
1

>  <r_epik_Ionization_Penalty>  (277) 
2.51174e-05

>  <r_epik_Ionization_Penalty_Charging>  (277) 
0

>  <r_epik_Ionization_Penalty_Neutral>  (277) 
2.51174e-05

>  <r_epik_State_Penalty>  (277) 
-0

>  <r_epik_Charging_Adjusted_Penalty>  (277) 
0

>  <i_epik_Tot_Q>  (277) 
0

>  <i_epik_Tot_abs_Q>  (277) 
0

>  <s_lp_Force_Field>  (277) 
OPLS3e

>  <r_lp_Energy>  (277) 
12.8655

>  <b_lp_Chiralities_Consistent>  (277) 
1

>  <s_lp_Variant>  (277) 
68:0-1

>  <s_i_glide_gridfile>  (277) 
pfpi4k_grid

>  <i_i_glide_lignum>  (277) 
14

>  <i_i_glide_rotatable_bonds>  (277) 
1

>  <r_i_docking_score>  (277) 
-5.40041

>  <r_i_glide_ligand_efficiency>  (277) 
-0.450034

>  <r_i_glide_ligand_efficiency_sa>  (277) 
-1.03032

>  <r_i_glide_ligand_efficiency_ln>  (277) 
-1.54966

>  <r_i_glide_gscore>  (277) 
-5.40041

>  <r_i_glide_lipo>  (277) 
-1.58864

>  <r_i_glide_hbond>  (277) 
-0.10954

>  <r_i_glide_metal>  (277) 
-0

>  <r_i_glide_rewards>  (277) 
-2.54572

>  <r_i_glide_evdw>  (277) 
-20.591

>  <r_i_glide_ecoul>  (277) 
-0.846409

>  <r_i_glide_erotb>  (277) 
0

>  <r_i_glide_esite>  (277) 
0

>  <r_i_glide_emodel>  (277) 
-26.9515

>  <r_i_glide_energy>  (277) 
-21.4374

>  <r_i_glide_einternal>  (277) 
4.62017

>  <r_i_glide_intrahb_reward>  (277) 
-0

>  <i_i_glide_confnum>  (277) 
1

>  <i_i_glide_posenum>  (277) 
6

>  <r_i_glide_eff_state_penalty>  (277) 
0

>  <ligand_id>  (277) 
68

>  <original_smiles>  (277) 
COc1ccc2nc(C)sc2c1

>  <smiles>  (277) 
[H]c1c(OC([H])([H])[H])c([H])c2sc(C([H])([H])[H])nc2c1[H]

$$$$
68:0:1
     RDKit          3D

 21 22  0  0  1  0  0  0  0  0999 V2000
   -9.7096   -8.8323  -10.2282 C   0  0  0  0  0  0  0  0  0  0  0  0
  -10.2952   -7.6073   -9.8219 O   0  0  0  0  0  0  0  0  0  0  0  0
   -9.7336   -6.9201   -8.7681 C   0  0  0  0  0  0  0  0  0  0  0  0
  -10.4247   -5.7729   -8.3332 C   0  0  0  0  0  0  0  0  0  0  0  0
   -9.9326   -4.9914   -7.2723 C   0  0  0  0  0  0  0  0  0  0  0  0
   -8.7431   -5.3398   -6.6011 C   0  0  0  0  0  0  0  0  0  0  0  0
   -8.1785   -4.6571   -5.5331 N   0  0  0  0  0  0  0  0  0  0  0  0
   -7.0725   -5.2866   -5.1245 C   0  0  0  0  0  0  0  0  0  0  0  0
   -6.2539   -4.7683   -3.9957 C   0  0  0  0  0  0  0  0  0  0  0  0
   -6.6482   -6.7723   -5.9899 S   0  0  0  0  0  0  0  0  0  0  0  0
   -8.0585   -6.5113   -7.0283 C   0  0  0  0  0  0  0  0  0  0  0  0
   -8.5389   -7.2883   -8.1023 C   0  0  0  0  0  0  0  0  0  0  0  0
  -10.2792   -9.2372  -11.0677 H   0  0  0  0  0  0  0  0  0  0  0  0
   -9.7390   -9.5690   -9.4240 H   0  0  0  0  0  0  0  0  0  0  0  0
   -8.6811   -8.6961  -10.5649 H   0  0  0  0  0  0  0  0  0  0  0  0
  -11.3544   -5.4999   -8.8153 H   0  0  0  0  0  0  0  0  0  0  0  0
  -10.4847   -4.1288   -6.9345 H   0  0  0  0  0  0  0  0  0  0  0  0
   -6.7074   -3.8649   -3.5843 H   0  0  0  0  0  0  0  0  0  0  0  0
   -5.2493   -4.5193   -4.3417 H   0  0  0  0  0  0  0  0  0  0  0  0
   -6.1935   -5.5220   -3.2089 H   0  0  0  0  0  0  0  0  0  0  0  0
   -7.9873   -8.1682   -8.3860 H   0  0  0  0  0  0  0  0  0  0  0  0
  1  2  1  0
  1 13  1  0
  1 14  1  0
  1 15  1  0
  2  3  1  0
  3 12  2  0
  3  4  1  0
  4  5  2  0
  4 16  1  0
  5  6  1  0
  5 17  1  0
  6 11  2  0
  6  7  1  0
  7  8  2  0
  8  9  1  0
  8 10  1  0
  9 18  1  0
  9 19  1  0
  9 20  1  0
 10 11  1  0
 11 12  1  0
 12 21  1  0
M  END
>  <i_m_ct_stereo_status>  (278) 
1

>  <s_m_source_file>  (278) 
/var/tmp/pbs.5076255.sched01/tmp7rmqr72f/92ch8atech.sdf

>  <i_m_source_file_index>  (278) 
14

>  <i_lp_mmshare_version>  (278) 
48012

>  <i_f3d_flags>  (278) 
0

>  <s_epik_input>  (278) 
W0NIM11PYyhbY0hdW2NIXTEpW2NIXWMoYzEyKXNjKG4yKVtDSDNd

>  <s_epik_cmdline>  (278) 
J2VwaWtfcHl0aG9uJywgJy1waHQnLCAnMi4wJywgJy1waCcsICc3LjAnLCAnLXRuJywgJzgnLCAnLW1hJywgJzIwMCcsICctaW1hZScsICc8aW5maWxlLm1hZT4nLCAnLW9tYWUnLCAnPG91dGZpbGUubWFlPic=

>  <r_lp_tautomer_probability>  (278) 
1

>  <r_epik_Ionization_Penalty>  (278) 
2.51174e-05

>  <r_epik_Ionization_Penalty_Charging>  (278) 
0

>  <r_epik_Ionization_Penalty_Neutral>  (278) 
2.51174e-05

>  <r_epik_State_Penalty>  (278) 
-0

>  <r_epik_Charging_Adjusted_Penalty>  (278) 
0

>  <i_epik_Tot_Q>  (278) 
0

>  <i_epik_Tot_abs_Q>  (278) 
0

>  <s_lp_Force_Field>  (278) 
OPLS3e

>  <r_lp_Energy>  (278) 
12.8655

>  <b_lp_Chiralities_Consistent>  (278) 
1

>  <s_lp_Variant>  (278) 
68:0-1

>  <s_i_glide_gridfile>  (278) 
pfpi4k_grid

>  <i_i_glide_lignum>  (278) 
14

>  <i_i_glide_rotatable_bonds>  (278) 
1

>  <r_i_docking_score>  (278) 
-5.03272

>  <r_i_glide_ligand_efficiency>  (278) 
-0.419393

>  <r_i_glide_ligand_efficiency_sa>  (278) 
-0.960171

>  <r_i_glide_ligand_efficiency_ln>  (278) 
-1.44415

>  <r_i_glide_gscore>  (278) 
-5.03272

>  <r_i_glide_lipo>  (278) 
-1.59399

>  <r_i_glide_hbond>  (278) 
0

>  <r_i_glide_metal>  (278) 
-0

>  <r_i_glide_rewards>  (278) 
-2.44533

>  <r_i_glide_evdw>  (278) 
-20.0996

>  <r_i_glide_ecoul>  (278) 
0.0772542

>  <r_i_glide_erotb>  (278) 
0

>  <r_i_glide_esite>  (278) 
0

>  <r_i_glide_emodel>  (278) 
-27.4724

>  <r_i_glide_energy>  (278) 
-20.0224

>  <r_i_glide_einternal>  (278) 
0.053192

>  <r_i_glide_intrahb_reward>  (278) 
-0

>  <i_i_glide_confnum>  (278) 
1

>  <i_i_glide_posenum>  (278) 
13

>  <r_i_glide_eff_state_penalty>  (278) 
0

>  <ligand_id>  (278) 
68

>  <original_smiles>  (278) 
COc1ccc2nc(C)sc2c1

>  <smiles>  (278) 
[H]c1c(OC([H])([H])[H])c([H])c2sc(C([H])([H])[H])nc2c1[H]

$$$$
68:0:2
     RDKit          3D

 21 22  0  0  1  0  0  0  0  0999 V2000
    3.6666    0.6570   -5.1432 C   0  0  0  0  0  0  0  0  0  0  0  0
    3.5068   -0.7433   -5.0390 O   0  0  0  0  0  0  0  0  0  0  0  0
    3.4461   -1.3004   -3.7808 C   0  0  0  0  0  0  0  0  0  0  0  0
    2.7077   -2.4906   -3.6541 C   0  0  0  0  0  0  0  0  0  0  0  0
    2.5925   -3.1294   -2.4089 C   0  0  0  0  0  0  0  0  0  0  0  0
    3.2266   -2.6372   -1.2586 C   0  0  0  0  0  0  0  0  0  0  0  0
    3.1894   -3.2000    0.0134 N   0  0  0  0  0  0  0  0  0  0  0  0
    3.8993   -2.4525    0.8644 C   0  0  0  0  0  0  0  0  0  0  0  0
    4.0261   -2.8203    2.3018 C   0  0  0  0  0  0  0  0  0  0  0  0
    4.6799   -1.0235    0.1763 S   0  0  0  0  0  0  0  0  0  0  0  0
    3.9845   -1.4447   -1.3925 C   0  0  0  0  0  0  0  0  0  0  0  0
    4.0886   -0.7731   -2.6343 C   0  0  0  0  0  0  0  0  0  0  0  0
    3.6608    0.9124   -6.2003 H   0  0  0  0  0  0  0  0  0  0  0  0
    4.6086    0.9881   -4.7241 H   0  0  0  0  0  0  0  0  0  0  0  0
    2.8422    1.1952   -4.6744 H   0  0  0  0  0  0  0  0  0  0  0  0
    2.2021   -2.9157   -4.5122 H   0  0  0  0  0  0  0  0  0  0  0  0
    2.0053   -4.0308   -2.3385 H   0  0  0  0  0  0  0  0  0  0  0  0
    3.4723   -3.7379    2.4978 H   0  0  0  0  0  0  0  0  0  0  0  0
    3.6203   -2.0228    2.9302 H   0  0  0  0  0  0  0  0  0  0  0  0
    5.0776   -2.9837    2.5523 H   0  0  0  0  0  0  0  0  0  0  0  0
    4.6592    0.1390   -2.6816 H   0  0  0  0  0  0  0  0  0  0  0  0
  1  2  1  0
  1 13  1  0
  1 14  1  0
  1 15  1  0
  2  3  1  0
  3 12  2  0
  3  4  1  0
  4  5  2  0
  4 16  1  0
  5  6  1  0
  5 17  1  0
  6 11  2  0
  6  7  1  0
  7  8  2  0
  8  9  1  0
  8 10  1  0
  9 18  1  0
  9 19  1  0
  9 20  1  0
 10 11  1  0
 11 12  1  0
 12 21  1  0
M  END
>  <i_m_ct_stereo_status>  (279) 
1

>  <s_m_source_file>  (279) 
/var/tmp/pbs.5076255.sched01/tmp7rmqr72f/92ch8atech.sdf

>  <i_m_source_file_index>  (279) 
14

>  <i_lp_mmshare_version>  (279) 
48012

>  <i_f3d_flags>  (279) 
0

>  <s_epik_input>  (279) 
W0NIM11PYyhbY0hdW2NIXTEpW2NIXWMoYzEyKXNjKG4yKVtDSDNd

>  <s_epik_cmdline>  (279) 
J2VwaWtfcHl0aG9uJywgJy1waHQnLCAnMi4wJywgJy1waCcsICc3LjAnLCAnLXRuJywgJzgnLCAnLW1hJywgJzIwMCcsICctaW1hZScsICc8aW5maWxlLm1hZT4nLCAnLW9tYWUnLCAnPG91dGZpbGUubWFlPic=

>  <r_lp_tautomer_probability>  (279) 
1

>  <r_epik_Ionization_Penalty>  (279) 
2.51174e-05

>  <r_epik_Ionization_Penalty_Charging>  (279) 
0

>  <r_epik_Ionization_Penalty_Neutral>  (279) 
2.51174e-05

>  <r_epik_State_Penalty>  (279) 
-0

>  <r_epik_Charging_Adjusted_Penalty>  (279) 
0

>  <i_epik_Tot_Q>  (279) 
0

>  <i_epik_Tot_abs_Q>  (279) 
0

>  <s_lp_Force_Field>  (279) 
OPLS3e

>  <r_lp_Energy>  (279) 
12.8655

>  <b_lp_Chiralities_Consistent>  (279) 
1

>  <s_lp_Variant>  (279) 
68:0-1

>  <s_i_glide_gridfile>  (279) 
pfpi4k_grid

>  <i_i_glide_lignum>  (279) 
14

>  <i_i_glide_rotatable_bonds>  (279) 
1

>  <r_i_docking_score>  (279) 
-4.41971

>  <r_i_glide_ligand_efficiency>  (279) 
-0.368309

>  <r_i_glide_ligand_efficiency_sa>  (279) 
-0.843217

>  <r_i_glide_ligand_efficiency_ln>  (279) 
-1.26824

>  <r_i_glide_gscore>  (279) 
-4.41971

>  <r_i_glide_lipo>  (279) 
-0.670378

>  <r_i_glide_hbond>  (279) 
-0.261391

>  <r_i_glide_metal>  (279) 
-0

>  <r_i_glide_rewards>  (279) 
-2.187

>  <r_i_glide_evdw>  (279) 
-20.2942

>  <r_i_glide_ecoul>  (279) 
-1.9082

>  <r_i_glide_erotb>  (279) 
0

>  <r_i_glide_esite>  (279) 
0

>  <r_i_glide_emodel>  (279) 
-27.8804

>  <r_i_glide_energy>  (279) 
-22.2024

>  <r_i_glide_einternal>  (279) 
1.39372

>  <r_i_glide_intrahb_reward>  (279) 
-0

>  <i_i_glide_confnum>  (279) 
1

>  <i_i_glide_posenum>  (279) 
1

>  <r_i_glide_eff_state_penalty>  (279) 
0

>  <ligand_id>  (279) 
68

>  <original_smiles>  (279) 
COc1ccc2nc(C)sc2c1

>  <smiles>  (279) 
[H]c1c(OC([H])([H])[H])c([H])c2sc(C([H])([H])[H])nc2c1[H]

$$$$
69:0:0
     RDKit          3D

 26 27  0  0  1  0  0  0  0  0999 V2000
   -3.8896    3.2774    2.2488 O   0  0  0  0  0  0  0  0  0  0  0  0
   -2.9064    3.7475    2.8875 C   0  0  0  0  0  0  0  0  0  0  0  0
   -2.5894    4.9416    2.8826 O   0  0  0  0  0  0  0  0  0  0  0  0
   -2.0921    2.7817    3.7690 C   0  0  0  0  0  0  0  0  0  0  0  0
   -0.6356    3.0094    3.6390 N   0  0  0  0  0  0  0  0  0  0  0  0
    0.2514    2.1846    3.0493 C   0  0  0  0  0  0  0  0  0  0  0  0
    0.0502    1.0199    2.7148 O   0  0  0  0  0  0  0  0  0  0  0  0
    1.4088    2.8636    2.8886 N   0  0  0  0  0  0  0  0  0  0  0  0
    1.4302    4.0439    3.6952 C   0  0  0  0  0  0  0  0  0  0  0  0
    1.8329    5.3209    2.9569 C   0  0  0  0  0  0  0  0  0  0  0  0
    2.4909    6.1640    4.0443 C   0  0  0  0  0  0  0  0  0  0  0  0
    3.2182    5.1427    4.9243 C   0  0  0  0  0  0  0  0  0  0  0  0
    2.4248    3.8406    4.8359 C   0  0  0  0  0  0  0  0  0  0  0  0
   -0.0166    4.0807    4.1431 C   0  0  0  0  0  0  0  0  0  0  0  0
   -0.4998    4.9669    4.8469 O   0  0  0  0  0  0  0  0  0  0  0  0
   -2.4200    2.9281    4.7988 H   0  0  0  0  0  0  0  0  0  0  0  0
   -2.3559    1.7606    3.5052 H   0  0  0  0  0  0  0  0  0  0  0  0
    2.2425    2.6171    2.3763 H   0  0  0  0  0  0  0  0  0  0  0  0
    2.5517    5.0927    2.1716 H   0  0  0  0  0  0  0  0  0  0  0  0
    0.9880    5.8297    2.4844 H   0  0  0  0  0  0  0  0  0  0  0  0
    3.1806    6.8865    3.6157 H   0  0  0  0  0  0  0  0  0  0  0  0
    1.7425    6.7105    4.6234 H   0  0  0  0  0  0  0  0  0  0  0  0
    4.2131    4.9730    4.5128 H   0  0  0  0  0  0  0  0  0  0  0  0
    3.3294    5.4711    5.9551 H   0  0  0  0  0  0  0  0  0  0  0  0
    1.9089    3.6088    5.7675 H   0  0  0  0  0  0  0  0  0  0  0  0
    3.0862    2.9975    4.6207 H   0  0  0  0  0  0  0  0  0  0  0  0
  1  2  2  0
  2  3  1  0
  2  4  1  0
  4  5  1  0
  4 16  1  0
  4 17  1  0
  5 14  1  0
  5  6  1  0
  6  7  2  0
  6  8  1  0
  8  9  1  0
  8 18  1  0
  9 13  1  0
  9 10  1  0
  9 14  1  0
 10 11  1  0
 10 19  1  0
 10 20  1  0
 11 12  1  0
 11 21  1  0
 11 22  1  0
 12 13  1  0
 12 23  1  0
 12 24  1  0
 13 25  1  0
 13 26  1  0
 14 15  2  0
M  CHG  1   3  -1
M  END
>  <i_m_ct_stereo_status>  (280) 
1

>  <s_m_source_file>  (280) 
/var/tmp/pbs.5076255.sched01/tmp7rmqr72f/92ch8atech.sdf

>  <i_m_source_file_index>  (280) 
15

>  <i_lp_mmshare_version>  (280) 
48012

>  <i_f3d_flags>  (280) 
0

>  <s_epik_input>  (280) 
Tz1DKFtPSF0pW0NIMl1OKEMxPU8pQyg9TylbTkhdQzEyW0NIMl1bQ0gyXVtDSDJdW0NIMl0y

>  <s_epik_cmdline>  (280) 
J2VwaWtfcHl0aG9uJywgJy1waHQnLCAnMi4wJywgJy1waCcsICc3LjAnLCAnLXRuJywgJzgnLCAnLW1hJywgJzIwMCcsICctaW1hZScsICc8aW5maWxlLm1hZT4nLCAnLW9tYWUnLCAnPG91dGZpbGUubWFlPic=

>  <r_lp_tautomer_probability>  (280) 
1

>  <r_epik_Ionization_Penalty>  (280) 
0.000247256

>  <r_epik_Ionization_Penalty_Charging>  (280) 
0.000208004

>  <r_epik_Ionization_Penalty_Neutral>  (280) 
3.92521e-05

>  <r_epik_State_Penalty>  (280) 
-0

>  <r_epik_Charging_Adjusted_Penalty>  (280) 
0.000208004

>  <i_epik_Tot_Q>  (280) 
-1

>  <i_epik_Tot_abs_Q>  (280) 
1

>  <s_lp_Force_Field>  (280) 
OPLS3e

>  <r_lp_Energy>  (280) 
6.18307

>  <b_lp_Chiralities_Consistent>  (280) 
1

>  <s_lp_Variant>  (280) 
69:0-1

>  <s_i_glide_gridfile>  (280) 
pfpi4k_grid

>  <i_i_glide_lignum>  (280) 
15

>  <i_i_glide_rotatable_bonds>  (280) 
2

>  <r_i_docking_score>  (280) 
-3.99189

>  <r_i_glide_ligand_efficiency>  (280) 
-0.266126

>  <r_i_glide_ligand_efficiency_sa>  (280) 
-0.656324

>  <r_i_glide_ligand_efficiency_ln>  (280) 
-1.07655

>  <r_i_glide_gscore>  (280) 
-3.99189

>  <r_i_glide_lipo>  (280) 
0

>  <r_i_glide_hbond>  (280) 
-0.2

>  <r_i_glide_metal>  (280) 
-0

>  <r_i_glide_rewards>  (280) 
-1.96913

>  <r_i_glide_evdw>  (280) 
-16.7576

>  <r_i_glide_ecoul>  (280) 
-4.31715

>  <r_i_glide_erotb>  (280) 
0

>  <r_i_glide_esite>  (280) 
-0.337316

>  <r_i_glide_emodel>  (280) 
-27.4595

>  <r_i_glide_energy>  (280) 
-21.0747

>  <r_i_glide_einternal>  (280) 
1.74545

>  <r_i_glide_intrahb_reward>  (280) 
-0

>  <i_i_glide_confnum>  (280) 
3

>  <i_i_glide_posenum>  (280) 
4

>  <r_i_glide_eff_state_penalty>  (280) 
0

>  <ligand_id>  (280) 
69

>  <original_smiles>  (280) 
O=C(O)CN1C(=O)NC2(CCCC2)C1=O

>  <smiles>  (280) 
[H]N1C(=O)N(C([H])([H])C(=O)[O-])C(=O)C12C([H])([H])C([H])([H])C([H])([H])C2([H])[H]

$$$$
69:0:1
     RDKit          3D

 26 27  0  0  1  0  0  0  0  0999 V2000
   -1.7702    4.7094    3.7622 O   0  0  0  0  0  0  0  0  0  0  0  0
   -1.9524    3.6123    4.3364 C   0  0  0  0  0  0  0  0  0  0  0  0
   -2.9976    2.9403    4.2645 O   0  0  0  0  0  0  0  0  0  0  0  0
   -0.8460    3.0569    5.2358 C   0  0  0  0  0  0  0  0  0  0  0  0
   -1.2197    3.0695    6.6574 N   0  0  0  0  0  0  0  0  0  0  0  0
   -1.6199    2.0284    7.4193 C   0  0  0  0  0  0  0  0  0  0  0  0
   -2.0885    0.9519    6.9639 O   0  0  0  0  0  0  0  0  0  0  0  0
   -1.4378    2.2949    8.6990 N   0  0  0  0  0  0  0  0  0  0  0  0
   -1.1903    3.7001    8.8946 C   0  0  0  0  0  0  0  0  0  0  0  0
    0.0002    4.0138    9.8006 C   0  0  0  0  0  0  0  0  0  0  0  0
   -0.3773    5.3561   10.4239 C   0  0  0  0  0  0  0  0  0  0  0  0
   -1.8938    5.2700   10.6188 C   0  0  0  0  0  0  0  0  0  0  0  0
   -2.4269    4.3484    9.5219 C   0  0  0  0  0  0  0  0  0  0  0  0
   -0.9503    4.1152    7.4590 C   0  0  0  0  0  0  0  0  0  0  0  0
   -0.5704    5.2376    7.1126 O   0  0  0  0  0  0  0  0  0  0  0  0
   -0.6234    2.0408    4.9016 H   0  0  0  0  0  0  0  0  0  0  0  0
    0.0703    3.6259    5.0516 H   0  0  0  0  0  0  0  0  0  0  0  0
   -1.5888    1.7353    9.5395 H   0  0  0  0  0  0  0  0  0  0  0  0
    0.0942    3.2582   10.5798 H   0  0  0  0  0  0  0  0  0  0  0  0
    0.9500    4.0558    9.2627 H   0  0  0  0  0  0  0  0  0  0  0  0
    0.1375    5.5093   11.3691 H   0  0  0  0  0  0  0  0  0  0  0  0
   -0.1224    6.1849    9.7595 H   0  0  0  0  0  0  0  0  0  0  0  0
   -2.0982    4.8139   11.5888 H   0  0  0  0  0  0  0  0  0  0  0  0
   -2.3829    6.2423   10.5981 H   0  0  0  0  0  0  0  0  0  0  0  0
   -3.0078    4.8952    8.7783 H   0  0  0  0  0  0  0  0  0  0  0  0
   -3.0925    3.5921    9.9467 H   0  0  0  0  0  0  0  0  0  0  0  0
  1  2  2  0
  2  3  1  0
  2  4  1  0
  4  5  1  0
  4 16  1  0
  4 17  1  0
  5 14  1  0
  5  6  1  0
  6  7  2  0
  6  8  1  0
  8  9  1  0
  8 18  1  0
  9 13  1  0
  9 10  1  0
  9 14  1  0
 10 11  1  0
 10 19  1  0
 10 20  1  0
 11 12  1  0
 11 21  1  0
 11 22  1  0
 12 13  1  0
 12 23  1  0
 12 24  1  0
 13 25  1  0
 13 26  1  0
 14 15  2  0
M  CHG  1   3  -1
M  END
>  <i_m_ct_stereo_status>  (281) 
1

>  <s_m_source_file>  (281) 
/var/tmp/pbs.5076255.sched01/tmp7rmqr72f/92ch8atech.sdf

>  <i_m_source_file_index>  (281) 
15

>  <i_lp_mmshare_version>  (281) 
48012

>  <i_f3d_flags>  (281) 
0

>  <s_epik_input>  (281) 
Tz1DKFtPSF0pW0NIMl1OKEMxPU8pQyg9TylbTkhdQzEyW0NIMl1bQ0gyXVtDSDJdW0NIMl0y

>  <s_epik_cmdline>  (281) 
J2VwaWtfcHl0aG9uJywgJy1waHQnLCAnMi4wJywgJy1waCcsICc3LjAnLCAnLXRuJywgJzgnLCAnLW1hJywgJzIwMCcsICctaW1hZScsICc8aW5maWxlLm1hZT4nLCAnLW9tYWUnLCAnPG91dGZpbGUubWFlPic=

>  <r_lp_tautomer_probability>  (281) 
1

>  <r_epik_Ionization_Penalty>  (281) 
0.000247256

>  <r_epik_Ionization_Penalty_Charging>  (281) 
0.000208004

>  <r_epik_Ionization_Penalty_Neutral>  (281) 
3.92521e-05

>  <r_epik_State_Penalty>  (281) 
-0

>  <r_epik_Charging_Adjusted_Penalty>  (281) 
0.000208004

>  <i_epik_Tot_Q>  (281) 
-1

>  <i_epik_Tot_abs_Q>  (281) 
1

>  <s_lp_Force_Field>  (281) 
OPLS3e

>  <r_lp_Energy>  (281) 
6.18307

>  <b_lp_Chiralities_Consistent>  (281) 
1

>  <s_lp_Variant>  (281) 
69:0-1

>  <s_i_glide_gridfile>  (281) 
pfpi4k_grid

>  <i_i_glide_lignum>  (281) 
15

>  <i_i_glide_rotatable_bonds>  (281) 
2

>  <r_i_docking_score>  (281) 
-3.95569

>  <r_i_glide_ligand_efficiency>  (281) 
-0.263713

>  <r_i_glide_ligand_efficiency_sa>  (281) 
-0.650372

>  <r_i_glide_ligand_efficiency_ln>  (281) 
-1.06679

>  <r_i_glide_gscore>  (281) 
-3.95569

>  <r_i_glide_lipo>  (281) 
0

>  <r_i_glide_hbond>  (281) 
-0.36

>  <r_i_glide_metal>  (281) 
-0

>  <r_i_glide_rewards>  (281) 
-1.99782

>  <r_i_glide_evdw>  (281) 
-12.5108

>  <r_i_glide_ecoul>  (281) 
-5.85815

>  <r_i_glide_erotb>  (281) 
0

>  <r_i_glide_esite>  (281) 
-0.093608

>  <r_i_glide_emodel>  (281) 
-26.6086

>  <r_i_glide_energy>  (281) 
-18.369

>  <r_i_glide_einternal>  (281) 
0.129903

>  <r_i_glide_intrahb_reward>  (281) 
-0

>  <i_i_glide_confnum>  (281) 
3

>  <i_i_glide_posenum>  (281) 
16

>  <r_i_glide_eff_state_penalty>  (281) 
0

>  <ligand_id>  (281) 
69

>  <original_smiles>  (281) 
O=C(O)CN1C(=O)NC2(CCCC2)C1=O

>  <smiles>  (281) 
[H]N1C(=O)N(C([H])([H])C(=O)[O-])C(=O)C12C([H])([H])C([H])([H])C([H])([H])C2([H])[H]

$$$$
69:0:2
     RDKit          3D

 26 27  0  0  1  0  0  0  0  0999 V2000
   -2.0696    2.4819    7.4828 O   0  0  0  0  0  0  0  0  0  0  0  0
   -2.1592    1.7382    6.4759 C   0  0  0  0  0  0  0  0  0  0  0  0
   -2.3136    0.4999    6.4804 O   0  0  0  0  0  0  0  0  0  0  0  0
   -2.1884    2.4567    5.1299 C   0  0  0  0  0  0  0  0  0  0  0  0
   -0.8524    2.4877    4.5050 N   0  0  0  0  0  0  0  0  0  0  0  0
   -0.0836    3.6039    4.3438 C   0  0  0  0  0  0  0  0  0  0  0  0
   -0.4463    4.7925    4.4442 O   0  0  0  0  0  0  0  0  0  0  0  0
    1.1225    3.2453    3.9078 N   0  0  0  0  0  0  0  0  0  0  0  0
    1.1751    1.8239    3.5638 C   0  0  0  0  0  0  0  0  0  0  0  0
    2.2905    0.9746    4.2389 C   0  0  0  0  0  0  0  0  0  0  0  0
    2.5944   -0.1140    3.2008 C   0  0  0  0  0  0  0  0  0  0  0  0
    2.4438    0.5904    1.8478 C   0  0  0  0  0  0  0  0  0  0  0  0
    1.4051    1.7008    2.0548 C   0  0  0  0  0  0  0  0  0  0  0  0
   -0.2677    1.3811    3.9986 C   0  0  0  0  0  0  0  0  0  0  0  0
   -0.6582    0.2188    3.8925 O   0  0  0  0  0  0  0  0  0  0  0  0
   -2.8211    1.9560    4.4103 H   0  0  0  0  0  0  0  0  0  0  0  0
   -2.5466    3.4717    5.2396 H   0  0  0  0  0  0  0  0  0  0  0  0
    1.9706    3.8529    3.8347 H   0  0  0  0  0  0  0  0  0  0  0  0
    3.1705    1.6009    4.4189 H   0  0  0  0  0  0  0  0  0  0  0  0
    1.9613    0.5693    5.2009 H   0  0  0  0  0  0  0  0  0  0  0  0
    3.5810   -0.5445    3.3601 H   0  0  0  0  0  0  0  0  0  0  0  0
    1.8509   -0.9033    3.2927 H   0  0  0  0  0  0  0  0  0  0  0  0
    3.4015    1.0444    1.5866 H   0  0  0  0  0  0  0  0  0  0  0  0
    2.1649   -0.0966    1.0462 H   0  0  0  0  0  0  0  0  0  0  0  0
    0.4880    1.4916    1.4936 H   0  0  0  0  0  0  0  0  0  0  0  0
    1.7988    2.6427    1.6532 H   0  0  0  0  0  0  0  0  0  0  0  0
  1  2  2  0
  2  3  1  0
  2  4  1  0
  4  5  1  0
  4 16  1  0
  4 17  1  0
  5 14  1  0
  5  6  1  0
  6  7  2  0
  6  8  1  0
  8  9  1  0
  8 18  1  0
  9 13  1  0
  9 10  1  0
  9 14  1  0
 10 11  1  0
 10 19  1  0
 10 20  1  0
 11 12  1  0
 11 21  1  0
 11 22  1  0
 12 13  1  0
 12 23  1  0
 12 24  1  0
 13 25  1  0
 13 26  1  0
 14 15  2  0
M  CHG  1   3  -1
M  END
>  <i_m_ct_stereo_status>  (282) 
1

>  <s_m_source_file>  (282) 
/var/tmp/pbs.5076255.sched01/tmp7rmqr72f/92ch8atech.sdf

>  <i_m_source_file_index>  (282) 
15

>  <i_lp_mmshare_version>  (282) 
48012

>  <i_f3d_flags>  (282) 
0

>  <s_epik_input>  (282) 
Tz1DKFtPSF0pW0NIMl1OKEMxPU8pQyg9TylbTkhdQzEyW0NIMl1bQ0gyXVtDSDJdW0NIMl0y

>  <s_epik_cmdline>  (282) 
J2VwaWtfcHl0aG9uJywgJy1waHQnLCAnMi4wJywgJy1waCcsICc3LjAnLCAnLXRuJywgJzgnLCAnLW1hJywgJzIwMCcsICctaW1hZScsICc8aW5maWxlLm1hZT4nLCAnLW9tYWUnLCAnPG91dGZpbGUubWFlPic=

>  <r_lp_tautomer_probability>  (282) 
1

>  <r_epik_Ionization_Penalty>  (282) 
0.000247256

>  <r_epik_Ionization_Penalty_Charging>  (282) 
0.000208004

>  <r_epik_Ionization_Penalty_Neutral>  (282) 
3.92521e-05

>  <r_epik_State_Penalty>  (282) 
-0

>  <r_epik_Charging_Adjusted_Penalty>  (282) 
0.000208004

>  <i_epik_Tot_Q>  (282) 
-1

>  <i_epik_Tot_abs_Q>  (282) 
1

>  <s_lp_Force_Field>  (282) 
OPLS3e

>  <r_lp_Energy>  (282) 
6.18307

>  <b_lp_Chiralities_Consistent>  (282) 
1

>  <s_lp_Variant>  (282) 
69:0-1

>  <s_i_glide_gridfile>  (282) 
pfpi4k_grid

>  <i_i_glide_lignum>  (282) 
15

>  <i_i_glide_rotatable_bonds>  (282) 
2

>  <r_i_docking_score>  (282) 
-3.78544

>  <r_i_glide_ligand_efficiency>  (282) 
-0.252362

>  <r_i_glide_ligand_efficiency_sa>  (282) 
-0.622379

>  <r_i_glide_ligand_efficiency_ln>  (282) 
-1.02087

>  <r_i_glide_gscore>  (282) 
-3.78544

>  <r_i_glide_lipo>  (282) 
0

>  <r_i_glide_hbond>  (282) 
-0.2

>  <r_i_glide_metal>  (282) 
-0

>  <r_i_glide_rewards>  (282) 
-1.96913

>  <r_i_glide_evdw>  (282) 
-15.3049

>  <r_i_glide_ecoul>  (282) 
-4.72047

>  <r_i_glide_erotb>  (282) 
0

>  <r_i_glide_esite>  (282) 
-0.142995

>  <r_i_glide_emodel>  (282) 
-26.35

>  <r_i_glide_energy>  (282) 
-20.0254

>  <r_i_glide_einternal>  (282) 
1.45667

>  <r_i_glide_intrahb_reward>  (282) 
-0

>  <i_i_glide_confnum>  (282) 
3

>  <i_i_glide_posenum>  (282) 
2

>  <r_i_glide_eff_state_penalty>  (282) 
0

>  <ligand_id>  (282) 
69

>  <original_smiles>  (282) 
O=C(O)CN1C(=O)NC2(CCCC2)C1=O

>  <smiles>  (282) 
[H]N1C(=O)N(C([H])([H])C(=O)[O-])C(=O)C12C([H])([H])C([H])([H])C([H])([H])C2([H])[H]

$$$$
70:0:0
     RDKit          3D

 47 51  0  0  1  0  0  0  0  0999 V2000
    4.5175    0.0950    1.6192 C   0  0  0  0  0  0  0  0  0  0  0  0
    3.5903   -0.9970    1.1352 C   0  0  0  0  0  0  0  0  0  0  0  0
    3.9033   -2.2815    0.9087 C   0  0  0  0  0  0  0  0  0  0  0  0
    5.3263   -2.8798    1.0576 C   0  0  0  0  0  0  0  0  0  0  0  0
    5.6110   -4.1840    0.3766 N   0  0  1  0  0  0  0  0  0  0  0  0
    6.4456   -5.1478    1.1284 C   0  0  0  0  0  0  0  0  0  0  0  0
    5.7016   -5.9926    2.1893 C   0  0  0  0  0  0  0  0  0  0  0  0
    4.1959   -6.2644    1.9296 C   0  0  2  0  0  0  0  0  0  0  0  0
    3.8673   -6.0857    0.4048 C   0  0  1  0  0  0  0  0  0  0  0  0
    2.4064   -5.8073    0.4832 C   0  0  0  0  0  0  0  0  0  0  0  0
    2.4437   -4.4713    1.2713 C   0  0  2  0  0  0  0  0  0  0  0  0
    3.4551   -4.2175    2.3216 O   0  0  0  0  0  0  0  0  0  0  0  0
    3.2109   -5.4356    2.8899 C   0  0  2  0  0  0  0  0  0  0  0  0
    3.4141   -5.4699    4.3999 C   0  0  0  0  0  0  0  0  0  0  0  0
    1.8865   -4.8621    2.5241 O   0  0  0  0  0  0  0  0  0  0  0  0
    2.8215   -3.2234    0.3880 C   0  0  2  0  0  0  0  0  0  0  0  0
    3.5064   -3.7948   -0.8677 C   0  0  1  0  0  0  0  0  0  0  0  0
    4.1653   -2.8537   -1.7245 O   0  0  0  0  0  0  0  0  0  0  0  0
    3.2993   -2.0594   -2.5356 C   0  0  0  0  0  0  0  0  0  0  0  0
    2.5653   -2.8430   -3.6520 C   0  0  0  0  0  0  0  0  0  0  0  0
    4.5261   -4.8656   -0.3724 C   0  0  1  0  0  0  0  0  0  0  0  0
    4.1073    0.5399    2.5295 H   0  0  0  0  0  0  0  0  0  0  0  0
    4.5724    0.8906    0.8722 H   0  0  0  0  0  0  0  0  0  0  0  0
    5.5279   -0.2605    1.8354 H   0  0  0  0  0  0  0  0  0  0  0  0
    2.5748   -0.6665    0.9546 H   0  0  0  0  0  0  0  0  0  0  0  0
    6.0102   -2.1471    0.6351 H   0  0  0  0  0  0  0  0  0  0  0  0
    5.5484   -2.9344    2.1222 H   0  0  0  0  0  0  0  0  0  0  0  0
    6.8564   -5.8460    0.4023 H   0  0  0  0  0  0  0  0  0  0  0  0
    7.3027   -4.6412    1.5696 H   0  0  0  0  0  0  0  0  0  0  0  0
    6.2272   -6.9441    2.2912 H   0  0  0  0  0  0  0  0  0  0  0  0
    5.8241   -5.4797    3.1363 H   0  0  0  0  0  0  0  0  0  0  0  0
    4.0106   -7.3108    2.1683 H   0  0  0  0  0  0  0  0  0  0  0  0
    4.0751   -7.0074   -0.1299 H   0  0  0  0  0  0  0  0  0  0  0  0
    1.8731   -5.7562   -0.4582 H   0  0  0  0  0  0  0  0  0  0  0  0
    1.8773   -6.6017    1.0132 H   0  0  0  0  0  0  0  0  0  0  0  0
    2.6767   -4.8498    4.9069 H   0  0  0  0  0  0  0  0  0  0  0  0
    4.3912   -5.0953    4.6869 H   0  0  0  0  0  0  0  0  0  0  0  0
    3.3155   -6.4803    4.7885 H   0  0  0  0  0  0  0  0  0  0  0  0
    1.9283   -2.6770    0.0965 H   0  0  0  0  0  0  0  0  0  0  0  0
    2.7532   -4.2542   -1.4665 H   0  0  0  0  0  0  0  0  0  0  0  0
    2.6148   -1.4919   -1.9202 H   0  0  0  0  0  0  0  0  0  0  0  0
    3.9331   -1.3109   -3.0063 H   0  0  0  0  0  0  0  0  0  0  0  0
    1.9968   -2.1713   -4.2960 H   0  0  0  0  0  0  0  0  0  0  0  0
    1.8244   -3.5571   -3.2909 H   0  0  0  0  0  0  0  0  0  0  0  0
    3.2795   -3.3899   -4.2697 H   0  0  0  0  0  0  0  0  0  0  0  0
    4.9841   -5.3058   -1.2595 H   0  0  0  0  0  0  0  0  0  0  0  0
    6.1901   -3.8742   -0.3960 H   0  0  0  0  0  0  0  0  0  0  0  0
  1  2  1  0
  1 22  1  0
  1 23  1  0
  1 24  1  0
  2  3  2  3
  2 25  1  0
  3 16  1  0
  3  4  1  0
  4  5  1  0
  4 26  1  0
  4 27  1  0
  5 21  1  0
  5  6  1  0
  5 47  1  6
  6  7  1  0
  6 28  1  0
  6 29  1  0
  7  8  1  0
  7 30  1  0
  7 31  1  0
  8 13  1  0
  8  9  1  0
  8 32  1  1
  9 21  1  0
  9 10  1  0
  9 33  1  6
 10 11  1  0
 10 34  1  0
 10 35  1  0
 11 15  1  1
 11 12  1  0
 11 16  1  0
 12 13  1  0
 13 14  1  1
 13 15  1  0
 14 36  1  0
 14 37  1  0
 14 38  1  0
 16 17  1  0
 16 39  1  6
 17 18  1  0
 17 21  1  0
 17 40  1  6
 18 19  1  0
 19 20  1  0
 19 41  1  0
 19 42  1  0
 20 43  1  0
 20 44  1  0
 20 45  1  0
 21 46  1  6
M  CHG  1   5   1
M  END
>  <i_m_ct_stereo_status>  (283) 
1

>  <s_m_source_file>  (283) 
/var/tmp/pbs.5076255.sched01/tmp7rmqr72f/92ch8atech.sdf

>  <i_m_source_file_index>  (283) 
16

>  <i_lp_mmshare_version>  (283) 
48012

>  <i_f3d_flags>  (283) 
0

>  <s_epik_input>  (283) 
W0NIM10vW0NIXT1DKFtDQEBIXTFDMjM0KS9bQ0gyXU41W0NAQEhdKFtDQEhdKFtDSDJdMilbQ0BASF0oW0NIMl1bQ0gyXTUpW0NAQF0oTzMpKE80KVtDSDNdKVtDQEBIXTFPW0NIMl1bQ0gzXQ==

>  <s_epik_cmdline>  (283) 
J2VwaWtfcHl0aG9uJywgJy1waHQnLCAnMi4wJywgJy1waCcsICc3LjAnLCAnLXRuJywgJzgnLCAnLW1hJywgJzIwMCcsICctaW1hZScsICc8aW5maWxlLm1hZT4nLCAnLW9tYWUnLCAnPG91dGZpbGUubWFlPic=

>  <r_epik_Ionization_Penalty>  (283) 
0.322505

>  <r_epik_Ionization_Penalty_Charging>  (283) 
0.322505

>  <r_epik_Ionization_Penalty_Neutral>  (283) 
4.60454e-15

>  <r_epik_State_Penalty>  (283) 
0.317138

>  <r_epik_Charging_Adjusted_Penalty>  (283) 
0.639642

>  <i_epik_Tot_Q>  (283) 
1

>  <i_epik_Tot_abs_Q>  (283) 
1

>  <s_lp_Force_Field>  (283) 
OPLS3e

>  <r_lp_Energy>  (283) 
148.275

>  <b_lp_Chiralities_Consistent>  (283) 
1

>  <s_lp_Variant>  (283) 
70:0-1

>  <s_i_glide_gridfile>  (283) 
pfpi4k_grid

>  <i_i_glide_lignum>  (283) 
16

>  <i_i_glide_rotatable_bonds>  (283) 
2

>  <r_i_docking_score>  (283) 
-3.17464

>  <r_i_glide_ligand_efficiency>  (283) 
-0.151174

>  <r_i_glide_ligand_efficiency_sa>  (283) 
-0.417076

>  <r_i_glide_ligand_efficiency_ln>  (283) 
-0.784924

>  <r_i_glide_gscore>  (283) 
-3.17464

>  <r_i_glide_lipo>  (283) 
-0.575436

>  <r_i_glide_hbond>  (283) 
0

>  <r_i_glide_metal>  (283) 
-0

>  <r_i_glide_rewards>  (283) 
-1.4155

>  <r_i_glide_evdw>  (283) 
-17.417

>  <r_i_glide_ecoul>  (283) 
-3.33599

>  <r_i_glide_erotb>  (283) 
0.213539

>  <r_i_glide_esite>  (283) 
-0.0259948

>  <r_i_glide_emodel>  (283) 
-24.3564

>  <r_i_glide_energy>  (283) 
-20.753

>  <r_i_glide_einternal>  (283) 
0.832411

>  <r_i_glide_intrahb_reward>  (283) 
-0

>  <i_i_glide_confnum>  (283) 
1

>  <i_i_glide_posenum>  (283) 
15

>  <r_i_glide_eff_state_penalty>  (283) 
0

>  <ligand_id>  (283) 
70

>  <original_smiles>  (283) 
CC=C1CN2CCC3C4CC5(OC3(C)O5)C1C(OCC)C42

>  <smiles>  (283) 
[H]C(=C1C2([H])C([H])(OC([H])([H])C([H])([H])[H])C3([H])C4([H])C([H])([H])C25OC(C([H])([H])[H])(O5)C4([H])C([H])([H])C([H])([H])[N+]3([H])C1([H])[H])C([H])([H])[H]

$$$$
70:0:1
     RDKit          3D

 47 51  0  0  1  0  0  0  0  0999 V2000
    4.3871    0.0964    1.5998 C   0  0  0  0  0  0  0  0  0  0  0  0
    3.4797   -1.0041    1.0888 C   0  0  0  0  0  0  0  0  0  0  0  0
    3.8164   -2.2807    0.8155 C   0  0  0  0  0  0  0  0  0  0  0  0
    5.2607   -2.8428    0.9505 C   0  0  0  0  0  0  0  0  0  0  0  0
    5.5755   -4.1384    0.2349 N   0  0  1  0  0  0  0  0  0  0  0  0
    6.4453   -5.0960    0.9709 C   0  0  0  0  0  0  0  0  0  0  0  0
    5.7231   -5.9714    2.0285 C   0  0  0  0  0  0  0  0  0  0  0  0
    4.2235   -6.2953    1.7693 C   0  0  2  0  0  0  0  0  0  0  0  0
    3.8781   -6.0888    0.2403 C   0  0  1  0  0  0  0  0  0  0  0  0
    2.4053   -5.8383    0.3281 C   0  0  0  0  0  0  0  0  0  0  0  0
    2.4211   -4.5262    1.1472 C   0  0  2  0  0  0  0  0  0  0  0  0
    3.4476   -4.2758    2.1903 O   0  0  0  0  0  0  0  0  0  0  0  0
    3.2175   -5.5096    2.7509 C   0  0  2  0  0  0  0  0  0  0  0  0
    3.4409   -5.5701    4.2597 C   0  0  0  0  0  0  0  0  0  0  0  0
    1.8669   -4.9734    2.3973 O   0  0  0  0  0  0  0  0  0  0  0  0
    2.7550   -3.2516    0.2699 C   0  0  2  0  0  0  0  0  0  0  0  0
    3.4473   -3.7797   -1.0207 C   0  0  1  0  0  0  0  0  0  0  0  0
    4.1124   -2.7911   -1.8176 O   0  0  0  0  0  0  0  0  0  0  0  0
    3.2503   -1.9067   -2.5259 C   0  0  0  0  0  0  0  0  0  0  0  0
    4.1027   -0.9218   -3.3318 C   0  0  0  0  0  0  0  0  0  0  0  0
    4.4998   -4.8347   -0.5322 C   0  0  1  0  0  0  0  0  0  0  0  0
    3.9751    0.5160    2.5186 H   0  0  0  0  0  0  0  0  0  0  0  0
    4.4268    0.9035    0.8672 H   0  0  0  0  0  0  0  0  0  0  0  0
    5.4028   -0.2438    1.8059 H   0  0  0  0  0  0  0  0  0  0  0  0
    2.4539   -0.6966    0.9269 H   0  0  0  0  0  0  0  0  0  0  0  0
    5.9423   -2.0938    0.5508 H   0  0  0  0  0  0  0  0  0  0  0  0
    5.4943   -2.9305    2.0117 H   0  0  0  0  0  0  0  0  0  0  0  0
    6.8698   -5.7709    0.2251 H   0  0  0  0  0  0  0  0  0  0  0  0
    7.2911   -4.5716    1.4192 H   0  0  0  0  0  0  0  0  0  0  0  0
    6.2750   -6.9118    2.0972 H   0  0  0  0  0  0  0  0  0  0  0  0
    5.8543   -5.5041    3.0005 H   0  0  0  0  0  0  0  0  0  0  0  0
    4.0869   -7.3561    1.9860 H   0  0  0  0  0  0  0  0  0  0  0  0
    4.0991   -7.0020   -0.3146 H   0  0  0  0  0  0  0  0  0  0  0  0
    1.8760   -5.7692   -0.6200 H   0  0  0  0  0  0  0  0  0  0  0  0
    1.8979   -6.6642    0.8351 H   0  0  0  0  0  0  0  0  0  0  0  0
    2.6921   -4.9819    4.7886 H   0  0  0  0  0  0  0  0  0  0  0  0
    4.4118   -5.1762    4.5526 H   0  0  0  0  0  0  0  0  0  0  0  0
    3.3718   -6.5936    4.6315 H   0  0  0  0  0  0  0  0  0  0  0  0
    1.8395   -2.7205    0.0181 H   0  0  0  0  0  0  0  0  0  0  0  0
    2.7171   -4.2360   -1.6849 H   0  0  0  0  0  0  0  0  0  0  0  0
    2.5903   -2.4610   -3.1959 H   0  0  0  0  0  0  0  0  0  0  0  0
    2.6172   -1.3485   -1.8386 H   0  0  0  0  0  0  0  0  0  0  0  0
    3.4750   -0.2070   -3.8645 H   0  0  0  0  0  0  0  0  0  0  0  0
    4.7118   -1.4443   -4.0684 H   0  0  0  0  0  0  0  0  0  0  0  0
    4.7650   -0.3538   -2.6783 H   0  0  0  0  0  0  0  0  0  0  0  0
    4.9885   -5.2427   -1.4211 H   0  0  0  0  0  0  0  0  0  0  0  0
    6.1592   -3.8029   -0.5177 H   0  0  0  0  0  0  0  0  0  0  0  0
  1  2  1  0
  1 22  1  0
  1 23  1  0
  1 24  1  0
  2  3  2  3
  2 25  1  0
  3 16  1  0
  3  4  1  0
  4  5  1  0
  4 26  1  0
  4 27  1  0
  5 21  1  0
  5  6  1  0
  5 47  1  6
  6  7  1  0
  6 28  1  0
  6 29  1  0
  7  8  1  0
  7 30  1  0
  7 31  1  0
  8 13  1  0
  8  9  1  0
  8 32  1  1
  9 21  1  0
  9 10  1  0
  9 33  1  6
 10 11  1  0
 10 34  1  0
 10 35  1  0
 11 15  1  1
 11 12  1  0
 11 16  1  0
 12 13  1  0
 13 14  1  1
 13 15  1  0
 14 36  1  0
 14 37  1  0
 14 38  1  0
 16 17  1  0
 16 39  1  6
 17 18  1  0
 17 21  1  0
 17 40  1  6
 18 19  1  0
 19 20  1  0
 19 41  1  0
 19 42  1  0
 20 43  1  0
 20 44  1  0
 20 45  1  0
 21 46  1  6
M  CHG  1   5   1
M  END
>  <i_m_ct_stereo_status>  (284) 
1

>  <s_m_source_file>  (284) 
/var/tmp/pbs.5076255.sched01/tmp7rmqr72f/92ch8atech.sdf

>  <i_m_source_file_index>  (284) 
16

>  <i_lp_mmshare_version>  (284) 
48012

>  <i_f3d_flags>  (284) 
0

>  <s_epik_input>  (284) 
W0NIM10vW0NIXT1DKFtDQEBIXTFDMjM0KS9bQ0gyXU41W0NAQEhdKFtDQEhdKFtDSDJdMilbQ0BASF0oW0NIMl1bQ0gyXTUpW0NAQF0oTzMpKE80KVtDSDNdKVtDQEBIXTFPW0NIMl1bQ0gzXQ==

>  <s_epik_cmdline>  (284) 
J2VwaWtfcHl0aG9uJywgJy1waHQnLCAnMi4wJywgJy1waCcsICc3LjAnLCAnLXRuJywgJzgnLCAnLW1hJywgJzIwMCcsICctaW1hZScsICc8aW5maWxlLm1hZT4nLCAnLW9tYWUnLCAnPG91dGZpbGUubWFlPic=

>  <r_epik_Ionization_Penalty>  (284) 
0.322505

>  <r_epik_Ionization_Penalty_Charging>  (284) 
0.322505

>  <r_epik_Ionization_Penalty_Neutral>  (284) 
4.60454e-15

>  <r_epik_State_Penalty>  (284) 
0.317138

>  <r_epik_Charging_Adjusted_Penalty>  (284) 
0.639642

>  <i_epik_Tot_Q>  (284) 
1

>  <i_epik_Tot_abs_Q>  (284) 
1

>  <s_lp_Force_Field>  (284) 
OPLS3e

>  <r_lp_Energy>  (284) 
148.275

>  <b_lp_Chiralities_Consistent>  (284) 
1

>  <s_lp_Variant>  (284) 
70:0-1

>  <s_i_glide_gridfile>  (284) 
pfpi4k_grid

>  <i_i_glide_lignum>  (284) 
16

>  <i_i_glide_rotatable_bonds>  (284) 
2

>  <r_i_docking_score>  (284) 
-3.07226

>  <r_i_glide_ligand_efficiency>  (284) 
-0.146298

>  <r_i_glide_ligand_efficiency_sa>  (284) 
-0.403626

>  <r_i_glide_ligand_efficiency_ln>  (284) 
-0.759611

>  <r_i_glide_gscore>  (284) 
-3.07226

>  <r_i_glide_lipo>  (284) 
-0.496096

>  <r_i_glide_hbond>  (284) 
0

>  <r_i_glide_metal>  (284) 
-0

>  <r_i_glide_rewards>  (284) 
-1.4155

>  <r_i_glide_evdw>  (284) 
-16.505

>  <r_i_glide_ecoul>  (284) 
-3.4614

>  <r_i_glide_erotb>  (284) 
0.213539

>  <r_i_glide_esite>  (284) 
-0.0297492

>  <r_i_glide_emodel>  (284) 
-24.0717

>  <r_i_glide_energy>  (284) 
-19.9664

>  <r_i_glide_einternal>  (284) 
0.00770687

>  <r_i_glide_intrahb_reward>  (284) 
-0

>  <i_i_glide_confnum>  (284) 
1

>  <i_i_glide_posenum>  (284) 
16

>  <r_i_glide_eff_state_penalty>  (284) 
0

>  <ligand_id>  (284) 
70

>  <original_smiles>  (284) 
CC=C1CN2CCC3C4CC5(OC3(C)O5)C1C(OCC)C42

>  <smiles>  (284) 
[H]C(=C1C2([H])C([H])(OC([H])([H])C([H])([H])[H])C3([H])C4([H])C([H])([H])C25OC(C([H])([H])[H])(O5)C4([H])C([H])([H])C([H])([H])[N+]3([H])C1([H])[H])C([H])([H])[H]

$$$$
70:0:2
     RDKit          3D

 47 51  0  0  1  0  0  0  0  0999 V2000
    5.6287   -0.5048    1.7631 C   0  0  0  0  0  0  0  0  0  0  0  0
    4.4710   -1.4167    1.4357 C   0  0  0  0  0  0  0  0  0  0  0  0
    4.5164   -2.7560    1.2411 C   0  0  0  0  0  0  0  0  0  0  0  0
    5.8033   -3.5799    1.4139 C   0  0  0  0  0  0  0  0  0  0  0  0
    5.8083   -4.9943    0.8317 N   0  0  1  0  0  0  0  0  0  0  0  0
    6.4692   -6.0437    1.6671 C   0  0  0  0  0  0  0  0  0  0  0  0
    5.5939   -6.6115    2.8078 C   0  0  0  0  0  0  0  0  0  0  0  0
    4.0548   -6.6298    2.5811 C   0  0  2  0  0  0  0  0  0  0  0  0
    3.7269   -6.5161    1.0364 C   0  0  1  0  0  0  0  0  0  0  0  0
    2.3572   -5.9487    1.0979 C   0  0  0  0  0  0  0  0  0  0  0  0
    2.6616   -4.5780    1.7868 C   0  0  2  0  0  0  0  0  0  0  0  0
    3.7630   -4.4645    2.8003 O   0  0  0  0  0  0  0  0  0  0  0  0
    3.2613   -5.5520    3.4843 C   0  0  2  0  0  0  0  0  0  0  0  0
    3.4997   -5.4771    4.9883 C   0  0  0  0  0  0  0  0  0  0  0  0
    2.0469   -4.7660    3.0745 O   0  0  0  0  0  0  0  0  0  0  0  0
    3.2458   -3.4927    0.7917 C   0  0  2  0  0  0  0  0  0  0  0  0
    3.7676   -4.2864   -0.4437 C   0  0  1  0  0  0  0  0  0  0  0  0
    4.5960   -3.5365   -1.3452 O   0  0  0  0  0  0  0  0  0  0  0  0
    3.9441   -2.6589   -2.2531 C   0  0  0  0  0  0  0  0  0  0  0  0
    3.6467   -1.3008   -1.6233 C   0  0  0  0  0  0  0  0  0  0  0  0
    4.5786   -5.5054    0.1332 C   0  0  1  0  0  0  0  0  0  0  0  0
    5.3614    0.1274    2.6168 H   0  0  0  0  0  0  0  0  0  0  0  0
    5.7884    0.1629    0.9082 H   0  0  0  0  0  0  0  0  0  0  0  0
    6.5766   -1.0105    1.9849 H   0  0  0  0  0  0  0  0  0  0  0  0
    3.5208   -0.9148    1.3193 H   0  0  0  0  0  0  0  0  0  0  0  0
    6.6014   -3.0537    0.9168 H   0  0  0  0  0  0  0  0  0  0  0  0
    6.0552   -3.6296    2.4694 H   0  0  0  0  0  0  0  0  0  0  0  0
    6.7183   -6.8588    0.9899 H   0  0  0  0  0  0  0  0  0  0  0  0
    7.4074   -5.6541    2.0632 H   0  0  0  0  0  0  0  0  0  0  0  0
    5.9220   -7.6337    2.9888 H   0  0  0  0  0  0  0  0  0  0  0  0
    5.8289   -6.0546    3.7049 H   0  0  0  0  0  0  0  0  0  0  0  0
    3.6752   -7.5998    2.9046 H   0  0  0  0  0  0  0  0  0  0  0  0
    3.7507   -7.4980    0.5806 H   0  0  0  0  0  0  0  0  0  0  0  0
    1.8487   -5.8653    0.1529 H   0  0  0  0  0  0  0  0  0  0  0  0
    1.6955   -6.5819    1.6902 H   0  0  0  0  0  0  0  0  0  0  0  0
    2.9020   -4.6729    5.4171 H   0  0  0  0  0  0  0  0  0  0  0  0
    4.5369   -5.2683    5.2238 H   0  0  0  0  0  0  0  0  0  0  0  0
    3.2040   -6.4062    5.4545 H   0  0  0  0  0  0  0  0  0  0  0  0
    2.4457   -2.8142    0.5107 H   0  0  0  0  0  0  0  0  0  0  0  0
    2.9540   -4.6567   -1.0517 H   0  0  0  0  0  0  0  0  0  0  0  0
    4.6184   -2.5098   -3.0959 H   0  0  0  0  0  0  0  0  0  0  0  0
    3.0477   -3.1010   -2.6646 H   0  0  0  0  0  0  0  0  0  0  0  0
    3.2158   -0.6048   -2.3500 H   0  0  0  0  0  0  0  0  0  0  0  0
    4.5649   -0.8284   -1.2664 H   0  0  0  0  0  0  0  0  0  0  0  0
    2.9774   -1.4003   -0.7977 H   0  0  0  0  0  0  0  0  0  0  0  0
    4.9449   -6.0989   -0.7146 H   0  0  0  0  0  0  0  0  0  0  0  0
    6.4331   -4.8616    0.0367 H   0  0  0  0  0  0  0  0  0  0  0  0
  1  2  1  0
  1 22  1  0
  1 23  1  0
  1 24  1  0
  2  3  2  3
  2 25  1  0
  3 16  1  0
  3  4  1  0
  4  5  1  0
  4 26  1  0
  4 27  1  0
  5 21  1  0
  5  6  1  0
  5 47  1  6
  6  7  1  0
  6 28  1  0
  6 29  1  0
  7  8  1  0
  7 30  1  0
  7 31  1  0
  8 13  1  0
  8  9  1  0
  8 32  1  1
  9 21  1  0
  9 10  1  0
  9 33  1  6
 10 11  1  0
 10 34  1  0
 10 35  1  0
 11 15  1  1
 11 12  1  0
 11 16  1  0
 12 13  1  0
 13 14  1  1
 13 15  1  0
 14 36  1  0
 14 37  1  0
 14 38  1  0
 16 17  1  0
 16 39  1  6
 17 18  1  0
 17 21  1  0
 17 40  1  6
 18 19  1  0
 19 20  1  0
 19 41  1  0
 19 42  1  0
 20 43  1  0
 20 44  1  0
 20 45  1  0
 21 46  1  6
M  CHG  1   5   1
M  END
>  <i_m_ct_stereo_status>  (285) 
1

>  <s_m_source_file>  (285) 
/var/tmp/pbs.5076255.sched01/tmp7rmqr72f/92ch8atech.sdf

>  <i_m_source_file_index>  (285) 
16

>  <i_lp_mmshare_version>  (285) 
48012

>  <i_f3d_flags>  (285) 
0

>  <s_epik_input>  (285) 
W0NIM10vW0NIXT1DKFtDQEBIXTFDMjM0KS9bQ0gyXU41W0NAQEhdKFtDQEhdKFtDSDJdMilbQ0BASF0oW0NIMl1bQ0gyXTUpW0NAQF0oTzMpKE80KVtDSDNdKVtDQEBIXTFPW0NIMl1bQ0gzXQ==

>  <s_epik_cmdline>  (285) 
J2VwaWtfcHl0aG9uJywgJy1waHQnLCAnMi4wJywgJy1waCcsICc3LjAnLCAnLXRuJywgJzgnLCAnLW1hJywgJzIwMCcsICctaW1hZScsICc8aW5maWxlLm1hZT4nLCAnLW9tYWUnLCAnPG91dGZpbGUubWFlPic=

>  <r_epik_Ionization_Penalty>  (285) 
0.322505

>  <r_epik_Ionization_Penalty_Charging>  (285) 
0.322505

>  <r_epik_Ionization_Penalty_Neutral>  (285) 
4.60454e-15

>  <r_epik_State_Penalty>  (285) 
0.317138

>  <r_epik_Charging_Adjusted_Penalty>  (285) 
0.639642

>  <i_epik_Tot_Q>  (285) 
1

>  <i_epik_Tot_abs_Q>  (285) 
1

>  <s_lp_Force_Field>  (285) 
OPLS3e

>  <r_lp_Energy>  (285) 
148.275

>  <b_lp_Chiralities_Consistent>  (285) 
1

>  <s_lp_Variant>  (285) 
70:0-1

>  <s_i_glide_gridfile>  (285) 
pfpi4k_grid

>  <i_i_glide_lignum>  (285) 
16

>  <i_i_glide_rotatable_bonds>  (285) 
2

>  <r_i_docking_score>  (285) 
-2.67488

>  <r_i_glide_ligand_efficiency>  (285) 
-0.127375

>  <r_i_glide_ligand_efficiency_sa>  (285) 
-0.351419

>  <r_i_glide_ligand_efficiency_ln>  (285) 
-0.66136

>  <r_i_glide_gscore>  (285) 
-2.67488

>  <r_i_glide_lipo>  (285) 
-0.355258

>  <r_i_glide_hbond>  (285) 
0

>  <r_i_glide_metal>  (285) 
-0

>  <r_i_glide_rewards>  (285) 
-1.4155

>  <r_i_glide_evdw>  (285) 
-15.3111

>  <r_i_glide_ecoul>  (285) 
-2.26776

>  <r_i_glide_erotb>  (285) 
0.213539

>  <r_i_glide_esite>  (285) 
-0.0119473

>  <r_i_glide_emodel>  (285) 
-20.223

>  <r_i_glide_energy>  (285) 
-17.5788

>  <r_i_glide_einternal>  (285) 
0.957637

>  <r_i_glide_intrahb_reward>  (285) 
-0

>  <i_i_glide_confnum>  (285) 
1

>  <i_i_glide_posenum>  (285) 
25

>  <r_i_glide_eff_state_penalty>  (285) 
0

>  <ligand_id>  (285) 
70

>  <original_smiles>  (285) 
CC=C1CN2CCC3C4CC5(OC3(C)O5)C1C(OCC)C42

>  <smiles>  (285) 
[H]C(=C1C2([H])C([H])(OC([H])([H])C([H])([H])[H])C3([H])C4([H])C([H])([H])C25OC(C([H])([H])[H])(O5)C4([H])C([H])([H])C([H])([H])[N+]3([H])C1([H])[H])C([H])([H])[H]

$$$$
70:1:0
     RDKit          3D

 46 50  0  0  1  0  0  0  0  0999 V2000
    3.2165    0.7118    2.1538 C   0  0  0  0  0  0  0  0  0  0  0  0
    3.0079   -0.3711    1.1268 C   0  0  0  0  0  0  0  0  0  0  0  0
    3.9553   -1.0821    0.4835 C   0  0  0  0  0  0  0  0  0  0  0  0
    5.4801   -0.9193    0.7692 C   0  0  0  0  0  0  0  0  0  0  0  0
    6.4244   -1.4516   -0.2515 N   0  0  0  0  0  0  0  0  0  0  0  0
    7.6352   -2.0771    0.2767 C   0  0  0  0  0  0  0  0  0  0  0  0
    7.4313   -3.5037    0.8545 C   0  0  0  0  0  0  0  0  0  0  0  0
    6.3522   -4.3930    0.1598 C   0  0  2  0  0  0  0  0  0  0  0  0
    5.9809   -3.7904   -1.2549 C   0  0  1  0  0  0  0  0  0  0  0  0
    4.6297   -4.3762   -1.4379 C   0  0  0  0  0  0  0  0  0  0  0  0
    3.8904   -3.6656   -0.2683 C   0  0  2  0  0  0  0  0  0  0  0  0
    4.5585   -3.3932    1.0254 O   0  0  0  0  0  0  0  0  0  0  0  0
    5.0421   -4.6681    1.0638 C   0  0  2  0  0  0  0  0  0  0  0  0
    5.2073   -5.2690    2.4533 C   0  0  0  0  0  0  0  0  0  0  0  0
    3.6313   -4.7898    0.5915 O   0  0  0  0  0  0  0  0  0  0  0  0
    3.5929   -2.1414   -0.5811 C   0  0  2  0  0  0  0  0  0  0  0  0
    4.4910   -1.7477   -1.7760 C   0  0  1  0  0  0  0  0  0  0  0  0
    4.5367   -0.3915   -2.1718 O   0  0  0  0  0  0  0  0  0  0  0  0
    3.6224    0.0109   -3.1860 C   0  0  0  0  0  0  0  0  0  0  0  0
    3.7781   -0.7336   -4.5238 C   0  0  0  0  0  0  0  0  0  0  0  0
    5.8921   -2.2249   -1.3826 C   0  0  1  0  0  0  0  0  0  0  0  0
    2.6230    0.4720    3.0311 H   0  0  0  0  0  0  0  0  0  0  0  0
    2.8814    1.6782    1.7678 H   0  0  0  0  0  0  0  0  0  0  0  0
    4.2546    0.7829    2.4598 H   0  0  0  0  0  0  0  0  0  0  0  0
    1.9613   -0.5281    0.9070 H   0  0  0  0  0  0  0  0  0  0  0  0
    5.6622    0.1473    0.8723 H   0  0  0  0  0  0  0  0  0  0  0  0
    5.6763   -1.3936    1.7329 H   0  0  0  0  0  0  0  0  0  0  0  0
    8.3516   -2.1748   -0.5419 H   0  0  0  0  0  0  0  0  0  0  0  0
    8.0956   -1.4088    1.0039 H   0  0  0  0  0  0  0  0  0  0  0  0
    8.3946   -4.0220    0.8549 H   0  0  0  0  0  0  0  0  0  0  0  0
    7.1109   -3.3837    1.8833 H   0  0  0  0  0  0  0  0  0  0  0  0
    6.8127   -5.3690    0.0031 H   0  0  0  0  0  0  0  0  0  0  0  0
    6.5807   -4.1048   -2.0997 H   0  0  0  0  0  0  0  0  0  0  0  0
    4.2101   -4.2572   -2.4455 H   0  0  0  0  0  0  0  0  0  0  0  0
    4.6603   -5.4625   -1.3501 H   0  0  0  0  0  0  0  0  0  0  0  0
    4.2491   -5.2881    2.9680 H   0  0  0  0  0  0  0  0  0  0  0  0
    5.8883   -4.6813    3.0593 H   0  0  0  0  0  0  0  0  0  0  0  0
    5.5783   -6.2896    2.4097 H   0  0  0  0  0  0  0  0  0  0  0  0
    2.5908   -2.0581   -0.9188 H   0  0  0  0  0  0  0  0  0  0  0  0
    4.1678   -2.2762   -2.6639 H   0  0  0  0  0  0  0  0  0  0  0  0
    2.6010   -0.0240   -2.8216 H   0  0  0  0  0  0  0  0  0  0  0  0
    3.8389    1.0545   -3.3791 H   0  0  0  0  0  0  0  0  0  0  0  0
    3.2006   -0.2651   -5.3170 H   0  0  0  0  0  0  0  0  0  0  0  0
    3.4702   -1.7847   -4.4606 H   0  0  0  0  0  0  0  0  0  0  0  0
    4.8297   -0.7160   -4.7793 H   0  0  0  0  0  0  0  0  0  0  0  0
    6.5131   -2.0030   -2.2432 H   0  0  0  0  0  0  0  0  0  0  0  0
  1  2  1  0
  1 22  1  0
  1 23  1  0
  1 24  1  0
  2  3  2  3
  2 25  1  0
  3 16  1  0
  3  4  1  0
  4  5  1  0
  4 26  1  0
  4 27  1  0
  5 21  1  0
  5  6  1  0
  6  7  1  0
  6 28  1  0
  6 29  1  0
  7  8  1  0
  7 30  1  0
  7 31  1  0
  8 13  1  0
  8  9  1  0
  8 32  1  6
  9 21  1  0
  9 10  1  0
  9 33  1  6
 10 11  1  0
 10 34  1  0
 10 35  1  0
 11 15  1  1
 11 12  1  0
 11 16  1  0
 12 13  1  0
 13 14  1  1
 13 15  1  0
 14 36  1  0
 14 37  1  0
 14 38  1  0
 16 17  1  0
 16 39  1  6
 17 18  1  0
 17 21  1  0
 17 40  1  6
 18 19  1  0
 19 20  1  0
 19 41  1  0
 19 42  1  0
 20 43  1  0
 20 44  1  0
 20 45  1  0
 21 46  1  6
M  END
>  <i_m_ct_stereo_status>  (286) 
1

>  <s_m_source_file>  (286) 
/var/tmp/pbs.5076255.sched01/tmp7rmqr72f/92ch8atech.sdf

>  <i_m_source_file_index>  (286) 
17

>  <i_lp_mmshare_version>  (286) 
48012

>  <i_f3d_flags>  (286) 
0

>  <s_epik_input>  (286) 
W0NIM10vW0NIXT1DKFtDQEBIXTFDMjM0KS9bQ0gyXU41W0NAQEhdKFtDQEhdKFtDSDJdMilbQ0BASF0oW0NIMl1bQ0gyXTUpW0NAQF0oTzMpKE80KVtDSDNdKVtDQEBIXTFPW0NIMl1bQ0gzXQ==

>  <s_epik_cmdline>  (286) 
J2VwaWtfcHl0aG9uJywgJy1waHQnLCAnMi4wJywgJy1waCcsICc3LjAnLCAnLXRuJywgJzgnLCAnLW1hJywgJzIwMCcsICctaW1hZScsICc8aW5maWxlLm1hZT4nLCAnLW9tYWUnLCAnPG91dGZpbGUubWFlPic=

>  <r_epik_Ionization_Penalty>  (286) 
0.514311

>  <r_epik_Ionization_Penalty_Charging>  (286) 
0

>  <r_epik_Ionization_Penalty_Neutral>  (286) 
0.514311

>  <r_epik_State_Penalty>  (286) 
0.521811

>  <r_epik_Charging_Adjusted_Penalty>  (286) 
0.521811

>  <i_epik_Tot_Q>  (286) 
0

>  <i_epik_Tot_abs_Q>  (286) 
0

>  <s_lp_Force_Field>  (286) 
OPLS3e

>  <r_lp_Energy>  (286) 
149.144

>  <b_lp_Chiralities_Consistent>  (286) 
1

>  <s_lp_Variant>  (286) 
70:0-2

>  <s_i_glide_gridfile>  (286) 
pfpi4k_grid

>  <i_i_glide_lignum>  (286) 
17

>  <i_i_glide_rotatable_bonds>  (286) 
2

>  <r_i_docking_score>  (286) 
-3.23396

>  <r_i_glide_ligand_efficiency>  (286) 
-0.153998

>  <r_i_glide_ligand_efficiency_sa>  (286) 
-0.42487

>  <r_i_glide_ligand_efficiency_ln>  (286) 
-0.799591

>  <r_i_glide_gscore>  (286) 
-3.23396

>  <r_i_glide_lipo>  (286) 
-0.723923

>  <r_i_glide_hbond>  (286) 
-0.0832645

>  <r_i_glide_metal>  (286) 
-0

>  <r_i_glide_rewards>  (286) 
-1.49097

>  <r_i_glide_evdw>  (286) 
-15.6819

>  <r_i_glide_ecoul>  (286) 
-2.44364

>  <r_i_glide_erotb>  (286) 
0.21483

>  <r_i_glide_esite>  (286) 
0

>  <r_i_glide_emodel>  (286) 
-18.8955

>  <r_i_glide_energy>  (286) 
-18.1255

>  <r_i_glide_einternal>  (286) 
2.96917

>  <r_i_glide_intrahb_reward>  (286) 
-0

>  <i_i_glide_confnum>  (286) 
3

>  <i_i_glide_posenum>  (286) 
5

>  <r_i_glide_eff_state_penalty>  (286) 
0

>  <ligand_id>  (286) 
70

>  <original_smiles>  (286) 
CC=C1CN2CCC3C4CC5(OC3(C)O5)C1C(OCC)C42

>  <smiles>  (286) 
[H]C(=C1C([H])([H])N2C([H])([H])C([H])([H])C3([H])C4(C([H])([H])[H])OC5(O4)C([H])([H])C3([H])C2([H])C([H])(OC([H])([H])C([H])([H])[H])C15[H])C([H])([H])[H]

$$$$
70:1:1
     RDKit          3D

 46 50  0  0  1  0  0  0  0  0999 V2000
    2.6370    0.9071    1.8471 C   0  0  0  0  0  0  0  0  0  0  0  0
    2.5365   -0.4031    1.0694 C   0  0  0  0  0  0  0  0  0  0  0  0
    3.5082   -1.0748    0.4614 C   0  0  0  0  0  0  0  0  0  0  0  0
    4.9912   -0.6487    0.5431 C   0  0  0  0  0  0  0  0  0  0  0  0
    5.9370   -1.2099   -0.4691 N   0  0  0  0  0  0  0  0  0  0  0  0
    7.2493   -1.5604    0.0765 C   0  0  0  0  0  0  0  0  0  0  0  0
    7.2598   -2.8311    0.9572 C   0  0  0  0  0  0  0  0  0  0  0  0
    6.3649   -4.0234    0.5436 C   0  0  2  0  0  0  0  0  0  0  0  0
    5.8328   -3.7646   -0.9037 C   0  0  1  0  0  0  0  0  0  0  0  0
    4.5960   -4.5452   -0.8444 C   0  0  0  0  0  0  0  0  0  0  0  0
    3.8211   -3.7194    0.2218 C   0  0  2  0  0  0  0  0  0  0  0  0
    4.5122   -3.1097    1.3967 O   0  0  0  0  0  0  0  0  0  0  0  0
    5.1896   -4.2863    1.6267 C   0  0  2  0  0  0  0  0  0  0  0  0
    5.5246   -4.5320    3.0815 C   0  0  0  0  0  0  0  0  0  0  0  0
    3.7766   -4.6631    1.3129 O   0  0  0  0  0  0  0  0  0  0  0  0
    3.2177   -2.3839   -0.3398 C   0  0  2  0  0  0  0  0  0  0  0  0
    3.9330   -2.1136   -1.6934 C   0  0  1  0  0  0  0  0  0  0  0  0
    3.6336   -0.8434   -2.2660 O   0  0  0  0  0  0  0  0  0  0  0  0
    3.9285   -0.7352   -3.6567 C   0  0  0  0  0  0  0  0  0  0  0  0
    3.4432    0.5900   -4.2122 C   0  0  0  0  0  0  0  0  0  0  0  0
    5.4608   -2.2928   -1.3667 C   0  0  1  0  0  0  0  0  0  0  0  0
    2.1415    0.7767    2.8075 H   0  0  0  0  0  0  0  0  0  0  0  0
    2.0919    1.6743    1.2976 H   0  0  0  0  0  0  0  0  0  0  0  0
    3.6619    1.2332    2.0098 H   0  0  0  0  0  0  0  0  0  0  0  0
    1.5333   -0.7926    1.0368 H   0  0  0  0  0  0  0  0  0  0  0  0
    5.0035    0.4438    0.4792 H   0  0  0  0  0  0  0  0  0  0  0  0
    5.3229   -0.8801    1.5606 H   0  0  0  0  0  0  0  0  0  0  0  0
    7.9389   -1.7457   -0.7518 H   0  0  0  0  0  0  0  0  0  0  0  0
    7.6371   -0.7166    0.6567 H   0  0  0  0  0  0  0  0  0  0  0  0
    8.2891   -3.1699    1.0700 H   0  0  0  0  0  0  0  0  0  0  0  0
    6.9250   -2.4759    1.9216 H   0  0  0  0  0  0  0  0  0  0  0  0
    6.9619   -4.9278    0.4848 H   0  0  0  0  0  0  0  0  0  0  0  0
    6.5175   -4.1552   -1.6558 H   0  0  0  0  0  0  0  0  0  0  0  0
    4.1463   -4.6287   -1.8173 H   0  0  0  0  0  0  0  0  0  0  0  0
    4.7735   -5.5798   -0.5522 H   0  0  0  0  0  0  0  0  0  0  0  0
    4.6150   -4.5929    3.6687 H   0  0  0  0  0  0  0  0  0  0  0  0
    6.1166   -3.7263    3.4908 H   0  0  0  0  0  0  0  0  0  0  0  0
    6.0695   -5.4692    3.1745 H   0  0  0  0  0  0  0  0  0  0  0  0
    2.1717   -2.5718   -0.5198 H   0  0  0  0  0  0  0  0  0  0  0  0
    3.5699   -2.8157   -2.4335 H   0  0  0  0  0  0  0  0  0  0  0  0
    5.0135   -0.8385   -3.8124 H   0  0  0  0  0  0  0  0  0  0  0  0
    3.4382   -1.5314   -4.2173 H   0  0  0  0  0  0  0  0  0  0  0  0
    3.6329    0.6995   -5.2734 H   0  0  0  0  0  0  0  0  0  0  0  0
    3.9282    1.4122   -3.6969 H   0  0  0  0  0  0  0  0  0  0  0  0
    2.3788    0.6091   -4.0602 H   0  0  0  0  0  0  0  0  0  0  0  0
    6.0025   -2.1587   -2.3081 H   0  0  0  0  0  0  0  0  0  0  0  0
  1  2  1  0
  1 22  1  0
  1 23  1  0
  1 24  1  0
  2  3  2  3
  2 25  1  0
  3 16  1  0
  3  4  1  0
  4  5  1  0
  4 26  1  0
  4 27  1  0
  5 21  1  0
  5  6  1  0
  6  7  1  0
  6 28  1  0
  6 29  1  0
  7  8  1  0
  7 30  1  0
  7 31  1  0
  8 13  1  0
  8  9  1  0
  8 32  1  6
  9 21  1  0
  9 10  1  0
  9 33  1  6
 10 11  1  0
 10 34  1  0
 10 35  1  0
 11 15  1  1
 11 12  1  0
 11 16  1  0
 12 13  1  0
 13 14  1  1
 13 15  1  0
 14 36  1  0
 14 37  1  0
 14 38  1  0
 16 17  1  0
 16 39  1  6
 17 18  1  0
 17 21  1  0
 17 40  1  6
 18 19  1  0
 19 20  1  0
 19 41  1  0
 19 42  1  0
 20 43  1  0
 20 44  1  0
 20 45  1  0
 21 46  1  6
M  END
>  <i_m_ct_stereo_status>  (287) 
1

>  <s_m_source_file>  (287) 
/var/tmp/pbs.5076255.sched01/tmp7rmqr72f/92ch8atech.sdf

>  <i_m_source_file_index>  (287) 
17

>  <i_lp_mmshare_version>  (287) 
48012

>  <i_f3d_flags>  (287) 
0

>  <s_epik_input>  (287) 
W0NIM10vW0NIXT1DKFtDQEBIXTFDMjM0KS9bQ0gyXU41W0NAQEhdKFtDQEhdKFtDSDJdMilbQ0BASF0oW0NIMl1bQ0gyXTUpW0NAQF0oTzMpKE80KVtDSDNdKVtDQEBIXTFPW0NIMl1bQ0gzXQ==

>  <s_epik_cmdline>  (287) 
J2VwaWtfcHl0aG9uJywgJy1waHQnLCAnMi4wJywgJy1waCcsICc3LjAnLCAnLXRuJywgJzgnLCAnLW1hJywgJzIwMCcsICctaW1hZScsICc8aW5maWxlLm1hZT4nLCAnLW9tYWUnLCAnPG91dGZpbGUubWFlPic=

>  <r_epik_Ionization_Penalty>  (287) 
0.514311

>  <r_epik_Ionization_Penalty_Charging>  (287) 
0

>  <r_epik_Ionization_Penalty_Neutral>  (287) 
0.514311

>  <r_epik_State_Penalty>  (287) 
0.521811

>  <r_epik_Charging_Adjusted_Penalty>  (287) 
0.521811

>  <i_epik_Tot_Q>  (287) 
0

>  <i_epik_Tot_abs_Q>  (287) 
0

>  <s_lp_Force_Field>  (287) 
OPLS3e

>  <r_lp_Energy>  (287) 
149.144

>  <b_lp_Chiralities_Consistent>  (287) 
1

>  <s_lp_Variant>  (287) 
70:0-2

>  <s_i_glide_gridfile>  (287) 
pfpi4k_grid

>  <i_i_glide_lignum>  (287) 
17

>  <i_i_glide_rotatable_bonds>  (287) 
2

>  <r_i_docking_score>  (287) 
-2.69819

>  <r_i_glide_ligand_efficiency>  (287) 
-0.128485

>  <r_i_glide_ligand_efficiency_sa>  (287) 
-0.354481

>  <r_i_glide_ligand_efficiency_ln>  (287) 
-0.667123

>  <r_i_glide_gscore>  (287) 
-2.69819

>  <r_i_glide_lipo>  (287) 
-0.646495

>  <r_i_glide_hbond>  (287) 
-0.0360102

>  <r_i_glide_metal>  (287) 
-0

>  <r_i_glide_rewards>  (287) 
-1.47513

>  <r_i_glide_evdw>  (287) 
-11.3799

>  <r_i_glide_ecoul>  (287) 
-1.24265

>  <r_i_glide_erotb>  (287) 
0.21483

>  <r_i_glide_esite>  (287) 
0

>  <r_i_glide_emodel>  (287) 
-14.1309

>  <r_i_glide_energy>  (287) 
-12.6226

>  <r_i_glide_einternal>  (287) 
1.17068

>  <r_i_glide_intrahb_reward>  (287) 
-0

>  <i_i_glide_confnum>  (287) 
3

>  <i_i_glide_posenum>  (287) 
2

>  <r_i_glide_eff_state_penalty>  (287) 
0

>  <ligand_id>  (287) 
70

>  <original_smiles>  (287) 
CC=C1CN2CCC3C4CC5(OC3(C)O5)C1C(OCC)C42

>  <smiles>  (287) 
[H]C(=C1C([H])([H])N2C([H])([H])C([H])([H])C3([H])C4(C([H])([H])[H])OC5(O4)C([H])([H])C3([H])C2([H])C([H])(OC([H])([H])C([H])([H])[H])C15[H])C([H])([H])[H]

$$$$
70:1:2
     RDKit          3D

 46 50  0  0  1  0  0  0  0  0999 V2000
    3.0230    0.0609   -3.3487 C   0  0  0  0  0  0  0  0  0  0  0  0
    2.9825   -1.2250   -2.5733 C   0  0  0  0  0  0  0  0  0  0  0  0
    3.8382   -1.7100   -1.6521 C   0  0  0  0  0  0  0  0  0  0  0  0
    5.0433   -0.8718   -1.2015 C   0  0  0  0  0  0  0  0  0  0  0  0
    6.1889   -1.5670   -0.5217 N   0  0  0  0  0  0  0  0  0  0  0  0
    6.7474   -0.8608    0.6126 C   0  0  0  0  0  0  0  0  0  0  0  0
    5.8967   -0.8636    1.8999 C   0  0  0  0  0  0  0  0  0  0  0  0
    5.1098   -2.1755    2.1823 C   0  0  2  0  0  0  0  0  0  0  0  0
    5.6597   -3.3504    1.2745 C   0  0  1  0  0  0  0  0  0  0  0  0
    4.4720   -4.2506    1.1820 C   0  0  0  0  0  0  0  0  0  0  0  0
    3.4821   -3.2644    0.4755 C   0  0  2  0  0  0  0  0  0  0  0  0
    3.5115   -1.7898    0.7509 O   0  0  0  0  0  0  0  0  0  0  0  0
    3.5054   -2.0187    2.0945 C   0  0  2  0  0  0  0  0  0  0  0  0
    2.7925   -0.9165    2.8851 C   0  0  0  0  0  0  0  0  0  0  0  0
    2.5322   -3.0172    1.5297 O   0  0  0  0  0  0  0  0  0  0  0  0
    3.7538   -3.1526   -1.0488 C   0  0  2  0  0  0  0  0  0  0  0  0
    5.1908   -3.6997   -1.3373 C   0  0  1  0  0  0  0  0  0  0  0  0
    5.7386   -3.4284   -2.6320 O   0  0  0  0  0  0  0  0  0  0  0  0
    5.1179   -4.1309   -3.7288 C   0  0  0  0  0  0  0  0  0  0  0  0
    3.7961   -3.4942   -4.0454 C   0  0  0  0  0  0  0  0  0  0  0  0
    6.0794   -3.0019   -0.2360 C   0  0  1  0  0  0  0  0  0  0  0  0
    2.0421    0.5199   -3.2945 H   0  0  0  0  0  0  0  0  0  0  0  0
    3.1750   -0.0999   -4.4055 H   0  0  0  0  0  0  0  0  0  0  0  0
    3.7980    0.7388   -2.9961 H   0  0  0  0  0  0  0  0  0  0  0  0
    2.1277   -1.8482   -2.8684 H   0  0  0  0  0  0  0  0  0  0  0  0
    5.4616   -0.3408   -2.0709 H   0  0  0  0  0  0  0  0  0  0  0  0
    4.6601   -0.0826   -0.5458 H   0  0  0  0  0  0  0  0  0  0  0  0
    7.7171   -1.2968    0.8494 H   0  0  0  0  0  0  0  0  0  0  0  0
    6.9558    0.1439    0.2988 H   0  0  0  0  0  0  0  0  0  0  0  0
    6.5672   -0.6869    2.7300 H   0  0  0  0  0  0  0  0  0  0  0  0
    5.2290   -0.0073    1.8837 H   0  0  0  0  0  0  0  0  0  0  0  0
    5.2988   -2.4527    3.2152 H   0  0  0  0  0  0  0  0  0  0  0  0
    6.4592   -3.8782    1.7794 H   0  0  0  0  0  0  0  0  0  0  0  0
    4.6134   -5.1859    0.6413 H   0  0  0  0  0  0  0  0  0  0  0  0
    4.1062   -4.5741    2.1664 H   0  0  0  0  0  0  0  0  0  0  0  0
    1.7456   -0.8329    2.5959 H   0  0  0  0  0  0  0  0  0  0  0  0
    3.2395    0.0524    2.7218 H   0  0  0  0  0  0  0  0  0  0  0  0
    2.8266   -1.1311    3.9410 H   0  0  0  0  0  0  0  0  0  0  0  0
    2.9969   -3.7880   -1.4574 H   0  0  0  0  0  0  0  0  0  0  0  0
    5.2655   -4.7827   -1.2399 H   0  0  0  0  0  0  0  0  0  0  0  0
    5.7679   -4.0373   -4.6395 H   0  0  0  0  0  0  0  0  0  0  0  0
    4.9717   -5.2176   -3.5281 H   0  0  0  0  0  0  0  0  0  0  0  0
    3.2136   -3.9897   -4.7058 H   0  0  0  0  0  0  0  0  0  0  0  0
    3.9611   -2.4566   -4.3866 H   0  0  0  0  0  0  0  0  0  0  0  0
    3.0889   -3.6903   -3.3140 H   0  0  0  0  0  0  0  0  0  0  0  0
    7.0913   -3.4184   -0.3395 H   0  0  0  0  0  0  0  0  0  0  0  0
  1  2  1  0
  1 22  1  0
  1 23  1  0
  1 24  1  0
  2  3  2  3
  2 25  1  0
  3 16  1  0
  3  4  1  0
  4  5  1  0
  4 26  1  0
  4 27  1  0
  5 21  1  0
  5  6  1  0
  6  7  1  0
  6 28  1  0
  6 29  1  0
  7  8  1  0
  7 30  1  0
  7 31  1  0
  8 13  1  0
  8  9  1  0
  8 32  1  1
  9 21  1  0
  9 10  1  0
  9 33  1  1
 10 11  1  0
 10 34  1  0
 10 35  1  0
 11 15  1  6
 11 12  1  0
 11 16  1  0
 12 13  1  0
 13 14  1  1
 13 15  1  0
 14 36  1  0
 14 37  1  0
 14 38  1  0
 16 17  1  0
 16 39  1  6
 17 18  1  0
 17 21  1  0
 17 40  1  1
 18 19  1  0
 19 20  1  0
 19 41  1  0
 19 42  1  0
 20 43  1  0
 20 44  1  0
 20 45  1  0
 21 46  1  6
M  END
>  <i_m_ct_stereo_status>  (288) 
1

>  <s_m_source_file>  (288) 
/var/tmp/pbs.5076255.sched01/tmp7rmqr72f/92ch8atech.sdf

>  <i_m_source_file_index>  (288) 
17

>  <i_lp_mmshare_version>  (288) 
48012

>  <i_f3d_flags>  (288) 
0

>  <s_epik_input>  (288) 
W0NIM10vW0NIXT1DKFtDQEBIXTFDMjM0KS9bQ0gyXU41W0NAQEhdKFtDQEhdKFtDSDJdMilbQ0BASF0oW0NIMl1bQ0gyXTUpW0NAQF0oTzMpKE80KVtDSDNdKVtDQEBIXTFPW0NIMl1bQ0gzXQ==

>  <s_epik_cmdline>  (288) 
J2VwaWtfcHl0aG9uJywgJy1waHQnLCAnMi4wJywgJy1waCcsICc3LjAnLCAnLXRuJywgJzgnLCAnLW1hJywgJzIwMCcsICctaW1hZScsICc8aW5maWxlLm1hZT4nLCAnLW9tYWUnLCAnPG91dGZpbGUubWFlPic=

>  <r_epik_Ionization_Penalty>  (288) 
0.514311

>  <r_epik_Ionization_Penalty_Charging>  (288) 
0

>  <r_epik_Ionization_Penalty_Neutral>  (288) 
0.514311

>  <r_epik_State_Penalty>  (288) 
0.521811

>  <r_epik_Charging_Adjusted_Penalty>  (288) 
0.521811

>  <i_epik_Tot_Q>  (288) 
0

>  <i_epik_Tot_abs_Q>  (288) 
0

>  <s_lp_Force_Field>  (288) 
OPLS3e

>  <r_lp_Energy>  (288) 
149.144

>  <b_lp_Chiralities_Consistent>  (288) 
1

>  <s_lp_Variant>  (288) 
70:0-2

>  <s_i_glide_gridfile>  (288) 
pfpi4k_grid

>  <i_i_glide_lignum>  (288) 
17

>  <i_i_glide_rotatable_bonds>  (288) 
2

>  <r_i_docking_score>  (288) 
-2.37995

>  <r_i_glide_ligand_efficiency>  (288) 
-0.113331

>  <r_i_glide_ligand_efficiency_sa>  (288) 
-0.312672

>  <r_i_glide_ligand_efficiency_ln>  (288) 
-0.588439

>  <r_i_glide_gscore>  (288) 
-2.37995

>  <r_i_glide_lipo>  (288) 
-0.326321

>  <r_i_glide_hbond>  (288) 
-0.0769321

>  <r_i_glide_metal>  (288) 
-0

>  <r_i_glide_rewards>  (288) 
-1.42237

>  <r_i_glide_evdw>  (288) 
-13.8142

>  <r_i_glide_ecoul>  (288) 
-1.43895

>  <r_i_glide_erotb>  (288) 
0.21483

>  <r_i_glide_esite>  (288) 
-0.0111858

>  <r_i_glide_emodel>  (288) 
-12.9403

>  <r_i_glide_energy>  (288) 
-15.2532

>  <r_i_glide_einternal>  (288) 
0.797394

>  <r_i_glide_intrahb_reward>  (288) 
-0

>  <i_i_glide_confnum>  (288) 
1

>  <i_i_glide_posenum>  (288) 
1

>  <r_i_glide_eff_state_penalty>  (288) 
0

>  <ligand_id>  (288) 
70

>  <original_smiles>  (288) 
CC=C1CN2CCC3C4CC5(OC3(C)O5)C1C(OCC)C42

>  <smiles>  (288) 
[H]C(=C1C([H])([H])N2C([H])([H])C([H])([H])C3([H])C4(C([H])([H])[H])OC5(O4)C([H])([H])C3([H])C2([H])C([H])(OC([H])([H])C([H])([H])[H])C15[H])C([H])([H])[H]

$$$$
71:0:0
     RDKit          3D

 35 39  0  0  1  0  0  0  0  0999 V2000
   -5.6149   -4.7154   -4.9131 C   0  0  0  0  0  0  0  0  0  0  0  0
   -4.8168   -5.8695   -5.1208 O   0  0  0  0  0  0  0  0  0  0  0  0
   -5.5534   -7.0753   -5.0254 C   0  0  0  0  0  0  0  0  0  0  0  0
   -4.7017   -8.2124   -5.6178 C   0  0  0  0  0  0  0  0  0  0  0  0
   -5.4131   -9.5855   -5.7168 C   0  0  2  0  0  0  0  0  0  0  0  0
   -4.3736  -10.7388   -6.0852 C   0  0  0  0  0  0  0  0  0  0  0  0
   -4.5960  -11.4005   -7.5241 C   0  0  2  0  0  0  0  0  0  0  0  0
   -5.6321  -11.7872   -8.4837 C   0  0  1  0  0  0  0  0  0  0  0  0
   -7.0557  -12.5792   -7.8083 C   0  0  2  0  0  0  0  0  0  0  0  0
   -8.5070  -11.9056   -7.3413 C   0  0  0  0  0  0  0  0  0  0  0  0
   -7.7482  -10.7683   -6.4100 C   0  0  2  0  0  0  0  0  0  0  0  0
   -6.6050   -9.5894   -6.7570 C   0  0  2  0  0  0  0  0  0  0  0  0
   -5.8164  -10.0741   -8.0581 C   0  0  1  0  0  0  0  0  0  0  0  0
   -6.2067  -11.2396   -7.7247 C   0  0  2  0  0  0  0  0  0  0  0  0
   -6.8487  -11.8913   -6.5585 C   0  0  2  0  0  0  0  0  0  0  0  0
   -4.9886   -3.8368   -5.0196 H   0  0  0  0  0  0  0  0  0  0  0  0
   -6.0615   -4.6992   -3.9196 H   0  0  0  0  0  0  0  0  0  0  0  0
   -6.4099   -4.6352   -5.6577 H   0  0  0  0  0  0  0  0  0  0  0  0
   -5.7926   -7.2672   -3.9782 H   0  0  0  0  0  0  0  0  0  0  0  0
   -6.4954   -6.9750   -5.5655 H   0  0  0  0  0  0  0  0  0  0  0  0
   -4.3468   -7.9203   -6.6031 H   0  0  0  0  0  0  0  0  0  0  0  0
   -3.8124   -8.3153   -4.9933 H   0  0  0  0  0  0  0  0  0  0  0  0
   -5.7925   -9.7971   -4.7248 H   0  0  0  0  0  0  0  0  0  0  0  0
   -3.3581  -10.3533   -6.0111 H   0  0  0  0  0  0  0  0  0  0  0  0
   -4.3966  -11.5035   -5.3076 H   0  0  0  0  0  0  0  0  0  0  0  0
   -3.8249  -11.0512   -8.2253 H   0  0  0  0  0  0  0  0  0  0  0  0
   -5.2537  -12.0763   -9.4942 H   0  0  0  0  0  0  0  0  0  0  0  0
   -6.9882  -13.6639   -7.6785 H   0  0  0  0  0  0  0  0  0  0  0  0
   -9.1057  -11.5039   -8.1653 H   0  0  0  0  0  0  0  0  0  0  0  0
   -9.1124  -12.6017   -6.7493 H   0  0  0  0  0  0  0  0  0  0  0  0
   -8.2032  -10.6844   -5.4233 H   0  0  0  0  0  0  0  0  0  0  0  0
   -7.0688   -8.6147   -6.8929 H   0  0  0  0  0  0  0  0  0  0  0  0
   -5.8988   -9.4898   -9.0038 H   0  0  0  0  0  0  0  0  0  0  0  0
   -7.1060  -10.6134   -8.4521 H   0  0  0  0  0  0  0  0  0  0  0  0
   -6.2586  -12.3540   -5.7626 H   0  0  0  0  0  0  0  0  0  0  0  0
  1  2  1  0
  1 16  1  0
  1 17  1  0
  1 18  1  0
  2  3  1  0
  3  4  1  0
  3 19  1  0
  3 20  1  0
  4  5  1  0
  4 21  1  0
  4 22  1  0
  5 12  1  0
  5  6  1  0
  5 23  1  1
  6  7  1  0
  6 24  1  0
  6 25  1  0
  7 14  1  0
  7  8  1  0
  7 26  1  6
  8 13  1  0
  8  9  1  0
  8 27  1  6
  9 15  1  0
  9 10  1  0
  9 28  1  1
 10 11  1  0
 10 29  1  0
 10 30  1  0
 11 15  1  0
 11 12  1  0
 11 31  1  1
 12 13  1  0
 12 32  1  6
 13 14  1  0
 13 33  1  6
 14 15  1  0
 14 34  1  6
 15 35  1  1
M  END
>  <i_m_ct_stereo_status>  (289) 
1

>  <s_m_source_file>  (289) 
/var/tmp/pbs.5076255.sched01/tmp7rmqr72f/92ch8atech.sdf

>  <i_m_source_file_index>  (289) 
18

>  <i_lp_mmshare_version>  (289) 
48012

>  <i_f3d_flags>  (289) 
0

>  <s_epik_input>  (289) 
W0NIM11PW0NIMl1bQ0gyXVtDQEhdKFtDSDJdMSlbQ0BASF0oW0NIXTJbQ0BASF0zNClbQ0BASF0oW0NIMl01KVtDQEhdNFtDQEBIXTVbQ0BASF0yW0NAQEhdMTM=

>  <s_epik_cmdline>  (289) 
J2VwaWtfcHl0aG9uJywgJy1waHQnLCAnMi4wJywgJy1waCcsICc3LjAnLCAnLXRuJywgJzgnLCAnLW1hJywgJzIwMCcsICctaW1hZScsICc8aW5maWxlLm1hZT4nLCAnLW9tYWUnLCAnPG91dGZpbGUubWFlPic=

>  <r_lp_tautomer_probability>  (289) 
1

>  <r_epik_Ionization_Penalty>  (289) 
4.27395e-11

>  <r_epik_Ionization_Penalty_Charging>  (289) 
0

>  <r_epik_Ionization_Penalty_Neutral>  (289) 
4.27395e-11

>  <r_epik_State_Penalty>  (289) 
-0

>  <r_epik_Charging_Adjusted_Penalty>  (289) 
0

>  <i_epik_Tot_Q>  (289) 
0

>  <i_epik_Tot_abs_Q>  (289) 
0

>  <s_lp_Force_Field>  (289) 
OPLS3e

>  <r_lp_Energy>  (289) 
555.259

>  <b_lp_Chiralities_Consistent>  (289) 
1

>  <s_lp_Variant>  (289) 
71:0-1

>  <s_i_glide_gridfile>  (289) 
pfpi4k_grid

>  <i_i_glide_lignum>  (289) 
18

>  <i_i_glide_rotatable_bonds>  (289) 
3

>  <r_i_docking_score>  (289) 
-5.24606

>  <r_i_glide_ligand_efficiency>  (289) 
-0.349737

>  <r_i_glide_ligand_efficiency_sa>  (289) 
-0.862527

>  <r_i_glide_ligand_efficiency_ln>  (289) 
-1.41478

>  <r_i_glide_gscore>  (289) 
-5.24606

>  <r_i_glide_lipo>  (289) 
-1.76602

>  <r_i_glide_hbond>  (289) 
-0.32

>  <r_i_glide_metal>  (289) 
-0

>  <r_i_glide_rewards>  (289) 
-2.21879

>  <r_i_glide_evdw>  (289) 
-17.3293

>  <r_i_glide_ecoul>  (289) 
-3.12563

>  <r_i_glide_erotb>  (289) 
0.394065

>  <r_i_glide_esite>  (289) 
0

>  <r_i_glide_emodel>  (289) 
-26.6776

>  <r_i_glide_energy>  (289) 
-20.4549

>  <r_i_glide_einternal>  (289) 
0.450869

>  <r_i_glide_intrahb_reward>  (289) 
-0

>  <i_i_glide_confnum>  (289) 
2

>  <i_i_glide_posenum>  (289) 
14

>  <r_i_glide_eff_state_penalty>  (289) 
0

>  <ligand_id>  (289) 
71

>  <original_smiles>  (289) 
COCCC1CC2C3C4CC5C1C3C2C54

>  <smiles>  (289) 
[H]C([H])([H])OC([H])([H])C([H])([H])C1([H])C([H])([H])C2([H])C3([H])C4([H])C([H])([H])C5([H])C1([H])C3([H])C2([H])C54[H]

$$$$
71:0:1
     RDKit          3D

 35 39  0  0  1  0  0  0  0  0999 V2000
   -7.7561   -4.2193   -5.1756 C   0  0  0  0  0  0  0  0  0  0  0  0
   -6.7339   -5.0525   -5.6879 O   0  0  0  0  0  0  0  0  0  0  0  0
   -5.7745   -5.4151   -4.7102 C   0  0  0  0  0  0  0  0  0  0  0  0
   -5.0270   -6.6780   -5.1527 C   0  0  0  0  0  0  0  0  0  0  0  0
   -5.9492   -7.8581   -5.5615 C   0  0  2  0  0  0  0  0  0  0  0  0
   -5.2059   -9.2393   -5.2992 C   0  0  0  0  0  0  0  0  0  0  0  0
   -4.8966  -10.1169   -6.5785 C   0  0  2  0  0  0  0  0  0  0  0  0
   -5.3813  -10.4468   -7.9214 C   0  0  1  0  0  0  0  0  0  0  0  0
   -7.1080  -10.7572   -8.0785 C   0  0  1  0  0  0  0  0  0  0  0  0
   -8.3312   -9.7070   -8.4766 C   0  0  0  0  0  0  0  0  0  0  0  0
   -7.8524   -8.6134   -7.3339 C   0  0  2  0  0  0  0  0  0  0  0  0
   -6.4118   -7.7872   -7.0723 C   0  0  2  0  0  0  0  0  0  0  0  0
   -5.2553   -8.6761   -7.7445 C   0  0  1  0  0  0  0  0  0  0  0  0
   -6.0649   -9.6487   -7.6043 C   0  0  2  0  0  0  0  0  0  0  0  0
   -7.3586   -9.9115   -6.9431 C   0  0  2  0  0  0  0  0  0  0  0  0
   -8.4574   -3.9837   -5.9764 H   0  0  0  0  0  0  0  0  0  0  0  0
   -7.3511   -3.2912   -4.7748 H   0  0  0  0  0  0  0  0  0  0  0  0
   -8.3109   -4.7188   -4.3813 H   0  0  0  0  0  0  0  0  0  0  0  0
   -5.0715   -4.5936   -4.5736 H   0  0  0  0  0  0  0  0  0  0  0  0
   -6.2410   -5.5983   -3.7400 H   0  0  0  0  0  0  0  0  0  0  0  0
   -4.3088   -6.4648   -5.9312 H   0  0  0  0  0  0  0  0  0  0  0  0
   -4.4007   -6.9861   -4.3156 H   0  0  0  0  0  0  0  0  0  0  0  0
   -6.8357   -7.8148   -4.9261 H   0  0  0  0  0  0  0  0  0  0  0  0
   -4.2977   -9.1171   -4.7048 H   0  0  0  0  0  0  0  0  0  0  0  0
   -5.8337   -9.8522   -4.6765 H   0  0  0  0  0  0  0  0  0  0  0  0
   -3.8135  -10.1280   -6.7694 H   0  0  0  0  0  0  0  0  0  0  0  0
   -4.6550  -11.0547   -8.4915 H   0  0  0  0  0  0  0  0  0  0  0  0
   -7.4286  -11.7843   -7.8771 H   0  0  0  0  0  0  0  0  0  0  0  0
   -8.2968   -9.3404   -9.5077 H   0  0  0  0  0  0  0  0  0  0  0  0
   -9.3151  -10.1312   -8.2529 H   0  0  0  0  0  0  0  0  0  0  0  0
   -8.6786   -8.2897   -6.7178 H   0  0  0  0  0  0  0  0  0  0  0  0
   -6.4565   -6.7705   -7.4620 H   0  0  0  0  0  0  0  0  0  0  0  0
   -4.6763   -8.2803   -8.6153 H   0  0  0  0  0  0  0  0  0  0  0  0
   -6.2652   -8.9814   -8.7160 H   0  0  0  0  0  0  0  0  0  0  0  0
   -7.4050  -10.3328   -5.9412 H   0  0  0  0  0  0  0  0  0  0  0  0
  1  2  1  0
  1 16  1  0
  1 17  1  0
  1 18  1  0
  2  3  1  0
  3  4  1  0
  3 19  1  0
  3 20  1  0
  4  5  1  0
  4 21  1  0
  4 22  1  0
  5 12  1  0
  5  6  1  0
  5 23  1  1
  6  7  1  0
  6 24  1  0
  6 25  1  0
  7 14  1  0
  7  8  1  0
  7 26  1  6
  8 13  1  0
  8  9  1  0
  8 27  1  6
  9 15  1  0
  9 10  1  0
  9 28  1  1
 10 11  1  0
 10 29  1  0
 10 30  1  0
 11 15  1  0
 11 12  1  0
 11 31  1  1
 12 13  1  0
 12 32  1  6
 13 14  1  0
 13 33  1  6
 14 15  1  0
 14 34  1  6
 15 35  1  1
M  END
>  <i_m_ct_stereo_status>  (290) 
1

>  <s_m_source_file>  (290) 
/var/tmp/pbs.5076255.sched01/tmp7rmqr72f/92ch8atech.sdf

>  <i_m_source_file_index>  (290) 
18

>  <i_lp_mmshare_version>  (290) 
48012

>  <i_f3d_flags>  (290) 
0

>  <s_epik_input>  (290) 
W0NIM11PW0NIMl1bQ0gyXVtDQEhdKFtDSDJdMSlbQ0BASF0oW0NIXTJbQ0BASF0zNClbQ0BASF0oW0NIMl01KVtDQEhdNFtDQEBIXTVbQ0BASF0yW0NAQEhdMTM=

>  <s_epik_cmdline>  (290) 
J2VwaWtfcHl0aG9uJywgJy1waHQnLCAnMi4wJywgJy1waCcsICc3LjAnLCAnLXRuJywgJzgnLCAnLW1hJywgJzIwMCcsICctaW1hZScsICc8aW5maWxlLm1hZT4nLCAnLW9tYWUnLCAnPG91dGZpbGUubWFlPic=

>  <r_lp_tautomer_probability>  (290) 
1

>  <r_epik_Ionization_Penalty>  (290) 
4.27395e-11

>  <r_epik_Ionization_Penalty_Charging>  (290) 
0

>  <r_epik_Ionization_Penalty_Neutral>  (290) 
4.27395e-11

>  <r_epik_State_Penalty>  (290) 
-0

>  <r_epik_Charging_Adjusted_Penalty>  (290) 
0

>  <i_epik_Tot_Q>  (290) 
0

>  <i_epik_Tot_abs_Q>  (290) 
0

>  <s_lp_Force_Field>  (290) 
OPLS3e

>  <r_lp_Energy>  (290) 
555.259

>  <b_lp_Chiralities_Consistent>  (290) 
1

>  <s_lp_Variant>  (290) 
71:0-1

>  <s_i_glide_gridfile>  (290) 
pfpi4k_grid

>  <i_i_glide_lignum>  (290) 
18

>  <i_i_glide_rotatable_bonds>  (290) 
3

>  <r_i_docking_score>  (290) 
-4.94502

>  <r_i_glide_ligand_efficiency>  (290) 
-0.329668

>  <r_i_glide_ligand_efficiency_sa>  (290) 
-0.81303

>  <r_i_glide_ligand_efficiency_ln>  (290) 
-1.33359

>  <r_i_glide_gscore>  (290) 
-4.94502

>  <r_i_glide_lipo>  (290) 
-2.26464

>  <r_i_glide_hbond>  (290) 
0

>  <r_i_glide_metal>  (290) 
-0

>  <r_i_glide_rewards>  (290) 
-2.31608

>  <r_i_glide_evdw>  (290) 
-15.4202

>  <r_i_glide_ecoul>  (290) 
0.0843562

>  <r_i_glide_erotb>  (290) 
0.394065

>  <r_i_glide_esite>  (290) 
0

>  <r_i_glide_emodel>  (290) 
-19.6859

>  <r_i_glide_energy>  (290) 
-15.3358

>  <r_i_glide_einternal>  (290) 
2.85792

>  <r_i_glide_intrahb_reward>  (290) 
-0

>  <i_i_glide_confnum>  (290) 
2

>  <i_i_glide_posenum>  (290) 
9

>  <r_i_glide_eff_state_penalty>  (290) 
0

>  <ligand_id>  (290) 
71

>  <original_smiles>  (290) 
COCCC1CC2C3C4CC5C1C3C2C54

>  <smiles>  (290) 
[H]C([H])([H])OC([H])([H])C([H])([H])C1([H])C([H])([H])C2([H])C3([H])C4([H])C([H])([H])C5([H])C1([H])C3([H])C2([H])C54[H]

$$$$
71:0:2
     RDKit          3D

 35 39  0  0  1  0  0  0  0  0999 V2000
   -8.0456   -4.8362   -5.3377 C   0  0  0  0  0  0  0  0  0  0  0  0
   -6.7375   -4.9104   -5.8851 O   0  0  0  0  0  0  0  0  0  0  0  0
   -5.7611   -5.4558   -5.0053 C   0  0  0  0  0  0  0  0  0  0  0  0
   -5.9384   -6.9751   -4.7586 C   0  0  0  0  0  0  0  0  0  0  0  0
   -5.5070   -7.9010   -5.9177 C   0  0  2  0  0  0  0  0  0  0  0  0
   -6.4225   -7.7041   -7.2110 C   0  0  0  0  0  0  0  0  0  0  0  0
   -7.3628   -8.9395   -7.5769 C   0  0  2  0  0  0  0  0  0  0  0  0
   -7.4221  -10.3943   -7.5562 C   0  0  1  0  0  0  0  0  0  0  0  0
   -5.9579  -11.2318   -8.0764 C   0  0  2  0  0  0  0  0  0  0  0  0
   -4.7021  -11.8226   -7.1538 C   0  0  0  0  0  0  0  0  0  0  0  0
   -4.5119  -10.3760   -6.3798 C   0  0  2  0  0  0  0  0  0  0  0  0
   -5.5521   -9.4143   -5.4788 C   0  0  2  0  0  0  0  0  0  0  0  0
   -7.0487   -9.7850   -5.9295 C   0  0  1  0  0  0  0  0  0  0  0  0
   -6.4919  -10.1983   -6.9997 C   0  0  2  0  0  0  0  0  0  0  0  0
   -5.1607  -10.1168   -7.6431 C   0  0  2  0  0  0  0  0  0  0  0  0
   -8.7326   -4.4716   -6.1002 H   0  0  0  0  0  0  0  0  0  0  0  0
   -8.0829   -4.1567   -4.4862 H   0  0  0  0  0  0  0  0  0  0  0  0
   -8.4099   -5.8127   -5.0224 H   0  0  0  0  0  0  0  0  0  0  0  0
   -4.7725   -5.2670   -5.4285 H   0  0  0  0  0  0  0  0  0  0  0  0
   -5.7902   -4.9002   -4.0657 H   0  0  0  0  0  0  0  0  0  0  0  0
   -5.3345   -7.2265   -3.8954 H   0  0  0  0  0  0  0  0  0  0  0  0
   -6.9590   -7.2148   -4.4587 H   0  0  0  0  0  0  0  0  0  0  0  0
   -4.4687   -7.6540   -6.1540 H   0  0  0  0  0  0  0  0  0  0  0  0
   -7.0494   -6.8192   -7.1242 H   0  0  0  0  0  0  0  0  0  0  0  0
   -5.7631   -7.4801   -8.0536 H   0  0  0  0  0  0  0  0  0  0  0  0
   -8.3954   -8.7001   -7.3009 H   0  0  0  0  0  0  0  0  0  0  0  0
   -8.4335  -10.8180   -7.7830 H   0  0  0  0  0  0  0  0  0  0  0  0
   -5.8599  -11.3976   -9.1572 H   0  0  0  0  0  0  0  0  0  0  0  0
   -4.9710  -12.6650   -6.5062 H   0  0  0  0  0  0  0  0  0  0  0  0
   -3.8308  -12.0841   -7.7689 H   0  0  0  0  0  0  0  0  0  0  0  0
   -3.4599  -10.0848   -6.3269 H   0  0  0  0  0  0  0  0  0  0  0  0
   -5.3798   -9.5510   -4.4091 H   0  0  0  0  0  0  0  0  0  0  0  0
   -7.7805  -10.2422   -5.2366 H   0  0  0  0  0  0  0  0  0  0  0  0
   -6.5108  -11.1290   -6.0774 H   0  0  0  0  0  0  0  0  0  0  0  0
   -4.9117   -9.3114   -8.3450 H   0  0  0  0  0  0  0  0  0  0  0  0
  1  2  1  0
  1 16  1  0
  1 17  1  0
  1 18  1  0
  2  3  1  0
  3  4  1  0
  3 19  1  0
  3 20  1  0
  4  5  1  0
  4 21  1  0
  4 22  1  0
  5 12  1  0
  5  6  1  0
  5 23  1  6
  6  7  1  0
  6 24  1  0
  6 25  1  0
  7 14  1  0
  7  8  1  0
  7 26  1  1
  8 13  1  0
  8  9  1  0
  8 27  1  1
  9 15  1  0
  9 10  1  0
  9 28  1  6
 10 11  1  0
 10 29  1  0
 10 30  1  0
 11 15  1  0
 11 12  1  0
 11 31  1  6
 12 13  1  0
 12 32  1  1
 13 14  1  0
 13 33  1  1
 14 15  1  0
 14 34  1  6
 15 35  1  6
M  END
>  <i_m_ct_stereo_status>  (291) 
1

>  <s_m_source_file>  (291) 
/var/tmp/pbs.5076255.sched01/tmp7rmqr72f/92ch8atech.sdf

>  <i_m_source_file_index>  (291) 
18

>  <i_lp_mmshare_version>  (291) 
48012

>  <i_f3d_flags>  (291) 
0

>  <s_epik_input>  (291) 
W0NIM11PW0NIMl1bQ0gyXVtDQEhdKFtDSDJdMSlbQ0BASF0oW0NIXTJbQ0BASF0zNClbQ0BASF0oW0NIMl01KVtDQEhdNFtDQEBIXTVbQ0BASF0yW0NAQEhdMTM=

>  <s_epik_cmdline>  (291) 
J2VwaWtfcHl0aG9uJywgJy1waHQnLCAnMi4wJywgJy1waCcsICc3LjAnLCAnLXRuJywgJzgnLCAnLW1hJywgJzIwMCcsICctaW1hZScsICc8aW5maWxlLm1hZT4nLCAnLW9tYWUnLCAnPG91dGZpbGUubWFlPic=

>  <r_lp_tautomer_probability>  (291) 
1

>  <r_epik_Ionization_Penalty>  (291) 
4.27395e-11

>  <r_epik_Ionization_Penalty_Charging>  (291) 
0

>  <r_epik_Ionization_Penalty_Neutral>  (291) 
4.27395e-11

>  <r_epik_State_Penalty>  (291) 
-0

>  <r_epik_Charging_Adjusted_Penalty>  (291) 
0

>  <i_epik_Tot_Q>  (291) 
0

>  <i_epik_Tot_abs_Q>  (291) 
0

>  <s_lp_Force_Field>  (291) 
OPLS3e

>  <r_lp_Energy>  (291) 
555.259

>  <b_lp_Chiralities_Consistent>  (291) 
1

>  <s_lp_Variant>  (291) 
71:0-1

>  <s_i_glide_gridfile>  (291) 
pfpi4k_grid

>  <i_i_glide_lignum>  (291) 
18

>  <i_i_glide_rotatable_bonds>  (291) 
3

>  <r_i_docking_score>  (291) 
-4.85937

>  <r_i_glide_ligand_efficiency>  (291) 
-0.323958

>  <r_i_glide_ligand_efficiency_sa>  (291) 
-0.798949

>  <r_i_glide_ligand_efficiency_ln>  (291) 
-1.31049

>  <r_i_glide_gscore>  (291) 
-4.85937

>  <r_i_glide_lipo>  (291) 
-2.27172

>  <r_i_glide_hbond>  (291) 
0

>  <r_i_glide_metal>  (291) 
-0

>  <r_i_glide_rewards>  (291) 
-2.12005

>  <r_i_glide_evdw>  (291) 
-17.3825

>  <r_i_glide_ecoul>  (291) 
0.0497779

>  <r_i_glide_erotb>  (291) 
0.394065

>  <r_i_glide_esite>  (291) 
0

>  <r_i_glide_emodel>  (291) 
-22.3121

>  <r_i_glide_energy>  (291) 
-17.3327

>  <r_i_glide_einternal>  (291) 
1.60708

>  <r_i_glide_intrahb_reward>  (291) 
-0

>  <i_i_glide_confnum>  (291) 
3

>  <i_i_glide_posenum>  (291) 
17

>  <r_i_glide_eff_state_penalty>  (291) 
0

>  <ligand_id>  (291) 
71

>  <original_smiles>  (291) 
COCCC1CC2C3C4CC5C1C3C2C54

>  <smiles>  (291) 
[H]C([H])([H])OC([H])([H])C([H])([H])C1([H])C([H])([H])C2([H])C3([H])C4([H])C([H])([H])C5([H])C1([H])C3([H])C2([H])C54[H]

$$$$
72:0:0
     RDKit          3D

 60 64  0  0  1  0  0  0  0  0999 V2000
    7.1470   -5.1639    1.5715 C   0  0  0  0  0  0  0  0  0  0  0  0
    5.6633   -4.7078    1.5410 C   0  0  0  0  0  0  0  0  0  0  0  0
    4.9894   -5.6541    0.5265 C   0  0  0  0  0  0  0  0  0  0  0  0
    5.1522   -5.0378    2.9893 C   0  0  0  0  0  0  0  0  0  0  0  0
    3.6584   -4.9058    3.1015 C   0  0  2  0  0  0  0  0  0  0  0  0
    3.2965   -3.4492    3.0976 C   0  0  1  0  0  0  0  0  0  0  0  0
    2.8725   -3.0567    1.7010 C   0  0  1  0  0  0  0  0  0  0  0  0
    1.8156   -2.1431    1.8181 O   0  0  0  0  0  0  0  0  0  0  0  0
    4.0885   -2.4666    0.8865 C   0  0  2  0  0  0  0  0  0  0  0  0
    4.1854   -0.9585    1.2941 C   0  0  0  0  0  0  0  0  0  0  0  0
    3.8375   -2.5058   -0.6315 C   0  0  0  0  0  0  0  0  0  0  0  0
    3.1400   -3.4449   -1.3359 C   0  0  0  0  0  0  0  0  0  0  0  0
    3.3071   -3.3791   -2.8699 C   0  0  2  0  0  0  0  0  0  0  0  0
    4.8313   -3.3367   -3.1716 C   0  0  0  0  0  0  0  0  0  0  0  0
    5.4756   -2.3884   -2.1474 C   0  0  0  0  0  0  0  0  0  0  0  0
    4.5418   -1.6231   -1.5493 C   0  0  0  0  0  0  0  0  0  0  0  0
    3.5444   -0.9652   -2.5126 C   0  0  1  0  0  0  0  0  0  0  0  0
    4.1820   -0.0834   -3.4033 O   0  0  0  0  0  0  0  0  0  0  0  0
    2.7770   -2.0330   -3.2874 C   0  0  0  0  0  0  0  0  0  0  0  0
    6.5852   -3.0227   -1.3181 C   0  0  1  0  0  0  0  0  0  0  0  0
    7.8244   -2.6493   -1.8970 O   0  0  0  0  0  0  0  0  0  0  0  0
    6.6327   -2.6070    0.1833 C   0  0  0  0  0  0  0  0  0  0  0  0
    5.5214   -3.1459    1.1703 C   0  0  2  0  0  0  0  0  0  0  0  0
    2.7283   -4.3648    4.1613 C   0  0  0  0  0  0  0  0  0  0  0  0
    1.2477   -4.6893    4.1353 C   0  0  0  0  0  0  0  0  0  0  0  0
    3.2208   -4.2966    5.5955 C   0  0  0  0  0  0  0  0  0  0  0  0
    7.2529   -6.1834    1.9448 H   0  0  0  0  0  0  0  0  0  0  0  0
    7.7463   -4.5596    2.2310 H   0  0  0  0  0  0  0  0  0  0  0  0
    7.6255   -5.1307    0.5939 H   0  0  0  0  0  0  0  0  0  0  0  0
    3.9303   -5.4639    0.4003 H   0  0  0  0  0  0  0  0  0  0  0  0
    5.0903   -6.6917    0.8467 H   0  0  0  0  0  0  0  0  0  0  0  0
    5.4352   -5.6072   -0.4585 H   0  0  0  0  0  0  0  0  0  0  0  0
    5.3873   -6.0697    3.2576 H   0  0  0  0  0  0  0  0  0  0  0  0
    5.6412   -4.4112    3.7336 H   0  0  0  0  0  0  0  0  0  0  0  0
    3.1317   -5.6107    2.4679 H   0  0  0  0  0  0  0  0  0  0  0  0
    3.9625   -2.7265    3.5512 H   0  0  0  0  0  0  0  0  0  0  0  0
    2.4660   -3.9321    1.2075 H   0  0  0  0  0  0  0  0  0  0  0  0
    1.6256   -1.7800    0.9541 H   0  0  0  0  0  0  0  0  0  0  0  0
    4.2959   -0.8349    2.3715 H   0  0  0  0  0  0  0  0  0  0  0  0
    3.3001   -0.3978    0.9988 H   0  0  0  0  0  0  0  0  0  0  0  0
    5.0032   -0.4168    0.8282 H   0  0  0  0  0  0  0  0  0  0  0  0
    2.5938   -4.2638   -0.9135 H   0  0  0  0  0  0  0  0  0  0  0  0
    2.7476   -4.1331   -3.4197 H   0  0  0  0  0  0  0  0  0  0  0  0
    5.2510   -4.3388   -3.1187 H   0  0  0  0  0  0  0  0  0  0  0  0
    5.0122   -2.9554   -4.1752 H   0  0  0  0  0  0  0  0  0  0  0  0
    2.8102   -0.4223   -1.9439 H   0  0  0  0  0  0  0  0  0  0  0  0
    3.6461    0.7084   -3.4677 H   0  0  0  0  0  0  0  0  0  0  0  0
    2.7677   -1.8746   -4.3634 H   0  0  0  0  0  0  0  0  0  0  0  0
    1.7594   -2.0314   -2.9381 H   0  0  0  0  0  0  0  0  0  0  0  0
    6.5066   -4.0943   -1.3629 H   0  0  0  0  0  0  0  0  0  0  0  0
    7.9317   -3.0080   -2.7588 H   0  0  0  0  0  0  0  0  0  0  0  0
    7.6105   -2.8777    0.5797 H   0  0  0  0  0  0  0  0  0  0  0  0
    6.6740   -1.5219    0.2299 H   0  0  0  0  0  0  0  0  0  0  0  0
    5.8327   -2.6846    2.1093 H   0  0  0  0  0  0  0  0  0  0  0  0
    0.6775   -3.9112    4.6470 H   0  0  0  0  0  0  0  0  0  0  0  0
    1.0513   -5.6492    4.6150 H   0  0  0  0  0  0  0  0  0  0  0  0
    0.9005   -4.7386    3.1015 H   0  0  0  0  0  0  0  0  0  0  0  0
    2.6739   -3.5394    6.1582 H   0  0  0  0  0  0  0  0  0  0  0  0
    4.2805   -4.0380    5.6137 H   0  0  0  0  0  0  0  0  0  0  0  0
    3.0983   -5.2642    6.0867 H   0  0  0  0  0  0  0  0  0  0  0  0
  1  2  1  0
  1 27  1  0
  1 28  1  0
  1 29  1  0
  2 23  1  0
  2  3  1  0
  2  4  1  0
  3 30  1  0
  3 31  1  0
  3 32  1  0
  4  5  1  0
  4 33  1  0
  4 34  1  0
  5 24  1  0
  5  6  1  0
  5 35  1  6
  6  7  1  0
  6 24  1  0
  6 36  1  1
  7  8  1  0
  7  9  1  0
  7 37  1  6
  8 38  1  0
  9 23  1  0
  9 10  1  1
  9 11  1  0
 10 39  1  0
 10 40  1  0
 10 41  1  0
 11 16  1  0
 11 12  2  0
 12 13  1  0
 12 42  1  0
 13 19  1  0
 13 14  1  0
 13 43  1  6
 14 15  1  0
 14 44  1  0
 14 45  1  0
 15 16  2  0
 15 20  1  0
 16 17  1  0
 17 18  1  0
 17 19  1  0
 17 46  1  1
 18 47  1  0
 19 48  1  0
 19 49  1  0
 20 21  1  0
 20 22  1  0
 20 50  1  1
 21 51  1  0
 22 23  1  0
 22 52  1  0
 22 53  1  0
 23 54  1  1
 24 25  1  0
 24 26  1  0
 25 55  1  0
 25 56  1  0
 25 57  1  0
 26 58  1  0
 26 59  1  0
 26 60  1  0
M  END
>  <i_m_ct_stereo_status>  (292) 
1

>  <s_m_source_file>  (292) 
/var/tmp/pbs.5076255.sched01/tmp7rmqr72f/92ch8atech.sdf

>  <i_m_source_file_index>  (292) 
19

>  <i_lp_mmshare_version>  (292) 
48012

>  <i_f3d_flags>  (292) 
0

>  <s_epik_input>  (292) 
W09IXVtDQEBIXTFbQ0BASF0oQzIoW0NIM10pW0NIM10pW0NASF0yW0NIMl1DKFtDSDNdKShbQ0gzXSlbQ0BIXTNbQ0gyXVtDQEhdKFtPSF0pQyg9QzRDPTVbQ0BAXTEzW0NIM10pW0NIMl1bQ0BASF0oW0NIXTUpW0NIMl1bQ0BASF00W09IXQ==

>  <s_epik_cmdline>  (292) 
J2VwaWtfcHl0aG9uJywgJy1waHQnLCAnMi4wJywgJy1waCcsICc3LjAnLCAnLXRuJywgJzgnLCAnLW1hJywgJzIwMCcsICctaW1hZScsICc8aW5maWxlLm1hZT4nLCAnLW9tYWUnLCAnPG91dGZpbGUubWFlPic=

>  <r_lp_tautomer_probability>  (292) 
1

>  <r_epik_Ionization_Penalty>  (292) 
1.03949e-06

>  <r_epik_Ionization_Penalty_Charging>  (292) 
0

>  <r_epik_Ionization_Penalty_Neutral>  (292) 
1.03949e-06

>  <r_epik_State_Penalty>  (292) 
-0

>  <r_epik_Charging_Adjusted_Penalty>  (292) 
0

>  <i_epik_Tot_Q>  (292) 
0

>  <i_epik_Tot_abs_Q>  (292) 
0

>  <s_lp_Force_Field>  (292) 
OPLS3e

>  <r_lp_Energy>  (292) 
162.295

>  <b_lp_Chiralities_Consistent>  (292) 
1

>  <s_lp_Variant>  (292) 
72:0-1

>  <s_i_glide_gridfile>  (292) 
pfpi4k_grid

>  <i_i_glide_lignum>  (292) 
19

>  <i_i_glide_rotatable_bonds>  (292) 
3

>  <r_i_docking_score>  (292) 
-4.84471

>  <r_i_glide_ligand_efficiency>  (292) 
-0.186335

>  <r_i_glide_ligand_efficiency_sa>  (292) 
-0.552017

>  <r_i_glide_ligand_efficiency_ln>  (292) 
-1.13777

>  <r_i_glide_gscore>  (292) 
-4.84471

>  <r_i_glide_lipo>  (292) 
-0.851108

>  <r_i_glide_hbond>  (292) 
-0.621399

>  <r_i_glide_metal>  (292) 
-0

>  <r_i_glide_rewards>  (292) 
-0.964675

>  <r_i_glide_evdw>  (292) 
-24.1647

>  <r_i_glide_ecoul>  (292) 
-7.99531

>  <r_i_glide_erotb>  (292) 
0

>  <r_i_glide_esite>  (292) 
0

>  <r_i_glide_emodel>  (292) 
-39.3455

>  <r_i_glide_energy>  (292) 
-32.16

>  <r_i_glide_einternal>  (292) 
1.81799

>  <r_i_glide_intrahb_reward>  (292) 
-0

>  <i_i_glide_confnum>  (292) 
1

>  <i_i_glide_posenum>  (292) 
10

>  <r_i_glide_eff_state_penalty>  (292) 
0

>  <ligand_id>  (292) 
72

>  <original_smiles>  (292) 
CC1(C)CC2C(C(O)C3(C)C4=CC5CC(=C4C(O)C5)C(O)CC13)C2(C)C

>  <smiles>  (292) 
[H]OC1([H])C2=C3C([H])([H])C([H])(C([H])=C2C2(C([H])([H])[H])C([H])(O[H])C4([H])C([H])(C([H])([H])C(C([H])([H])[H])(C([H])([H])[H])C2([H])C([H])([H])C3([H])O[H])C4(C([H])([H])[H])C([H])([H])[H])C1([H])[H]

$$$$
72:0:1
     RDKit          3D

 60 64  0  0  1  0  0  0  0  0999 V2000
    5.7640   -0.5090    1.6707 C   0  0  0  0  0  0  0  0  0  0  0  0
    4.5933   -1.3834    1.1860 C   0  0  0  0  0  0  0  0  0  0  0  0
    3.3072   -0.6211    1.5892 C   0  0  0  0  0  0  0  0  0  0  0  0
    4.7798   -1.3393   -0.3697 C   0  0  0  0  0  0  0  0  0  0  0  0
    3.6287   -1.9751   -1.0782 C   0  0  2  0  0  0  0  0  0  0  0  0
    3.6964   -3.4627   -0.9123 C   0  0  1  0  0  0  0  0  0  0  0  0
    2.7576   -3.8556    0.2155 C   0  0  1  0  0  0  0  0  0  0  0  0
    2.0792   -5.0498   -0.1484 O   0  0  0  0  0  0  0  0  0  0  0  0
    3.5383   -3.9525    1.5841 C   0  0  2  0  0  0  0  0  0  0  0  0
    4.2102   -5.3663    1.5886 C   0  0  0  0  0  0  0  0  0  0  0  0
    2.6072   -3.8845    2.7966 C   0  0  0  0  0  0  0  0  0  0  0  0
    1.4729   -3.1533    2.9206 C   0  0  0  0  0  0  0  0  0  0  0  0
    0.8593   -3.0733    4.3325 C   0  0  2  0  0  0  0  0  0  0  0  0
    2.0030   -2.5969    5.2906 C   0  0  0  0  0  0  0  0  0  0  0  0
    3.2872   -3.3476    4.8730 C   0  0  0  0  0  0  0  0  0  0  0  0
    2.9925   -4.4223    4.1016 C   0  0  0  0  0  0  0  0  0  0  0  0
    1.8930   -5.3409    4.6483 C   0  0  1  0  0  0  0  0  0  0  0  0
    2.2466   -5.8470    5.9213 O   0  0  0  0  0  0  0  0  0  0  0  0
    0.5686   -4.5335    4.7525 C   0  0  0  0  0  0  0  0  0  0  0  0
    4.4387   -2.4262    4.4864 C   0  0  1  0  0  0  0  0  0  0  0  0
    5.3263   -2.3206    5.5869 O   0  0  0  0  0  0  0  0  0  0  0  0
    5.2616   -2.9106    3.2648 C   0  0  0  0  0  0  0  0  0  0  0  0
    4.6853   -2.8630    1.8018 C   0  0  2  0  0  0  0  0  0  0  0  0
    3.4979   -2.8576   -2.2849 C   0  0  0  0  0  0  0  0  0  0  0  0
    2.1644   -3.0438   -2.9676 C   0  0  0  0  0  0  0  0  0  0  0  0
    4.6125   -2.8607   -3.3117 C   0  0  0  0  0  0  0  0  0  0  0  0
    5.7656    0.4508    1.1589 H   0  0  0  0  0  0  0  0  0  0  0  0
    6.7343   -0.9699    1.4715 H   0  0  0  0  0  0  0  0  0  0  0  0
    5.7133   -0.2716    2.7334 H   0  0  0  0  0  0  0  0  0  0  0  0
    2.4085   -1.1375    1.2811 H   0  0  0  0  0  0  0  0  0  0  0  0
    3.2728    0.3592    1.1231 H   0  0  0  0  0  0  0  0  0  0  0  0
    3.2340   -0.4550    2.6550 H   0  0  0  0  0  0  0  0  0  0  0  0
    4.8210   -0.3085   -0.7205 H   0  0  0  0  0  0  0  0  0  0  0  0
    5.7160   -1.8073   -0.6676 H   0  0  0  0  0  0  0  0  0  0  0  0
    2.7138   -1.4436   -0.9054 H   0  0  0  0  0  0  0  0  0  0  0  0
    4.6549   -3.9543   -0.8522 H   0  0  0  0  0  0  0  0  0  0  0  0
    1.9729   -3.1035    0.2738 H   0  0  0  0  0  0  0  0  0  0  0  0
    2.5393   -5.4300   -0.8931 H   0  0  0  0  0  0  0  0  0  0  0  0
    4.8646   -5.5160    0.7312 H   0  0  0  0  0  0  0  0  0  0  0  0
    3.4707   -6.1693    1.5795 H   0  0  0  0  0  0  0  0  0  0  0  0
    4.8128   -5.5571    2.4715 H   0  0  0  0  0  0  0  0  0  0  0  0
    1.0304   -2.5612    2.1393 H   0  0  0  0  0  0  0  0  0  0  0  0
   -0.0230   -2.4428    4.3550 H   0  0  0  0  0  0  0  0  0  0  0  0
    2.1283   -1.5198    5.2135 H   0  0  0  0  0  0  0  0  0  0  0  0
    1.7735   -2.8206    6.3333 H   0  0  0  0  0  0  0  0  0  0  0  0
    1.7780   -6.1765    3.9577 H   0  0  0  0  0  0  0  0  0  0  0  0
    1.7807   -6.6516    6.0617 H   0  0  0  0  0  0  0  0  0  0  0  0
    0.1343   -4.5738    5.7506 H   0  0  0  0  0  0  0  0  0  0  0  0
   -0.1750   -4.9723    4.0929 H   0  0  0  0  0  0  0  0  0  0  0  0
    4.0829   -1.4219    4.3062 H   0  0  0  0  0  0  0  0  0  0  0  0
    5.6295   -3.1876    5.8029 H   0  0  0  0  0  0  0  0  0  0  0  0
    6.1480   -2.3069    3.2697 H   0  0  0  0  0  0  0  0  0  0  0  0
    5.6528   -3.9022    3.4811 H   0  0  0  0  0  0  0  0  0  0  0  0
    5.5241   -3.2614    1.2289 H   0  0  0  0  0  0  0  0  0  0  0  0
    2.1462   -3.9985   -3.5040 H   0  0  0  0  0  0  0  0  0  0  0  0
    1.9638   -2.2461   -3.6788 H   0  0  0  0  0  0  0  0  0  0  0  0
    1.3658   -3.0576   -2.2293 H   0  0  0  0  0  0  0  0  0  0  0  0
    4.6106   -3.7985   -3.8710 H   0  0  0  0  0  0  0  0  0  0  0  0
    5.5745   -2.7488   -2.8189 H   0  0  0  0  0  0  0  0  0  0  0  0
    4.4746   -2.0274   -4.0068 H   0  0  0  0  0  0  0  0  0  0  0  0
  1  2  1  0
  1 27  1  0
  1 28  1  0
  1 29  1  0
  2 23  1  0
  2  3  1  0
  2  4  1  0
  3 30  1  0
  3 31  1  0
  3 32  1  0
  4  5  1  0
  4 33  1  0
  4 34  1  0
  5 24  1  0
  5  6  1  0
  5 35  1  1
  6  7  1  0
  6 24  1  0
  6 36  1  6
  7  8  1  0
  7  9  1  0
  7 37  1  1
  8 38  1  0
  9 23  1  0
  9 10  1  6
  9 11  1  0
 10 39  1  0
 10 40  1  0
 10 41  1  0
 11 16  1  0
 11 12  2  0
 12 13  1  0
 12 42  1  0
 13 19  1  0
 13 14  1  0
 13 43  1  6
 14 15  1  0
 14 44  1  0
 14 45  1  0
 15 16  2  0
 15 20  1  0
 16 17  1  0
 17 18  1  0
 17 19  1  0
 17 46  1  6
 18 47  1  0
 19 48  1  0
 19 49  1  0
 20 21  1  0
 20 22  1  0
 20 50  1  6
 21 51  1  0
 22 23  1  0
 22 52  1  0
 22 53  1  0
 23 54  1  6
 24 25  1  0
 24 26  1  0
 25 55  1  0
 25 56  1  0
 25 57  1  0
 26 58  1  0
 26 59  1  0
 26 60  1  0
M  END
>  <i_m_ct_stereo_status>  (293) 
1

>  <s_m_source_file>  (293) 
/var/tmp/pbs.5076255.sched01/tmp7rmqr72f/92ch8atech.sdf

>  <i_m_source_file_index>  (293) 
19

>  <i_lp_mmshare_version>  (293) 
48012

>  <i_f3d_flags>  (293) 
0

>  <s_epik_input>  (293) 
W09IXVtDQEBIXTFbQ0BASF0oQzIoW0NIM10pW0NIM10pW0NASF0yW0NIMl1DKFtDSDNdKShbQ0gzXSlbQ0BIXTNbQ0gyXVtDQEhdKFtPSF0pQyg9QzRDPTVbQ0BAXTEzW0NIM10pW0NIMl1bQ0BASF0oW0NIXTUpW0NIMl1bQ0BASF00W09IXQ==

>  <s_epik_cmdline>  (293) 
J2VwaWtfcHl0aG9uJywgJy1waHQnLCAnMi4wJywgJy1waCcsICc3LjAnLCAnLXRuJywgJzgnLCAnLW1hJywgJzIwMCcsICctaW1hZScsICc8aW5maWxlLm1hZT4nLCAnLW9tYWUnLCAnPG91dGZpbGUubWFlPic=

>  <r_lp_tautomer_probability>  (293) 
1

>  <r_epik_Ionization_Penalty>  (293) 
1.03949e-06

>  <r_epik_Ionization_Penalty_Charging>  (293) 
0

>  <r_epik_Ionization_Penalty_Neutral>  (293) 
1.03949e-06

>  <r_epik_State_Penalty>  (293) 
-0

>  <r_epik_Charging_Adjusted_Penalty>  (293) 
0

>  <i_epik_Tot_Q>  (293) 
0

>  <i_epik_Tot_abs_Q>  (293) 
0

>  <s_lp_Force_Field>  (293) 
OPLS3e

>  <r_lp_Energy>  (293) 
162.295

>  <b_lp_Chiralities_Consistent>  (293) 
1

>  <s_lp_Variant>  (293) 
72:0-1

>  <s_i_glide_gridfile>  (293) 
pfpi4k_grid

>  <i_i_glide_lignum>  (293) 
19

>  <i_i_glide_rotatable_bonds>  (293) 
3

>  <r_i_docking_score>  (293) 
-3.78141

>  <r_i_glide_ligand_efficiency>  (293) 
-0.145439

>  <r_i_glide_ligand_efficiency_sa>  (293) 
-0.430862

>  <r_i_glide_ligand_efficiency_ln>  (293) 
-0.888051

>  <r_i_glide_gscore>  (293) 
-3.78141

>  <r_i_glide_lipo>  (293) 
-0.574249

>  <r_i_glide_hbond>  (293) 
-0.335727

>  <r_i_glide_metal>  (293) 
-0

>  <r_i_glide_rewards>  (293) 
-0.964675

>  <r_i_glide_evdw>  (293) 
-20.8928

>  <r_i_glide_ecoul>  (293) 
-5.74744

>  <r_i_glide_erotb>  (293) 
0

>  <r_i_glide_esite>  (293) 
0

>  <r_i_glide_emodel>  (293) 
-31.9968

>  <r_i_glide_energy>  (293) 
-26.6403

>  <r_i_glide_einternal>  (293) 
1.80819

>  <r_i_glide_intrahb_reward>  (293) 
-0

>  <i_i_glide_confnum>  (293) 
2

>  <i_i_glide_posenum>  (293) 
32

>  <r_i_glide_eff_state_penalty>  (293) 
0

>  <ligand_id>  (293) 
72

>  <original_smiles>  (293) 
CC1(C)CC2C(C(O)C3(C)C4=CC5CC(=C4C(O)C5)C(O)CC13)C2(C)C

>  <smiles>  (293) 
[H]OC1([H])C2=C3C([H])([H])C([H])(C([H])=C2C2(C([H])([H])[H])C([H])(O[H])C4([H])C([H])(C([H])([H])C(C([H])([H])[H])(C([H])([H])[H])C2([H])C([H])([H])C3([H])O[H])C4(C([H])([H])[H])C([H])([H])[H])C1([H])[H]

$$$$
72:0:2
     RDKit          3D

 60 64  0  0  1  0  0  0  0  0999 V2000
    4.3059   -3.4347    5.3423 C   0  0  0  0  0  0  0  0  0  0  0  0
    4.0801   -3.8096    3.8531 C   0  0  0  0  0  0  0  0  0  0  0  0
    2.5845   -4.1751    3.7285 C   0  0  0  0  0  0  0  0  0  0  0  0
    4.3554   -2.4566    3.1057 C   0  0  0  0  0  0  0  0  0  0  0  0
    3.9922   -2.5270    1.6488 C   0  0  2  0  0  0  0  0  0  0  0  0
    5.0170   -3.3566    0.9254 C   0  0  1  0  0  0  0  0  0  0  0  0
    4.4508   -4.7493    0.7791 C   0  0  1  0  0  0  0  0  0  0  0  0
    4.7968   -5.2369   -0.5028 O   0  0  0  0  0  0  0  0  0  0  0  0
    4.9526   -5.6847    1.9491 C   0  0  2  0  0  0  0  0  0  0  0  0
    6.3838   -6.1640    1.5416 C   0  0  0  0  0  0  0  0  0  0  0  0
    4.0792   -6.9360    2.0901 C   0  0  0  0  0  0  0  0  0  0  0  0
    2.7404   -7.0360    1.8561 C   0  0  0  0  0  0  0  0  0  0  0  0
    2.0748   -8.3329    2.3490 C   0  0  2  0  0  0  0  0  0  0  0  0
    2.5026   -8.5459    3.8480 C   0  0  0  0  0  0  0  0  0  0  0  0
    3.9971   -8.1738    3.9619 C   0  0  0  0  0  0  0  0  0  0  0  0
    4.5756   -8.1450    2.7433 C   0  0  0  0  0  0  0  0  0  0  0  0
    4.3079   -9.3726    1.8552 C   0  0  1  0  0  0  0  0  0  0  0  0
    4.7468  -10.5722    2.4770 O   0  0  0  0  0  0  0  0  0  0  0  0
    2.7796   -9.4610    1.5711 C   0  0  0  0  0  0  0  0  0  0  0  0
    4.2901   -7.0684    4.9842 C   0  0  1  0  0  0  0  0  0  0  0  0
    4.7187   -7.6771    6.1816 O   0  0  0  0  0  0  0  0  0  0  0  0
    5.3856   -6.0452    4.5429 C   0  0  0  0  0  0  0  0  0  0  0  0
    5.0655   -4.9959    3.3997 C   0  0  2  0  0  0  0  0  0  0  0  0
    4.6244   -1.9976    0.3884 C   0  0  0  0  0  0  0  0  0  0  0  0
    3.8373   -1.9396   -0.9082 C   0  0  0  0  0  0  0  0  0  0  0  0
    5.5687   -0.8139    0.4968 C   0  0  0  0  0  0  0  0  0  0  0  0
    3.7162   -2.5628    5.6287 H   0  0  0  0  0  0  0  0  0  0  0  0
    5.3501   -3.1889    5.5410 H   0  0  0  0  0  0  0  0  0  0  0  0
    4.0069   -4.2316    6.0242 H   0  0  0  0  0  0  0  0  0  0  0  0
    2.3027   -4.4482    2.7184 H   0  0  0  0  0  0  0  0  0  0  0  0
    1.9546   -3.3313    4.0089 H   0  0  0  0  0  0  0  0  0  0  0  0
    2.2920   -4.9979    4.3706 H   0  0  0  0  0  0  0  0  0  0  0  0
    3.7534   -1.6545    3.5354 H   0  0  0  0  0  0  0  0  0  0  0  0
    5.3961   -2.1517    3.2258 H   0  0  0  0  0  0  0  0  0  0  0  0
    2.9277   -2.6934    1.4973 H   0  0  0  0  0  0  0  0  0  0  0  0
    6.0511   -3.3501    1.2613 H   0  0  0  0  0  0  0  0  0  0  0  0
    3.3655   -4.6839    0.7660 H   0  0  0  0  0  0  0  0  0  0  0  0
    4.0140   -5.4553   -0.9906 H   0  0  0  0  0  0  0  0  0  0  0  0
    7.0666   -5.3333    1.3685 H   0  0  0  0  0  0  0  0  0  0  0  0
    6.3660   -6.7544    0.6283 H   0  0  0  0  0  0  0  0  0  0  0  0
    6.8623   -6.8061    2.2776 H   0  0  0  0  0  0  0  0  0  0  0  0
    2.1150   -6.2605    1.4515 H   0  0  0  0  0  0  0  0  0  0  0  0
    0.9962   -8.3340    2.1997 H   0  0  0  0  0  0  0  0  0  0  0  0
    1.8814   -7.9444    4.5110 H   0  0  0  0  0  0  0  0  0  0  0  0
    2.3707   -9.5871    4.1493 H   0  0  0  0  0  0  0  0  0  0  0  0
    4.8545   -9.2589    0.9184 H   0  0  0  0  0  0  0  0  0  0  0  0
    4.6031  -11.2760    1.8403 H   0  0  0  0  0  0  0  0  0  0  0  0
    2.3716  -10.4301    1.8555 H   0  0  0  0  0  0  0  0  0  0  0  0
    2.5962   -9.3634    0.5022 H   0  0  0  0  0  0  0  0  0  0  0  0
    3.3772   -6.5398    5.2374 H   0  0  0  0  0  0  0  0  0  0  0  0
    4.0887   -8.3420    6.4173 H   0  0  0  0  0  0  0  0  0  0  0  0
    5.7173   -5.5151    5.4326 H   0  0  0  0  0  0  0  0  0  0  0  0
    6.2817   -6.6090    4.2917 H   0  0  0  0  0  0  0  0  0  0  0  0
    6.0127   -4.4593    3.3417 H   0  0  0  0  0  0  0  0  0  0  0  0
    4.5093   -1.9754   -1.7670 H   0  0  0  0  0  0  0  0  0  0  0  0
    3.2401   -1.0291   -0.9575 H   0  0  0  0  0  0  0  0  0  0  0  0
    3.1572   -2.7903   -0.9728 H   0  0  0  0  0  0  0  0  0  0  0  0
    6.2579   -0.7975   -0.3450 H   0  0  0  0  0  0  0  0  0  0  0  0
    6.1554   -0.8756    1.4147 H   0  0  0  0  0  0  0  0  0  0  0  0
    5.0065    0.1215    0.5114 H   0  0  0  0  0  0  0  0  0  0  0  0
  1  2  1  0
  1 27  1  0
  1 28  1  0
  1 29  1  0
  2 23  1  0
  2  3  1  0
  2  4  1  0
  3 30  1  0
  3 31  1  0
  3 32  1  0
  4  5  1  0
  4 33  1  0
  4 34  1  0
  5 24  1  0
  5  6  1  0
  5 35  1  1
  6  7  1  0
  6 24  1  0
  6 36  1  1
  7  8  1  0
  7  9  1  0
  7 37  1  6
  8 38  1  0
  9 23  1  0
  9 10  1  6
  9 11  1  0
 10 39  1  0
 10 40  1  0
 10 41  1  0
 11 16  1  0
 11 12  2  0
 12 13  1  0
 12 42  1  0
 13 19  1  0
 13 14  1  0
 13 43  1  1
 14 15  1  0
 14 44  1  0
 14 45  1  0
 15 16  2  0
 15 20  1  0
 16 17  1  0
 17 18  1  0
 17 19  1  0
 17 46  1  6
 18 47  1  0
 19 48  1  0
 19 49  1  0
 20 21  1  0
 20 22  1  0
 20 50  1  1
 21 51  1  0
 22 23  1  0
 22 52  1  0
 22 53  1  0
 23 54  1  6
 24 25  1  0
 24 26  1  0
 25 55  1  0
 25 56  1  0
 25 57  1  0
 26 58  1  0
 26 59  1  0
 26 60  1  0
M  END
>  <i_m_ct_stereo_status>  (294) 
1

>  <s_m_source_file>  (294) 
/var/tmp/pbs.5076255.sched01/tmp7rmqr72f/92ch8atech.sdf

>  <i_m_source_file_index>  (294) 
19

>  <i_lp_mmshare_version>  (294) 
48012

>  <i_f3d_flags>  (294) 
0

>  <s_epik_input>  (294) 
W09IXVtDQEBIXTFbQ0BASF0oQzIoW0NIM10pW0NIM10pW0NASF0yW0NIMl1DKFtDSDNdKShbQ0gzXSlbQ0BIXTNbQ0gyXVtDQEhdKFtPSF0pQyg9QzRDPTVbQ0BAXTEzW0NIM10pW0NIMl1bQ0BASF0oW0NIXTUpW0NIMl1bQ0BASF00W09IXQ==

>  <s_epik_cmdline>  (294) 
J2VwaWtfcHl0aG9uJywgJy1waHQnLCAnMi4wJywgJy1waCcsICc3LjAnLCAnLXRuJywgJzgnLCAnLW1hJywgJzIwMCcsICctaW1hZScsICc8aW5maWxlLm1hZT4nLCAnLW9tYWUnLCAnPG91dGZpbGUubWFlPic=

>  <r_lp_tautomer_probability>  (294) 
1

>  <r_epik_Ionization_Penalty>  (294) 
1.03949e-06

>  <r_epik_Ionization_Penalty_Charging>  (294) 
0

>  <r_epik_Ionization_Penalty_Neutral>  (294) 
1.03949e-06

>  <r_epik_State_Penalty>  (294) 
-0

>  <r_epik_Charging_Adjusted_Penalty>  (294) 
0

>  <i_epik_Tot_Q>  (294) 
0

>  <i_epik_Tot_abs_Q>  (294) 
0

>  <s_lp_Force_Field>  (294) 
OPLS3e

>  <r_lp_Energy>  (294) 
162.295

>  <b_lp_Chiralities_Consistent>  (294) 
1

>  <s_lp_Variant>  (294) 
72:0-1

>  <s_i_glide_gridfile>  (294) 
pfpi4k_grid

>  <i_i_glide_lignum>  (294) 
19

>  <i_i_glide_rotatable_bonds>  (294) 
3

>  <r_i_docking_score>  (294) 
-3.70483

>  <r_i_glide_ligand_efficiency>  (294) 
-0.142493

>  <r_i_glide_ligand_efficiency_sa>  (294) 
-0.422136

>  <r_i_glide_ligand_efficiency_ln>  (294) 
-0.870067

>  <r_i_glide_gscore>  (294) 
-3.70483

>  <r_i_glide_lipo>  (294) 
-0.352915

>  <r_i_glide_hbond>  (294) 
-0.456

>  <r_i_glide_metal>  (294) 
-0

>  <r_i_glide_rewards>  (294) 
-0.964675

>  <r_i_glide_evdw>  (294) 
-21.643

>  <r_i_glide_ecoul>  (294) 
-5.66059

>  <r_i_glide_erotb>  (294) 
0

>  <r_i_glide_esite>  (294) 
0

>  <r_i_glide_emodel>  (294) 
-32.7467

>  <r_i_glide_energy>  (294) 
-27.3036

>  <r_i_glide_einternal>  (294) 
2.26374

>  <r_i_glide_intrahb_reward>  (294) 
-0

>  <i_i_glide_confnum>  (294) 
1

>  <i_i_glide_posenum>  (294) 
36

>  <r_i_glide_eff_state_penalty>  (294) 
0

>  <ligand_id>  (294) 
72

>  <original_smiles>  (294) 
CC1(C)CC2C(C(O)C3(C)C4=CC5CC(=C4C(O)C5)C(O)CC13)C2(C)C

>  <smiles>  (294) 
[H]OC1([H])C2=C3C([H])([H])C([H])(C([H])=C2C2(C([H])([H])[H])C([H])(O[H])C4([H])C([H])(C([H])([H])C(C([H])([H])[H])(C([H])([H])[H])C2([H])C([H])([H])C3([H])O[H])C4(C([H])([H])[H])C([H])([H])[H])C1([H])[H]

$$$$
73:0:0
     RDKit          3D

 48 52  0  0  1  0  0  0  0  0999 V2000
    2.8570   -7.7362    2.6680 C   0  0  0  0  0  0  0  0  0  0  0  0
    3.2507   -6.5279    1.8416 C   0  0  0  0  0  0  0  0  0  0  0  0
    4.2041   -6.5696    0.8520 C   0  0  0  0  0  0  0  0  0  0  0  0
    4.5025   -5.3212    0.1847 C   0  0  0  0  0  0  0  0  0  0  0  0
    5.5714   -4.6261    0.6318 C   0  0  0  0  0  0  0  0  0  0  0  0
    5.3253   -3.1294    0.7998 C   0  0  1  0  0  0  0  0  0  0  0  0
    5.0460   -2.5764   -0.6542 C   0  0  2  0  0  0  0  0  0  0  0  0
    6.1691   -3.0948   -1.6187 C   0  0  0  0  0  0  0  0  0  0  0  0
    4.9675   -1.0418   -0.9115 C   0  0  0  0  0  0  0  0  0  0  0  0
    4.5422   -0.7171   -2.3602 C   0  0  0  0  0  0  0  0  0  0  0  0
    3.3722   -1.5700   -2.9111 C   0  0  1  0  0  0  0  0  0  0  0  0
    3.4471   -1.5299   -4.3210 O   0  0  0  0  0  0  0  0  0  0  0  0
    3.3089   -3.0524   -2.4676 C   0  0  0  0  0  0  0  0  0  0  0  0
    3.6314   -3.1367   -0.9697 C   0  0  1  0  0  0  0  0  0  0  0  0
    3.3066   -4.4288   -0.1520 C   0  0  2  0  0  0  0  0  0  0  0  0
    2.9116   -3.9660    1.2878 C   0  0  1  0  0  0  0  0  0  0  0  0
    2.5584   -5.2268    2.1238 C   0  0  0  0  0  0  0  0  0  0  0  0
    1.6775   -5.1145    2.9932 O   0  0  0  0  0  0  0  0  0  0  0  0
    4.1255   -3.0651    1.8508 C   0  0  1  0  0  0  0  0  0  0  0  0
    4.6326   -3.4887    3.2667 C   0  0  0  0  0  0  0  0  0  0  0  0
    5.0767   -2.2955    3.8876 O   0  0  0  0  0  0  0  0  0  0  0  0
    4.5393   -1.2263    3.3344 C   0  0  0  0  0  0  0  0  0  0  0  0
    4.7708   -0.0559    3.6160 O   0  0  0  0  0  0  0  0  0  0  0  0
    3.6541   -1.6294    2.1504 C   0  0  0  0  0  0  0  0  0  0  0  0
    3.0114   -7.5428    3.7360 H   0  0  0  0  0  0  0  0  0  0  0  0
    3.4387   -8.6185    2.3907 H   0  0  0  0  0  0  0  0  0  0  0  0
    1.7974   -7.9685    2.5242 H   0  0  0  0  0  0  0  0  0  0  0  0
    4.7242   -7.4784    0.6139 H   0  0  0  0  0  0  0  0  0  0  0  0
    6.3811   -5.1072    1.1844 H   0  0  0  0  0  0  0  0  0  0  0  0
    6.2446   -2.6896    1.1979 H   0  0  0  0  0  0  0  0  0  0  0  0
    6.0886   -2.7223   -2.6441 H   0  0  0  0  0  0  0  0  0  0  0  0
    6.1737   -4.1765   -1.7432 H   0  0  0  0  0  0  0  0  0  0  0  0
    7.1605   -2.7914   -1.2633 H   0  0  0  0  0  0  0  0  0  0  0  0
    4.1750   -0.5092   -0.3960 H   0  0  0  0  0  0  0  0  0  0  0  0
    5.9225   -0.5556   -0.6633 H   0  0  0  0  0  0  0  0  0  0  0  0
    4.2214    0.3232   -2.4043 H   0  0  0  0  0  0  0  0  0  0  0  0
    5.4091   -0.7556   -3.0480 H   0  0  0  0  0  0  0  0  0  0  0  0
    2.4485   -1.0941   -2.5964 H   0  0  0  0  0  0  0  0  0  0  0  0
    2.6145   -1.7981   -4.6676 H   0  0  0  0  0  0  0  0  0  0  0  0
    2.3045   -3.4511   -2.6464 H   0  0  0  0  0  0  0  0  0  0  0  0
    4.0018   -3.6762   -3.0317 H   0  0  0  0  0  0  0  0  0  0  0  0
    2.9375   -2.4006   -0.5622 H   0  0  0  0  0  0  0  0  0  0  0  0
    2.4845   -4.9989   -0.6142 H   0  0  0  0  0  0  0  0  0  0  0  0
    2.0063   -3.3566    1.2386 H   0  0  0  0  0  0  0  0  0  0  0  0
    3.8214   -3.8292    3.9009 H   0  0  0  0  0  0  0  0  0  0  0  0
    5.4073   -4.2663    3.2593 H   0  0  0  0  0  0  0  0  0  0  0  0
    3.9157   -0.9219    1.3793 H   0  0  0  0  0  0  0  0  0  0  0  0
    2.5815   -1.5957    2.3963 H   0  0  0  0  0  0  0  0  0  0  0  0
  1  2  1  0
  1 25  1  0
  1 26  1  0
  1 27  1  0
  2 17  1  0
  2  3  2  0
  3  4  1  0
  3 28  1  0
  4 15  1  0
  4  5  2  0
  5  6  1  0
  5 29  1  0
  6 19  1  0
  6  7  1  0
  6 30  1  1
  7 14  1  0
  7  8  1  6
  7  9  1  0
  8 31  1  0
  8 32  1  0
  8 33  1  0
  9 10  1  0
  9 34  1  0
  9 35  1  0
 10 11  1  0
 10 36  1  0
 10 37  1  0
 11 12  1  0
 11 13  1  0
 11 38  1  6
 12 39  1  0
 13 14  1  0
 13 40  1  0
 13 41  1  0
 14 15  1  0
 14 42  1  1
 15 16  1  0
 15 43  1  6
 16 17  1  0
 16 19  1  0
 16 44  1  6
 17 18  2  0
 19 24  1  1
 19 20  1  0
 20 21  1  0
 20 45  1  0
 20 46  1  0
 21 22  1  0
 22 23  2  0
 22 24  1  0
 24 47  1  0
 24 48  1  0
M  END
>  <i_m_ct_stereo_status>  (295) 
1

>  <s_m_source_file>  (295) 
/var/tmp/pbs.5076255.sched01/tmp7rmqr72f/92ch8atech.sdf

>  <i_m_source_file_index>  (295) 
20

>  <i_lp_mmshare_version>  (295) 
48012

>  <i_f3d_flags>  (295) 
0

>  <s_epik_input>  (295) 
W0NAQEhdMTJDKD1PKUMoW0NIM10pPVtDSF1DKD1bQ0hdMylbQ0BASF0xW0NASF0oW0NIMl1bQ0BIXShbT0hdKVtDSDJdW0NIMl00KVtDQF00KFtDSDNdKVtDQEhdM1tDQF0yNVtDSDJdT0MoPU8pW0NIMl01

>  <s_epik_cmdline>  (295) 
J2VwaWtfcHl0aG9uJywgJy1waHQnLCAnMi4wJywgJy1waCcsICc3LjAnLCAnLXRuJywgJzgnLCAnLW1hJywgJzIwMCcsICctaW1hZScsICc8aW5maWxlLm1hZT4nLCAnLW9tYWUnLCAnPG91dGZpbGUubWFlPic=

>  <r_lp_tautomer_probability>  (295) 
1

>  <r_epik_Ionization_Penalty>  (295) 
1.01348e-06

>  <r_epik_Ionization_Penalty_Charging>  (295) 
0

>  <r_epik_Ionization_Penalty_Neutral>  (295) 
1.01348e-06

>  <r_epik_State_Penalty>  (295) 
-0

>  <r_epik_Charging_Adjusted_Penalty>  (295) 
0

>  <i_epik_Tot_Q>  (295) 
0

>  <i_epik_Tot_abs_Q>  (295) 
0

>  <s_epik_Chemistry_Notes>  (295) 
This compound has an ester and may undergo hydrolysis at high or low pH.

>  <s_lp_Force_Field>  (295) 
OPLS3e

>  <r_lp_Energy>  (295) 
88.7421

>  <b_lp_Chiralities_Consistent>  (295) 
1

>  <s_lp_Variant>  (295) 
73:0-1

>  <s_i_glide_gridfile>  (295) 
pfpi4k_grid

>  <i_i_glide_lignum>  (295) 
20

>  <i_i_glide_rotatable_bonds>  (295) 
1

>  <r_i_docking_score>  (295) 
-4.04509

>  <r_i_glide_ligand_efficiency>  (295) 
-0.168545

>  <r_i_glide_ligand_efficiency_sa>  (295) 
-0.486169

>  <r_i_glide_ligand_efficiency_ln>  (295) 
-0.968176

>  <r_i_glide_gscore>  (295) 
-4.04509

>  <r_i_glide_lipo>  (295) 
-0.409872

>  <r_i_glide_hbond>  (295) 
-0.384227

>  <r_i_glide_metal>  (295) 
-0

>  <r_i_glide_rewards>  (295) 
-1.23197

>  <r_i_glide_evdw>  (295) 
-27.5486

>  <r_i_glide_ecoul>  (295) 
-4.19632

>  <r_i_glide_erotb>  (295) 
0

>  <r_i_glide_esite>  (295) 
-0.01214

>  <r_i_glide_emodel>  (295) 
-38.877

>  <r_i_glide_energy>  (295) 
-31.745

>  <r_i_glide_einternal>  (295) 
0.434307

>  <r_i_glide_intrahb_reward>  (295) 
-0

>  <i_i_glide_confnum>  (295) 
3

>  <i_i_glide_posenum>  (295) 
24

>  <r_i_glide_eff_state_penalty>  (295) 
0

>  <ligand_id>  (295) 
73

>  <original_smiles>  (295) 
CC1=CC2=CC3C4(C)CCC(O)CC4C2C(C1=O)C31COC(=O)C1

>  <smiles>  (295) 
[H]OC1([H])C([H])([H])C([H])([H])C2(C([H])([H])[H])C3([H])C([H])=C4C([H])=C(C([H])([H])[H])C(=O)C([H])(C4([H])C2([H])C1([H])[H])C31C([H])([H])OC(=O)C1([H])[H]

$$$$
73:0:1
     RDKit          3D

 48 52  0  0  1  0  0  0  0  0999 V2000
    2.4835   -7.6889    2.6113 C   0  0  0  0  0  0  0  0  0  0  0  0
    2.9413   -6.4934    1.7834 C   0  0  0  0  0  0  0  0  0  0  0  0
    3.9139   -6.5572    0.8401 C   0  0  0  0  0  0  0  0  0  0  0  0
    4.2853   -5.3168    0.1854 C   0  0  0  0  0  0  0  0  0  0  0  0
    5.3465   -4.6584    0.6933 C   0  0  0  0  0  0  0  0  0  0  0  0
    5.1471   -3.1532    0.8491 C   0  0  1  0  0  0  0  0  0  0  0  0
    4.9123   -2.6050   -0.6132 C   0  0  2  0  0  0  0  0  0  0  0  0
    6.0678   -3.1266   -1.5429 C   0  0  0  0  0  0  0  0  0  0  0  0
    4.8603   -1.0685   -0.8256 C   0  0  0  0  0  0  0  0  0  0  0  0
    4.5052   -0.7152   -2.2931 C   0  0  0  0  0  0  0  0  0  0  0  0
    3.3452   -1.5405   -2.9276 C   0  0  1  0  0  0  0  0  0  0  0  0
    3.4778   -1.4855   -4.3339 O   0  0  0  0  0  0  0  0  0  0  0  0
    3.2446   -3.0304   -2.4997 C   0  0  0  0  0  0  0  0  0  0  0  0
    3.5028   -3.1277   -0.9937 C   0  0  1  0  0  0  0  0  0  0  0  0
    3.1126   -4.4119   -0.1919 C   0  0  2  0  0  0  0  0  0  0  0  0
    2.7001   -3.9332    1.2421 C   0  0  1  0  0  0  0  0  0  0  0  0
    2.2567   -5.1808    2.0648 C   0  0  0  0  0  0  0  0  0  0  0  0
    1.3180   -5.0585    2.8662 O   0  0  0  0  0  0  0  0  0  0  0  0
    3.9089   -3.0610    1.8387 C   0  0  1  0  0  0  0  0  0  0  0  0
    4.3231   -3.4804    3.2876 C   0  0  0  0  0  0  0  0  0  0  0  0
    3.5302   -2.6687    4.1346 O   0  0  0  0  0  0  0  0  0  0  0  0
    3.0351   -1.5968    3.5264 C   0  0  0  0  0  0  0  0  0  0  0  0
    2.3364   -0.7197    4.0247 O   0  0  0  0  0  0  0  0  0  0  0  0
    3.4557   -1.6134    2.0771 C   0  0  0  0  0  0  0  0  0  0  0  0
    2.6201   -7.4894    3.6758 H   0  0  0  0  0  0  0  0  0  0  0  0
    3.0589   -8.5833    2.3694 H   0  0  0  0  0  0  0  0  0  0  0  0
    1.4263   -7.9106    2.4449 H   0  0  0  0  0  0  0  0  0  0  0  0
    4.4512   -7.4774    0.6457 H   0  0  0  0  0  0  0  0  0  0  0  0
    6.1215   -5.1375    1.2783 H   0  0  0  0  0  0  0  0  0  0  0  0
    6.0427   -2.7148    1.2858 H   0  0  0  0  0  0  0  0  0  0  0  0
    6.0251   -2.7533   -2.5663 H   0  0  0  0  0  0  0  0  0  0  0  0
    6.0468   -4.2102   -1.6624 H   0  0  0  0  0  0  0  0  0  0  0  0
    7.0494   -2.8428   -1.1501 H   0  0  0  0  0  0  0  0  0  0  0  0
    4.1046   -0.5997   -0.2052 H   0  0  0  0  0  0  0  0  0  0  0  0
    5.8088   -0.6032   -0.5503 H   0  0  0  0  0  0  0  0  0  0  0  0
    4.2527    0.3407   -2.3566 H   0  0  0  0  0  0  0  0  0  0  0  0
    5.4049   -0.7894   -2.8917 H   0  0  0  0  0  0  0  0  0  0  0  0
    2.4115   -1.0509   -2.6516 H   0  0  0  0  0  0  0  0  0  0  0  0
    2.6537   -1.7225   -4.7355 H   0  0  0  0  0  0  0  0  0  0  0  0
    2.2435   -3.4102   -2.7224 H   0  0  0  0  0  0  0  0  0  0  0  0
    3.9460   -3.6609   -3.0467 H   0  0  0  0  0  0  0  0  0  0  0  0
    2.7972   -2.3813   -0.6250 H   0  0  0  0  0  0  0  0  0  0  0  0
    2.3046   -4.9594   -0.7037 H   0  0  0  0  0  0  0  0  0  0  0  0
    1.8308   -3.2860    1.1315 H   0  0  0  0  0  0  0  0  0  0  0  0
    4.1885   -4.5394    3.5261 H   0  0  0  0  0  0  0  0  0  0  0  0
    5.3749   -3.2519    3.4774 H   0  0  0  0  0  0  0  0  0  0  0  0
    4.2776   -0.9062    1.9644 H   0  0  0  0  0  0  0  0  0  0  0  0
    2.6350   -1.3102    1.4238 H   0  0  0  0  0  0  0  0  0  0  0  0
  1  2  1  0
  1 25  1  0
  1 26  1  0
  1 27  1  0
  2 17  1  0
  2  3  2  0
  3  4  1  0
  3 28  1  0
  4 15  1  0
  4  5  2  0
  5  6  1  0
  5 29  1  0
  6 19  1  0
  6  7  1  0
  6 30  1  1
  7 14  1  0
  7  8  1  6
  7  9  1  0
  8 31  1  0
  8 32  1  0
  8 33  1  0
  9 10  1  0
  9 34  1  0
  9 35  1  0
 10 11  1  0
 10 36  1  0
 10 37  1  0
 11 12  1  0
 11 13  1  0
 11 38  1  6
 12 39  1  0
 13 14  1  0
 13 40  1  0
 13 41  1  0
 14 15  1  0
 14 42  1  1
 15 16  1  0
 15 43  1  6
 16 17  1  0
 16 19  1  0
 16 44  1  6
 17 18  2  0
 19 24  1  1
 19 20  1  0
 20 21  1  0
 20 45  1  0
 20 46  1  0
 21 22  1  0
 22 23  2  0
 22 24  1  0
 24 47  1  0
 24 48  1  0
M  END
>  <i_m_ct_stereo_status>  (296) 
1

>  <s_m_source_file>  (296) 
/var/tmp/pbs.5076255.sched01/tmp7rmqr72f/92ch8atech.sdf

>  <i_m_source_file_index>  (296) 
20

>  <i_lp_mmshare_version>  (296) 
48012

>  <i_f3d_flags>  (296) 
0

>  <s_epik_input>  (296) 
W0NAQEhdMTJDKD1PKUMoW0NIM10pPVtDSF1DKD1bQ0hdMylbQ0BASF0xW0NASF0oW0NIMl1bQ0BIXShbT0hdKVtDSDJdW0NIMl00KVtDQF00KFtDSDNdKVtDQEhdM1tDQF0yNVtDSDJdT0MoPU8pW0NIMl01

>  <s_epik_cmdline>  (296) 
J2VwaWtfcHl0aG9uJywgJy1waHQnLCAnMi4wJywgJy1waCcsICc3LjAnLCAnLXRuJywgJzgnLCAnLW1hJywgJzIwMCcsICctaW1hZScsICc8aW5maWxlLm1hZT4nLCAnLW9tYWUnLCAnPG91dGZpbGUubWFlPic=

>  <r_lp_tautomer_probability>  (296) 
1

>  <r_epik_Ionization_Penalty>  (296) 
1.01348e-06

>  <r_epik_Ionization_Penalty_Charging>  (296) 
0

>  <r_epik_Ionization_Penalty_Neutral>  (296) 
1.01348e-06

>  <r_epik_State_Penalty>  (296) 
-0

>  <r_epik_Charging_Adjusted_Penalty>  (296) 
0

>  <i_epik_Tot_Q>  (296) 
0

>  <i_epik_Tot_abs_Q>  (296) 
0

>  <s_epik_Chemistry_Notes>  (296) 
This compound has an ester and may undergo hydrolysis at high or low pH.

>  <s_lp_Force_Field>  (296) 
OPLS3e

>  <r_lp_Energy>  (296) 
88.7421

>  <b_lp_Chiralities_Consistent>  (296) 
1

>  <s_lp_Variant>  (296) 
73:0-1

>  <s_i_glide_gridfile>  (296) 
pfpi4k_grid

>  <i_i_glide_lignum>  (296) 
20

>  <i_i_glide_rotatable_bonds>  (296) 
1

>  <r_i_docking_score>  (296) 
-3.85622

>  <r_i_glide_ligand_efficiency>  (296) 
-0.160676

>  <r_i_glide_ligand_efficiency_sa>  (296) 
-0.463469

>  <r_i_glide_ligand_efficiency_ln>  (296) 
-0.92297

>  <r_i_glide_gscore>  (296) 
-3.85622

>  <r_i_glide_lipo>  (296) 
-0.333319

>  <r_i_glide_hbond>  (296) 
-0.430942

>  <r_i_glide_metal>  (296) 
-0

>  <r_i_glide_rewards>  (296) 
-1.16999

>  <r_i_glide_evdw>  (296) 
-26.6354

>  <r_i_glide_ecoul>  (296) 
-3.802

>  <r_i_glide_erotb>  (296) 
0

>  <r_i_glide_esite>  (296) 
-0.0199016

>  <r_i_glide_emodel>  (296) 
-37.742

>  <r_i_glide_energy>  (296) 
-30.4374

>  <r_i_glide_einternal>  (296) 
0.476838

>  <r_i_glide_intrahb_reward>  (296) 
-0

>  <i_i_glide_confnum>  (296) 
2

>  <i_i_glide_posenum>  (296) 
15

>  <r_i_glide_eff_state_penalty>  (296) 
0

>  <ligand_id>  (296) 
73

>  <original_smiles>  (296) 
CC1=CC2=CC3C4(C)CCC(O)CC4C2C(C1=O)C31COC(=O)C1

>  <smiles>  (296) 
[H]OC1([H])C([H])([H])C([H])([H])C2(C([H])([H])[H])C3([H])C([H])=C4C([H])=C(C([H])([H])[H])C(=O)C([H])(C4([H])C2([H])C1([H])[H])C31C([H])([H])OC(=O)C1([H])[H]

$$$$
73:0:2
     RDKit          3D

 48 52  0  0  1  0  0  0  0  0999 V2000
    2.5353   -9.0885    1.9243 C   0  0  0  0  0  0  0  0  0  0  0  0
    2.9836   -7.6561    1.6827 C   0  0  0  0  0  0  0  0  0  0  0  0
    4.2345   -7.3247    1.2390 C   0  0  0  0  0  0  0  0  0  0  0  0
    4.5378   -5.9212    1.1162 C   0  0  0  0  0  0  0  0  0  0  0  0
    5.1694   -5.3441    2.1588 C   0  0  0  0  0  0  0  0  0  0  0  0
    4.6037   -3.9902    2.5721 C   0  0  1  0  0  0  0  0  0  0  0  0
    4.8171   -3.0450    1.3207 C   0  0  2  0  0  0  0  0  0  0  0  0
    6.3192   -3.1407    0.8646 C   0  0  0  0  0  0  0  0  0  0  0  0
    4.5227   -1.5241    1.4844 C   0  0  0  0  0  0  0  0  0  0  0  0
    4.6679   -0.7590    0.1387 C   0  0  0  0  0  0  0  0  0  0  0  0
    4.0519   -1.4757   -1.1023 C   0  0  1  0  0  0  0  0  0  0  0  0
    4.6599   -0.9713   -2.2741 O   0  0  0  0  0  0  0  0  0  0  0  0
    4.1082   -3.0334   -1.1223 C   0  0  0  0  0  0  0  0  0  0  0  0
    3.8005   -3.5592    0.2795 C   0  0  1  0  0  0  0  0  0  0  0  0
    3.4225   -5.0627    0.5121 C   0  0  2  0  0  0  0  0  0  0  0  0
    2.4077   -5.0898    1.6954 C   0  0  1  0  0  0  0  0  0  0  0  0
    1.9713   -6.5642    1.9345 C   0  0  0  0  0  0  0  0  0  0  0  0
    0.8017   -6.7655    2.2798 O   0  0  0  0  0  0  0  0  0  0  0  0
    3.0976   -4.3259    2.9394 C   0  0  1  0  0  0  0  0  0  0  0  0
    3.0206   -5.1332    4.2863 C   0  0  0  0  0  0  0  0  0  0  0  0
    1.8130   -4.7044    4.8907 O   0  0  0  0  0  0  0  0  0  0  0  0
    1.3575   -3.5515    4.4157 C   0  0  0  0  0  0  0  0  0  0  0  0
    0.3576   -2.9463    4.7654 O   0  0  0  0  0  0  0  0  0  0  0  0
    2.2880   -3.0819    3.3116 C   0  0  0  0  0  0  0  0  0  0  0  0
    2.2181   -9.2194    2.9594 H   0  0  0  0  0  0  0  0  0  0  0  0
    3.3344   -9.8002    1.7316 H   0  0  0  0  0  0  0  0  0  0  0  0
    1.6929   -9.3542    1.2828 H   0  0  0  0  0  0  0  0  0  0  0  0
    4.9827   -8.0903    1.0703 H   0  0  0  0  0  0  0  0  0  0  0  0
    5.7575   -5.8996    2.8791 H   0  0  0  0  0  0  0  0  0  0  0  0
    5.1584   -3.6114    3.4335 H   0  0  0  0  0  0  0  0  0  0  0  0
    6.5704   -2.4679    0.0454 H   0  0  0  0  0  0  0  0  0  0  0  0
    6.5999   -4.1283    0.4938 H   0  0  0  0  0  0  0  0  0  0  0  0
    6.9890   -2.8864    1.6855 H   0  0  0  0  0  0  0  0  0  0  0  0
    3.5044   -1.3495    1.8266 H   0  0  0  0  0  0  0  0  0  0  0  0
    5.1713   -1.0776    2.2355 H   0  0  0  0  0  0  0  0  0  0  0  0
    4.1960    0.2164    0.2448 H   0  0  0  0  0  0  0  0  0  0  0  0
    5.7179   -0.5297   -0.0391 H   0  0  0  0  0  0  0  0  0  0  0  0
    3.0111   -1.1926   -1.1445 H   0  0  0  0  0  0  0  0  0  0  0  0
    4.3556   -0.0855   -2.4041 H   0  0  0  0  0  0  0  0  0  0  0  0
    3.3650   -3.4062   -1.8291 H   0  0  0  0  0  0  0  0  0  0  0  0
    5.0768   -3.3903   -1.4704 H   0  0  0  0  0  0  0  0  0  0  0  0
    2.8603   -3.0421    0.4837 H   0  0  0  0  0  0  0  0  0  0  0  0
    2.9916   -5.5188   -0.3860 H   0  0  0  0  0  0  0  0  0  0  0  0
    1.5088   -4.5712    1.3897 H   0  0  0  0  0  0  0  0  0  0  0  0
    3.0438   -6.2192    4.1818 H   0  0  0  0  0  0  0  0  0  0  0  0
    3.8526   -4.8751    4.9439 H   0  0  0  0  0  0  0  0  0  0  0  0
    2.9191   -2.2935    3.7264 H   0  0  0  0  0  0  0  0  0  0  0  0
    1.7205   -2.6748    2.4708 H   0  0  0  0  0  0  0  0  0  0  0  0
  1  2  1  0
  1 25  1  0
  1 26  1  0
  1 27  1  0
  2 17  1  0
  2  3  2  0
  3  4  1  0
  3 28  1  0
  4 15  1  0
  4  5  2  0
  5  6  1  0
  5 29  1  0
  6 19  1  0
  6  7  1  0
  6 30  1  1
  7 14  1  0
  7  8  1  6
  7  9  1  0
  8 31  1  0
  8 32  1  0
  8 33  1  0
  9 10  1  0
  9 34  1  0
  9 35  1  0
 10 11  1  0
 10 36  1  0
 10 37  1  0
 11 12  1  0
 11 13  1  0
 11 38  1  6
 12 39  1  0
 13 14  1  0
 13 40  1  0
 13 41  1  0
 14 15  1  0
 14 42  1  1
 15 16  1  0
 15 43  1  6
 16 17  1  0
 16 19  1  0
 16 44  1  6
 17 18  2  0
 19 24  1  1
 19 20  1  0
 20 21  1  0
 20 45  1  0
 20 46  1  0
 21 22  1  0
 22 23  2  0
 22 24  1  0
 24 47  1  0
 24 48  1  0
M  END
>  <i_m_ct_stereo_status>  (297) 
1

>  <s_m_source_file>  (297) 
/var/tmp/pbs.5076255.sched01/tmp7rmqr72f/92ch8atech.sdf

>  <i_m_source_file_index>  (297) 
20

>  <i_lp_mmshare_version>  (297) 
48012

>  <i_f3d_flags>  (297) 
0

>  <s_epik_input>  (297) 
W0NAQEhdMTJDKD1PKUMoW0NIM10pPVtDSF1DKD1bQ0hdMylbQ0BASF0xW0NASF0oW0NIMl1bQ0BIXShbT0hdKVtDSDJdW0NIMl00KVtDQF00KFtDSDNdKVtDQEhdM1tDQF0yNVtDSDJdT0MoPU8pW0NIMl01

>  <s_epik_cmdline>  (297) 
J2VwaWtfcHl0aG9uJywgJy1waHQnLCAnMi4wJywgJy1waCcsICc3LjAnLCAnLXRuJywgJzgnLCAnLW1hJywgJzIwMCcsICctaW1hZScsICc8aW5maWxlLm1hZT4nLCAnLW9tYWUnLCAnPG91dGZpbGUubWFlPic=

>  <r_lp_tautomer_probability>  (297) 
1

>  <r_epik_Ionization_Penalty>  (297) 
1.01348e-06

>  <r_epik_Ionization_Penalty_Charging>  (297) 
0

>  <r_epik_Ionization_Penalty_Neutral>  (297) 
1.01348e-06

>  <r_epik_State_Penalty>  (297) 
-0

>  <r_epik_Charging_Adjusted_Penalty>  (297) 
0

>  <i_epik_Tot_Q>  (297) 
0

>  <i_epik_Tot_abs_Q>  (297) 
0

>  <s_epik_Chemistry_Notes>  (297) 
This compound has an ester and may undergo hydrolysis at high or low pH.

>  <s_lp_Force_Field>  (297) 
OPLS3e

>  <r_lp_Energy>  (297) 
88.7421

>  <b_lp_Chiralities_Consistent>  (297) 
1

>  <s_lp_Variant>  (297) 
73:0-1

>  <s_i_glide_gridfile>  (297) 
pfpi4k_grid

>  <i_i_glide_lignum>  (297) 
20

>  <i_i_glide_rotatable_bonds>  (297) 
1

>  <r_i_docking_score>  (297) 
-3.29006

>  <r_i_glide_ligand_efficiency>  (297) 
-0.137086

>  <r_i_glide_ligand_efficiency_sa>  (297) 
-0.395425

>  <r_i_glide_ligand_efficiency_ln>  (297) 
-0.787463

>  <r_i_glide_gscore>  (297) 
-3.29006

>  <r_i_glide_lipo>  (297) 
-0.396922

>  <r_i_glide_hbond>  (297) 
0

>  <r_i_glide_metal>  (297) 
-0

>  <r_i_glide_rewards>  (297) 
-1.19147

>  <r_i_glide_evdw>  (297) 
-25.7211

>  <r_i_glide_ecoul>  (297) 
-2.61946

>  <r_i_glide_erotb>  (297) 
0

>  <r_i_glide_esite>  (297) 
-0.0227034

>  <r_i_glide_emodel>  (297) 
-34.4052

>  <r_i_glide_energy>  (297) 
-28.3405

>  <r_i_glide_einternal>  (297) 
0.45101

>  <r_i_glide_intrahb_reward>  (297) 
-0

>  <i_i_glide_confnum>  (297) 
4

>  <i_i_glide_posenum>  (297) 
33

>  <r_i_glide_eff_state_penalty>  (297) 
0

>  <ligand_id>  (297) 
73

>  <original_smiles>  (297) 
CC1=CC2=CC3C4(C)CCC(O)CC4C2C(C1=O)C31COC(=O)C1

>  <smiles>  (297) 
[H]OC1([H])C([H])([H])C([H])([H])C2(C([H])([H])[H])C3([H])C([H])=C4C([H])=C(C([H])([H])[H])C(=O)C([H])(C4([H])C2([H])C1([H])[H])C31C([H])([H])OC(=O)C1([H])[H]

$$$$
74:0:0
     RDKit          3D

 30 32  0  0  1  0  0  0  0  0999 V2000
    0.9029   -1.8963    3.7838 C   0  0  0  0  0  0  0  0  0  0  0  0
    0.3253   -2.7408    4.8146 N   0  0  0  0  0  0  0  0  0  0  0  0
   -0.5909   -2.2385    5.6808 N   0  0  0  0  0  0  0  0  0  0  0  0
   -0.9159   -3.2090    6.4810 N   0  0  0  0  0  0  0  0  0  0  0  0
   -0.2423   -4.3764    6.1607 N   0  0  0  0  0  0  0  0  0  0  0  0
    0.5067   -4.0330    5.1147 C   0  0  0  0  0  0  0  0  0  0  0  0
    1.4553   -4.9319    4.3694 C   0  0  0  0  0  0  0  0  0  0  0  0
    1.0847   -6.2947    4.5832 O   0  0  0  0  0  0  0  0  0  0  0  0
    2.0120   -7.2530    4.0631 C   0  0  2  0  0  0  0  0  0  0  0  0
    1.7780   -7.5384    2.5602 C   0  0  0  0  0  0  0  0  0  0  0  0
    2.6577   -8.5504    2.0538 O   0  0  0  0  0  0  0  0  0  0  0  0
    2.7852   -9.6585    2.8574 C   0  0  0  0  0  0  0  0  0  0  0  0
    3.3041  -10.8372    2.5027 N   0  0  0  0  0  0  0  0  0  0  0  0
    3.2626  -11.6674    3.5964 C   0  0  0  0  0  0  0  0  0  0  0  0
    2.7166  -10.9523    4.6368 C   0  0  0  0  0  0  0  0  0  0  0  0
    2.4497   -9.6995    4.1524 N   0  0  0  0  0  0  0  0  0  0  0  0
    1.8552   -8.5650    4.8594 C   0  0  0  0  0  0  0  0  0  0  0  0
    1.8673   -2.2882    3.4582 H   0  0  0  0  0  0  0  0  0  0  0  0
    1.0499   -0.8831    4.1639 H   0  0  0  0  0  0  0  0  0  0  0  0
    0.2283   -1.8525    2.9285 H   0  0  0  0  0  0  0  0  0  0  0  0
    1.4205   -4.6924    3.3062 H   0  0  0  0  0  0  0  0  0  0  0  0
    2.4647   -4.7415    4.7359 H   0  0  0  0  0  0  0  0  0  0  0  0
    3.0379   -6.8985    4.2032 H   0  0  0  0  0  0  0  0  0  0  0  0
    0.7478   -7.8573    2.3882 H   0  0  0  0  0  0  0  0  0  0  0  0
    1.9368   -6.6330    1.9760 H   0  0  0  0  0  0  0  0  0  0  0  0
    3.6062  -12.6912    3.5489 H   0  0  0  0  0  0  0  0  0  0  0  0
    2.5043  -11.2497    5.6589 H   0  0  0  0  0  0  0  0  0  0  0  0
    2.3271   -8.4835    5.8409 H   0  0  0  0  0  0  0  0  0  0  0  0
    0.8003   -8.8084    4.9999 H   0  0  0  0  0  0  0  0  0  0  0  0
    3.6437  -11.1262    1.5767 H   0  0  0  0  0  0  0  0  0  0  0  0
  1  2  1  0
  1 18  1  0
  1 19  1  0
  1 20  1  0
  2  6  1  0
  2  3  1  0
  3  4  2  0
  4  5  1  0
  5  6  2  0
  6  7  1  0
  7  8  1  0
  7 21  1  0
  7 22  1  0
  8  9  1  0
  9 17  1  0
  9 10  1  0
  9 23  1  6
 10 11  1  0
 10 24  1  0
 10 25  1  0
 11 12  1  0
 12 16  1  0
 12 13  2  0
 13 14  1  0
 13 30  1  0
 14 15  2  0
 14 26  1  0
 15 16  1  0
 15 27  1  0
 16 17  1  0
 17 28  1  0
 17 29  1  0
M  CHG  1  13   1
M  END
>  <i_m_ct_stereo_status>  (298) 
1

>  <s_m_source_file>  (298) 
/var/tmp/pbs.5076255.sched01/tmp7rmqr72f/92ch8atech.sdf

>  <i_m_source_file_index>  (298) 
21

>  <i_lp_mmshare_version>  (298) 
48012

>  <i_f3d_flags>  (298) 
0

>  <s_epik_input>  (298) 
W0NIM11uMW5ubmMxW0NIMl1PW0NASF0oW0NIMl1PMilbQ0gyXW4oYzIzKVtjSF1bY0hdbjM=

>  <s_epik_cmdline>  (298) 
J2VwaWtfcHl0aG9uJywgJy1waHQnLCAnMi4wJywgJy1waCcsICc3LjAnLCAnLXRuJywgJzgnLCAnLW1hJywgJzIwMCcsICctaW1hZScsICc8aW5maWxlLm1hZT4nLCAnLW9tYWUnLCAnPG91dGZpbGUubWFlPic=

>  <r_lp_tautomer_probability>  (298) 
1

>  <r_epik_Ionization_Penalty>  (298) 
0.0117792

>  <r_epik_Ionization_Penalty_Charging>  (298) 
0

>  <r_epik_Ionization_Penalty_Neutral>  (298) 
0.0117792

>  <r_epik_State_Penalty>  (298) 
0.00163694

>  <r_epik_Charging_Adjusted_Penalty>  (298) 
0.00163694

>  <i_epik_Tot_Q>  (298) 
1

>  <i_epik_Tot_abs_Q>  (298) 
1

>  <s_lp_Force_Field>  (298) 
OPLS3e

>  <r_lp_Energy>  (298) 
25.0702

>  <b_lp_Chiralities_Consistent>  (298) 
1

>  <s_lp_Variant>  (298) 
74:0-1

>  <s_i_glide_gridfile>  (298) 
pfpi4k_grid

>  <i_i_glide_lignum>  (298) 
21

>  <i_i_glide_rotatable_bonds>  (298) 
3

>  <r_i_docking_score>  (298) 
-3.51233

>  <r_i_glide_ligand_efficiency>  (298) 
-0.206608

>  <r_i_glide_ligand_efficiency_sa>  (298) 
-0.531247

>  <r_i_glide_ligand_efficiency_ln>  (298) 
-0.91629

>  <r_i_glide_gscore>  (298) 
-3.51233

>  <r_i_glide_lipo>  (298) 
-0.0138755

>  <r_i_glide_hbond>  (298) 
-0.2

>  <r_i_glide_metal>  (298) 
-0

>  <r_i_glide_rewards>  (298) 
-1.81788

>  <r_i_glide_evdw>  (298) 
-13.4169

>  <r_i_glide_ecoul>  (298) 
-10.2541

>  <r_i_glide_erotb>  (298) 
0.918681

>  <r_i_glide_esite>  (298) 
-0.190301

>  <r_i_glide_emodel>  (298) 
-31.8268

>  <r_i_glide_energy>  (298) 
-23.671

>  <r_i_glide_einternal>  (298) 
0.611097

>  <r_i_glide_intrahb_reward>  (298) 
-0

>  <i_i_glide_confnum>  (298) 
4

>  <i_i_glide_posenum>  (298) 
29

>  <r_i_glide_eff_state_penalty>  (298) 
0

>  <ligand_id>  (298) 
74

>  <original_smiles>  (298) 
Cn1nnnc1COC1COc2nccn2C1

>  <smiles>  (298) 
[H]c1c([H])[n+]([H])c2n1C([H])([H])C([H])(OC([H])([H])c1nnnn1C([H])([H])[H])C([H])([H])O2

$$$$
74:0:1
     RDKit          3D

 30 32  0  0  1  0  0  0  0  0999 V2000
    1.3336   -2.9357    3.9278 C   0  0  0  0  0  0  0  0  0  0  0  0
    0.4809   -3.3536    5.0205 N   0  0  0  0  0  0  0  0  0  0  0  0
   -0.4597   -2.5181    5.5223 N   0  0  0  0  0  0  0  0  0  0  0  0
   -1.0511   -3.1612    6.4814 N   0  0  0  0  0  0  0  0  0  0  0  0
   -0.5359   -4.4346    6.6370 N   0  0  0  0  0  0  0  0  0  0  0  0
    0.4114   -4.5008    5.7039 C   0  0  0  0  0  0  0  0  0  0  0  0
    1.3208   -5.6667    5.4811 C   0  0  0  0  0  0  0  0  0  0  0  0
    1.0024   -6.2588    4.2200 O   0  0  0  0  0  0  0  0  0  0  0  0
    1.9105   -7.2908    3.8205 C   0  0  2  0  0  0  0  0  0  0  0  0
    1.6808   -7.6720    2.3396 C   0  0  0  0  0  0  0  0  0  0  0  0
    2.5591   -8.7144    1.8998 O   0  0  0  0  0  0  0  0  0  0  0  0
    2.6733   -9.7714    2.7703 C   0  0  0  0  0  0  0  0  0  0  0  0
    3.1891  -10.9714    2.4908 N   0  0  0  0  0  0  0  0  0  0  0  0
    3.1428  -11.7296    3.6384 C   0  0  0  0  0  0  0  0  0  0  0  0
    2.5935  -10.9477    4.6282 C   0  0  0  0  0  0  0  0  0  0  0  0
    2.3344   -9.7291    4.0631 N   0  0  0  0  0  0  0  0  0  0  0  0
    1.7491   -8.5516    4.6985 C   0  0  0  0  0  0  0  0  0  0  0  0
    2.2663   -3.4991    3.9316 H   0  0  0  0  0  0  0  0  0  0  0  0
    1.5676   -1.8723    4.0195 H   0  0  0  0  0  0  0  0  0  0  0  0
    0.8179   -3.1033    2.9814 H   0  0  0  0  0  0  0  0  0  0  0  0
    2.3540   -5.3185    5.4928 H   0  0  0  0  0  0  0  0  0  0  0  0
    1.2022   -6.3733    6.3010 H   0  0  0  0  0  0  0  0  0  0  0  0
    2.9338   -6.9127    3.9024 H   0  0  0  0  0  0  0  0  0  0  0  0
    0.6506   -7.9960    2.1780 H   0  0  0  0  0  0  0  0  0  0  0  0
    1.8503   -6.8019    1.7075 H   0  0  0  0  0  0  0  0  0  0  0  0
    3.4858  -12.7533    3.6720 H   0  0  0  0  0  0  0  0  0  0  0  0
    2.3759  -11.1731    5.6683 H   0  0  0  0  0  0  0  0  0  0  0  0
    2.2255   -8.4225    5.6718 H   0  0  0  0  0  0  0  0  0  0  0  0
    0.6927   -8.7788    4.8486 H   0  0  0  0  0  0  0  0  0  0  0  0
    3.5408  -11.3026    1.5796 H   0  0  0  0  0  0  0  0  0  0  0  0
  1  2  1  0
  1 18  1  0
  1 19  1  0
  1 20  1  0
  2  6  1  0
  2  3  1  0
  3  4  2  0
  4  5  1  0
  5  6  2  0
  6  7  1  0
  7  8  1  0
  7 21  1  0
  7 22  1  0
  8  9  1  0
  9 17  1  0
  9 10  1  0
  9 23  1  6
 10 11  1  0
 10 24  1  0
 10 25  1  0
 11 12  1  0
 12 16  1  0
 12 13  2  0
 13 14  1  0
 13 30  1  0
 14 15  2  0
 14 26  1  0
 15 16  1  0
 15 27  1  0
 16 17  1  0
 17 28  1  0
 17 29  1  0
M  CHG  1  13   1
M  END
>  <i_m_ct_stereo_status>  (299) 
1

>  <s_m_source_file>  (299) 
/var/tmp/pbs.5076255.sched01/tmp7rmqr72f/92ch8atech.sdf

>  <i_m_source_file_index>  (299) 
21

>  <i_lp_mmshare_version>  (299) 
48012

>  <i_f3d_flags>  (299) 
0

>  <s_epik_input>  (299) 
W0NIM11uMW5ubmMxW0NIMl1PW0NASF0oW0NIMl1PMilbQ0gyXW4oYzIzKVtjSF1bY0hdbjM=

>  <s_epik_cmdline>  (299) 
J2VwaWtfcHl0aG9uJywgJy1waHQnLCAnMi4wJywgJy1waCcsICc3LjAnLCAnLXRuJywgJzgnLCAnLW1hJywgJzIwMCcsICctaW1hZScsICc8aW5maWxlLm1hZT4nLCAnLW9tYWUnLCAnPG91dGZpbGUubWFlPic=

>  <r_lp_tautomer_probability>  (299) 
1

>  <r_epik_Ionization_Penalty>  (299) 
0.0117792

>  <r_epik_Ionization_Penalty_Charging>  (299) 
0

>  <r_epik_Ionization_Penalty_Neutral>  (299) 
0.0117792

>  <r_epik_State_Penalty>  (299) 
0.00163694

>  <r_epik_Charging_Adjusted_Penalty>  (299) 
0.00163694

>  <i_epik_Tot_Q>  (299) 
1

>  <i_epik_Tot_abs_Q>  (299) 
1

>  <s_lp_Force_Field>  (299) 
OPLS3e

>  <r_lp_Energy>  (299) 
25.0702

>  <b_lp_Chiralities_Consistent>  (299) 
1

>  <s_lp_Variant>  (299) 
74:0-1

>  <s_i_glide_gridfile>  (299) 
pfpi4k_grid

>  <i_i_glide_lignum>  (299) 
21

>  <i_i_glide_rotatable_bonds>  (299) 
3

>  <r_i_docking_score>  (299) 
-3.40403

>  <r_i_glide_ligand_efficiency>  (299) 
-0.200237

>  <r_i_glide_ligand_efficiency_sa>  (299) 
-0.514866

>  <r_i_glide_ligand_efficiency_ln>  (299) 
-0.888035

>  <r_i_glide_gscore>  (299) 
-3.40403

>  <r_i_glide_lipo>  (299) 
-0.0291722

>  <r_i_glide_hbond>  (299) 
-0.2

>  <r_i_glide_metal>  (299) 
-0

>  <r_i_glide_rewards>  (299) 
-1.79156

>  <r_i_glide_evdw>  (299) 
-13.3156

>  <r_i_glide_ecoul>  (299) 
-9.66508

>  <r_i_glide_erotb>  (299) 
0.918681

>  <r_i_glide_esite>  (299) 
-0.186442

>  <r_i_glide_emodel>  (299) 
-31.1048

>  <r_i_glide_energy>  (299) 
-22.9807

>  <r_i_glide_einternal>  (299) 
0.142909

>  <r_i_glide_intrahb_reward>  (299) 
-0

>  <i_i_glide_confnum>  (299) 
1

>  <i_i_glide_posenum>  (299) 
12

>  <r_i_glide_eff_state_penalty>  (299) 
0

>  <ligand_id>  (299) 
74

>  <original_smiles>  (299) 
Cn1nnnc1COC1COc2nccn2C1

>  <smiles>  (299) 
[H]c1c([H])[n+]([H])c2n1C([H])([H])C([H])(OC([H])([H])c1nnnn1C([H])([H])[H])C([H])([H])O2

$$$$
74:0:2
     RDKit          3D

 30 32  0  0  1  0  0  0  0  0999 V2000
    3.9975   -1.1093   -0.2465 C   0  0  0  0  0  0  0  0  0  0  0  0
    4.2826   -1.9382   -1.4035 N   0  0  0  0  0  0  0  0  0  0  0  0
    3.9191   -1.5281   -2.6396 N   0  0  0  0  0  0  0  0  0  0  0  0
    4.3297   -2.4450   -3.4791 N   0  0  0  0  0  0  0  0  0  0  0  0
    4.9837   -3.4559   -2.8165 N   0  0  0  0  0  0  0  0  0  0  0  0
    4.9091   -3.1084   -1.5365 C   0  0  0  0  0  0  0  0  0  0  0  0
    5.5315   -3.8768   -0.4142 C   0  0  0  0  0  0  0  0  0  0  0  0
    4.6065   -4.0027    0.6711 O   0  0  0  0  0  0  0  0  0  0  0  0
    3.7516   -5.1385    0.6145 C   0  0  2  0  0  0  0  0  0  0  0  0
    2.6131   -4.9980    1.6395 C   0  0  0  0  0  0  0  0  0  0  0  0
    1.7786   -6.1656    1.6700 O   0  0  0  0  0  0  0  0  0  0  0  0
    2.4786   -7.3549    1.6999 C   0  0  0  0  0  0  0  0  0  0  0  0
    1.9648   -8.5447    1.9897 N   0  0  0  0  0  0  0  0  0  0  0  0
    2.9596   -9.4790    1.8790 C   0  0  0  0  0  0  0  0  0  0  0  0
    4.0919   -8.8160    1.4759 C   0  0  0  0  0  0  0  0  0  0  0  0
    3.7549   -7.4980    1.3566 N   0  0  0  0  0  0  0  0  0  0  0  0
    4.5853   -6.3906    0.9568 C   0  0  0  0  0  0  0  0  0  0  0  0
    3.9834   -1.6923    0.6721 H   0  0  0  0  0  0  0  0  0  0  0  0
    3.0170   -0.6554   -0.3540 H   0  0  0  0  0  0  0  0  0  0  0  0
    4.7577   -0.3329   -0.1525 H   0  0  0  0  0  0  0  0  0  0  0  0
    5.8691   -4.8361   -0.7931 H   0  0  0  0  0  0  0  0  0  0  0  0
    6.4191   -3.3430   -0.0778 H   0  0  0  0  0  0  0  0  0  0  0  0
    3.3019   -5.2214   -0.3820 H   0  0  0  0  0  0  0  0  0  0  0  0
    2.9862   -4.8353    2.6457 H   0  0  0  0  0  0  0  0  0  0  0  0
    1.9841   -4.1568    1.3904 H   0  0  0  0  0  0  0  0  0  0  0  0
    2.8100  -10.5371    2.0824 H   0  0  0  0  0  0  0  0  0  0  0  0
    5.0874   -9.1863    1.2651 H   0  0  0  0  0  0  0  0  0  0  0  0
    5.1785   -6.7314    0.1093 H   0  0  0  0  0  0  0  0  0  0  0  0
    5.2470   -6.1875    1.8022 H   0  0  0  0  0  0  0  0  0  0  0  0
    1.0154   -8.7419    2.2437 H   0  0  0  0  0  0  0  0  0  0  0  0
  1  2  1  0
  1 18  1  0
  1 19  1  0
  1 20  1  0
  2  6  1  0
  2  3  1  0
  3  4  2  0
  4  5  1  0
  5  6  2  0
  6  7  1  0
  7  8  1  0
  7 21  1  0
  7 22  1  0
  8  9  1  0
  9 17  1  0
  9 10  1  0
  9 23  1  6
 10 11  1  0
 10 24  1  0
 10 25  1  0
 11 12  1  0
 12 16  1  0
 12 13  2  0
 13 14  1  0
 13 30  1  0
 14 15  2  0
 14 26  1  0
 15 16  1  0
 15 27  1  0
 16 17  1  0
 17 28  1  0
 17 29  1  0
M  CHG  1  13   1
M  END
>  <i_m_ct_stereo_status>  (300) 
1

>  <s_m_source_file>  (300) 
/var/tmp/pbs.5076255.sched01/tmp7rmqr72f/92ch8atech.sdf

>  <i_m_source_file_index>  (300) 
21

>  <i_lp_mmshare_version>  (300) 
48012

>  <i_f3d_flags>  (300) 
0

>  <s_epik_input>  (300) 
W0NIM11uMW5ubmMxW0NIMl1PW0NASF0oW0NIMl1PMilbQ0gyXW4oYzIzKVtjSF1bY0hdbjM=

>  <s_epik_cmdline>  (300) 
J2VwaWtfcHl0aG9uJywgJy1waHQnLCAnMi4wJywgJy1waCcsICc3LjAnLCAnLXRuJywgJzgnLCAnLW1hJywgJzIwMCcsICctaW1hZScsICc8aW5maWxlLm1hZT4nLCAnLW9tYWUnLCAnPG91dGZpbGUubWFlPic=

>  <r_lp_tautomer_probability>  (300) 
1

>  <r_epik_Ionization_Penalty>  (300) 
0.0117792

>  <r_epik_Ionization_Penalty_Charging>  (300) 
0

>  <r_epik_Ionization_Penalty_Neutral>  (300) 
0.0117792

>  <r_epik_State_Penalty>  (300) 
0.00163694

>  <r_epik_Charging_Adjusted_Penalty>  (300) 
0.00163694

>  <i_epik_Tot_Q>  (300) 
1

>  <i_epik_Tot_abs_Q>  (300) 
1

>  <s_lp_Force_Field>  (300) 
OPLS3e

>  <r_lp_Energy>  (300) 
25.0702

>  <b_lp_Chiralities_Consistent>  (300) 
1

>  <s_lp_Variant>  (300) 
74:0-1

>  <s_i_glide_gridfile>  (300) 
pfpi4k_grid

>  <i_i_glide_lignum>  (300) 
21

>  <i_i_glide_rotatable_bonds>  (300) 
3

>  <r_i_docking_score>  (300) 
-2.91071

>  <r_i_glide_ligand_efficiency>  (300) 
-0.171218

>  <r_i_glide_ligand_efficiency_sa>  (300) 
-0.440251

>  <r_i_glide_ligand_efficiency_ln>  (300) 
-0.75934

>  <r_i_glide_gscore>  (300) 
-2.91071

>  <r_i_glide_lipo>  (300) 
-0.166337

>  <r_i_glide_hbond>  (300) 
0

>  <r_i_glide_metal>  (300) 
-0

>  <r_i_glide_rewards>  (300) 
-1.91391

>  <r_i_glide_evdw>  (300) 
-22.9577

>  <r_i_glide_ecoul>  (300) 
-3.44568

>  <r_i_glide_erotb>  (300) 
0.918681

>  <r_i_glide_esite>  (300) 
-0.0844077

>  <r_i_glide_emodel>  (300) 
-32.3192

>  <r_i_glide_energy>  (300) 
-26.4034

>  <r_i_glide_einternal>  (300) 
1.65186

>  <r_i_glide_intrahb_reward>  (300) 
-0

>  <i_i_glide_confnum>  (300) 
3

>  <i_i_glide_posenum>  (300) 
2

>  <r_i_glide_eff_state_penalty>  (300) 
0

>  <ligand_id>  (300) 
74

>  <original_smiles>  (300) 
Cn1nnnc1COC1COc2nccn2C1

>  <smiles>  (300) 
[H]c1c([H])[n+]([H])c2n1C([H])([H])C([H])(OC([H])([H])c1nnnn1C([H])([H])[H])C([H])([H])O2

$$$$
76:0:0
     RDKit          3D

 74 80  0  0  1  0  0  0  0  0999 V2000
    1.1839   -8.8325    2.3666 C   0  0  0  0  0  0  0  0  0  0  0  0
    2.0211   -7.7125    1.7815 C   0  0  0  0  0  0  0  0  0  0  0  0
    1.5843   -6.5622    1.3081 C   0  0  0  0  0  0  0  0  0  0  0  0
    2.6988   -5.6895    0.7809 C   0  0  1  0  0  0  0  0  0  0  0  0
    2.6037   -4.2474    1.3046 C   0  0  0  0  0  0  0  0  0  0  0  0
    3.7817   -3.7949    2.1297 C   0  0  1  0  0  0  0  0  0  0  0  0
    3.6895   -4.3357    3.4344 O   0  0  0  0  0  0  0  0  0  0  0  0
    5.1369   -4.1978    1.5259 C   0  0  2  0  0  0  0  0  0  0  0  0
    5.6386   -3.4436    0.1629 C   0  0  1  0  0  0  0  0  0  0  0  0
    5.0403   -4.0683   -1.1432 C   0  0  0  0  0  0  0  0  0  0  0  0
    5.1345   -3.2425   -2.4557 C   0  0  1  0  0  0  0  0  0  0  0  0
    4.4855   -3.9451   -3.6456 C   0  0  0  0  0  0  0  0  0  0  0  0
    4.5617   -1.8340   -2.2836 C   0  0  1  0  0  0  0  0  0  0  0  0
    3.0424   -1.7412   -2.1099 C   0  0  0  0  0  0  0  0  0  0  0  0
    5.3076   -1.1838   -1.1367 C   0  0  0  0  0  0  0  0  0  0  0  0
    5.2672   -1.9370    0.2091 C   0  0  2  0  0  0  0  0  0  0  0  0
    6.3903   -1.3330    1.0659 C   0  0  1  0  0  0  0  0  0  0  0  0
    6.0030   -1.2691    2.4167 O   0  0  0  0  0  0  0  0  0  0  0  0
    7.4998   -2.1548    0.8722 O   0  0  0  0  0  0  0  0  0  0  0  0
    7.2031   -3.2425    0.0221 C   0  0  1  0  0  0  0  0  0  0  0  0
    8.2419   -4.3892    0.2285 C   0  0  0  0  0  0  0  0  0  0  0  0
    7.8830   -5.2226    1.4466 C   0  0  2  0  0  0  0  0  0  0  0  0
    8.9062   -5.7464    2.4398 C   0  0  0  0  0  0  0  0  0  0  0  0
    8.2429   -5.9076    3.8526 C   0  0  0  0  0  0  0  0  0  0  0  0
    6.7608   -5.6504    3.9108 N   0  0  0  0  0  0  0  0  0  0  0  0
    5.8377   -6.4148    3.0242 C   0  0  2  0  0  0  0  0  0  0  0  0
    6.5809   -7.4343    2.1528 C   0  0  0  0  0  0  0  0  0  0  0  0
    6.7427   -6.2324    1.2002 C   0  0  1  0  0  0  0  0  0  0  0  0
    5.3269   -5.7622    1.6497 C   0  0  2  0  0  0  0  0  0  0  0  0
    4.0344   -6.5044    1.0131 C   0  0  2  0  0  0  0  0  0  0  0  0
    4.4270   -6.9309   -0.2609 O   0  0  0  0  0  0  0  0  0  0  0  0
    3.5090   -7.8352    1.6998 C   0  0  0  0  0  0  0  0  0  0  0  0
    1.3361   -9.7429    1.7878 H   0  0  0  0  0  0  0  0  0  0  0  0
    0.1229   -8.5881    2.3371 H   0  0  0  0  0  0  0  0  0  0  0  0
    1.4703   -9.0262    3.3990 H   0  0  0  0  0  0  0  0  0  0  0  0
    0.5519   -6.2836    1.2605 H   0  0  0  0  0  0  0  0  0  0  0  0
    2.4725   -5.6477   -0.2860 H   0  0  0  0  0  0  0  0  0  0  0  0
    2.5278   -3.5854    0.4477 H   0  0  0  0  0  0  0  0  0  0  0  0
    1.6920   -4.0762    1.8695 H   0  0  0  0  0  0  0  0  0  0  0  0
    3.6962   -2.7240    2.2825 H   0  0  0  0  0  0  0  0  0  0  0  0
    3.5578   -5.2646    3.3501 H   0  0  0  0  0  0  0  0  0  0  0  0
    5.7501   -3.7546    2.3014 H   0  0  0  0  0  0  0  0  0  0  0  0
    5.5481   -5.0062   -1.3063 H   0  0  0  0  0  0  0  0  0  0  0  0
    3.9961   -4.3029   -1.0071 H   0  0  0  0  0  0  0  0  0  0  0  0
    6.1854   -3.1419   -2.7267 H   0  0  0  0  0  0  0  0  0  0  0  0
    3.4354   -4.1519   -3.4373 H   0  0  0  0  0  0  0  0  0  0  0  0
    4.9664   -4.9101   -3.8089 H   0  0  0  0  0  0  0  0  0  0  0  0
    4.5207   -3.3690   -4.5704 H   0  0  0  0  0  0  0  0  0  0  0  0
    4.7878   -1.2630   -3.1841 H   0  0  0  0  0  0  0  0  0  0  0  0
    2.7117   -2.2353   -1.1973 H   0  0  0  0  0  0  0  0  0  0  0  0
    2.4877   -2.1635   -2.9492 H   0  0  0  0  0  0  0  0  0  0  0  0
    2.7471   -0.6914   -2.0282 H   0  0  0  0  0  0  0  0  0  0  0  0
    6.3303   -1.0892   -1.4732 H   0  0  0  0  0  0  0  0  0  0  0  0
    4.9310   -0.1820   -0.9799 H   0  0  0  0  0  0  0  0  0  0  0  0
    4.2941   -1.7063    0.6412 H   0  0  0  0  0  0  0  0  0  0  0  0
    6.6291   -0.3034    0.7766 H   0  0  0  0  0  0  0  0  0  0  0  0
    5.6529   -2.1192    2.6423 H   0  0  0  0  0  0  0  0  0  0  0  0
    7.4272   -2.8771   -0.9756 H   0  0  0  0  0  0  0  0  0  0  0  0
    8.3610   -5.0207   -0.6542 H   0  0  0  0  0  0  0  0  0  0  0  0
    9.2260   -3.9471    0.3506 H   0  0  0  0  0  0  0  0  0  0  0  0
    7.5862   -4.3803    2.0460 H   0  0  0  0  0  0  0  0  0  0  0  0
    9.3468   -6.6785    2.1148 H   0  0  0  0  0  0  0  0  0  0  0  0
    9.7426   -5.0504    2.4807 H   0  0  0  0  0  0  0  0  0  0  0  0
    8.4796   -6.8831    4.2696 H   0  0  0  0  0  0  0  0  0  0  0  0
    8.7105   -5.1869    4.5318 H   0  0  0  0  0  0  0  0  0  0  0  0
    6.4785   -5.8620    4.8603 H   0  0  0  0  0  0  0  0  0  0  0  0
    5.0610   -6.8186    3.6568 H   0  0  0  0  0  0  0  0  0  0  0  0
    7.4767   -7.9133    2.5500 H   0  0  0  0  0  0  0  0  0  0  0  0
    5.9624   -8.2193    1.7358 H   0  0  0  0  0  0  0  0  0  0  0  0
    6.7804   -6.6044    0.1805 H   0  0  0  0  0  0  0  0  0  0  0  0
    4.1100   -6.3057   -0.9052 H   0  0  0  0  0  0  0  0  0  0  0  0
    3.8030   -8.0214    2.7229 H   0  0  0  0  0  0  0  0  0  0  0  0
    3.7633   -8.7239    1.1262 H   0  0  0  0  0  0  0  0  0  0  0  0
    6.5874   -4.6667    3.7453 H   0  0  0  0  0  0  0  0  0  0  0  0
  1  2  1  0
  1 33  1  0
  1 34  1  0
  1 35  1  0
  2 32  1  0
  2  3  2  0
  3  4  1  0
  3 36  1  0
  4 30  1  0
  4  5  1  0
  4 37  1  6
  5  6  1  0
  5 38  1  0
  5 39  1  0
  6  7  1  0
  6  8  1  0
  6 40  1  1
  7 41  1  0
  8 29  1  0
  8  9  1  0
  8 42  1  1
  9 16  1  0
  9 20  1  0
  9 10  1  6
 10 11  1  0
 10 43  1  0
 10 44  1  0
 11 12  1  0
 11 13  1  0
 11 45  1  6
 12 46  1  0
 12 47  1  0
 12 48  1  0
 13 14  1  0
 13 15  1  0
 13 49  1  6
 14 50  1  0
 14 51  1  0
 14 52  1  0
 15 16  1  0
 15 53  1  0
 15 54  1  0
 16 17  1  0
 16 55  1  1
 17 18  1  0
 17 19  1  0
 17 56  1  6
 18 57  1  0
 19 20  1  0
 20 21  1  0
 20 58  1  6
 21 22  1  0
 21 59  1  0
 21 60  1  0
 22 28  1  0
 22 23  1  0
 22 61  1  1
 23 24  1  0
 23 62  1  0
 23 63  1  0
 24 25  1  0
 24 64  1  0
 24 65  1  0
 25 26  1  0
 25 66  1  0
 25 74  1  0
 26 29  1  0
 26 27  1  0
 26 67  1  1
 27 28  1  0
 27 68  1  0
 27 69  1  0
 28 29  1  0
 28 70  1  6
 29 30  1  6
 30 31  1  6
 30 32  1  0
 31 71  1  0
 32 72  1  0
 32 73  1  0
M  CHG  1  25   1
M  END
>  <i_m_ct_stereo_status>  (301) 
1

>  <s_m_source_file>  (301) 
/var/tmp/pbs.5076255.sched01/tmp7rmqr72f/92ch8atech.sdf

>  <i_m_source_file_index>  (301) 
23

>  <i_lp_mmshare_version>  (301) 
48012

>  <i_f3d_flags>  (301) 
0

>  <s_epik_input>  (301) 
W0NIM11DKFtDSDJdMSk9W0NIXVtDQEBIXShbQ0gyXVtDQEhdMltPSF0pW0NAQF0xKFtPSF0pW0NAQF0zKFtDQEhdMltDQEBdNDU2KVtDQEBIXTdbTkhdW0NIMl1bQ0gyXVtDQEhdKFtDQEhdM1tDSDJdNylbQ0gyXVtDQEBIXTZPW0NASF0oW09IXSlbQ0BIXTVbQ0gyXVtDQEhdKFtDSDNdKVtDQEBIXShbQ0gyXTQpW0NIM10=

>  <s_epik_cmdline>  (301) 
J2VwaWtfcHl0aG9uJywgJy1waHQnLCAnMi4wJywgJy1waCcsICc3LjAnLCAnLXRuJywgJzgnLCAnLW1hJywgJzIwMCcsICctaW1hZScsICc8aW5maWxlLm1hZT4nLCAnLW9tYWUnLCAnPG91dGZpbGUubWFlPic=

>  <r_lp_tautomer_probability>  (301) 
1

>  <r_epik_Ionization_Penalty>  (301) 
9.26213e-05

>  <r_epik_Ionization_Penalty_Charging>  (301) 
9.24031e-05

>  <r_epik_Ionization_Penalty_Neutral>  (301) 
2.18258e-07

>  <r_epik_State_Penalty>  (301) 
-0

>  <r_epik_Charging_Adjusted_Penalty>  (301) 
9.24031e-05

>  <i_epik_Tot_Q>  (301) 
1

>  <i_epik_Tot_abs_Q>  (301) 
1

>  <s_epik_Chemistry_Notes>  (301) 
This compound contains an acetal/aminal-like group ( X-CH(R)-Y where X, Y are N, S, or O) that may be acid/base labile, releasing an aldehyde.

>  <s_lp_Force_Field>  (301) 
OPLS3e

>  <r_lp_Energy>  (301) 
115.552

>  <b_lp_Chiralities_Consistent>  (301) 
1

>  <s_lp_Variant>  (301) 
76:0-1

>  <s_i_glide_gridfile>  (301) 
pfpi4k_grid

>  <i_i_glide_lignum>  (301) 
23

>  <i_i_glide_rotatable_bonds>  (301) 
3

>  <r_i_docking_score>  (301) 
-3.58466

>  <r_i_glide_ligand_efficiency>  (301) 
-0.112021

>  <r_i_glide_ligand_efficiency_sa>  (301) 
-0.355644

>  <r_i_glide_ligand_efficiency_ln>  (301) 
-0.802704

>  <r_i_glide_gscore>  (301) 
-3.58466

>  <r_i_glide_lipo>  (301) 
-0.959156

>  <r_i_glide_hbond>  (301) 
-0.269936

>  <r_i_glide_metal>  (301) 
-0

>  <r_i_glide_rewards>  (301) 
-0.525491

>  <r_i_glide_evdw>  (301) 
-23.1686

>  <r_i_glide_ecoul>  (301) 
-4.47766

>  <r_i_glide_erotb>  (301) 
0

>  <r_i_glide_esite>  (301) 
0

>  <r_i_glide_emodel>  (301) 
-33.6328

>  <r_i_glide_energy>  (301) 
-27.6463

>  <r_i_glide_einternal>  (301) 
0.75079

>  <r_i_glide_intrahb_reward>  (301) 
-0

>  <i_i_glide_confnum>  (301) 
2

>  <i_i_glide_posenum>  (301) 
2

>  <r_i_glide_eff_state_penalty>  (301) 
0

>  <ligand_id>  (301) 
76

>  <original_smiles>  (301) 
CC1=CC2CC(O)C3C45CC(C)C(C)CC4C(O)OC5CC4CCNC5CC4C53C2(O)C1

>  <smiles>  (301) 
[H]OC1([H])OC2([H])C([H])([H])C3([H])C([H])([H])C([H])([H])[N+]([H])([H])C4([H])C([H])([H])C3([H])C43C([H])(C([H])(O[H])C([H])([H])C4([H])C([H])=C(C([H])([H])[H])C([H])([H])C43O[H])C23C([H])([H])C([H])(C([H])([H])[H])C([H])(C([H])([H])[H])C([H])([H])C13[H]

$$$$
76:0:1
     RDKit          3D

 74 80  0  0  1  0  0  0  0  0999 V2000
    5.2075   -3.0592   -3.0915 C   0  0  0  0  0  0  0  0  0  0  0  0
    4.9201   -3.1127   -1.6093 C   0  0  0  0  0  0  0  0  0  0  0  0
    3.9836   -2.4532   -0.9481 C   0  0  0  0  0  0  0  0  0  0  0  0
    4.0080   -2.7379    0.5294 C   0  0  1  0  0  0  0  0  0  0  0  0
    2.6154   -3.0549    1.0711 C   0  0  0  0  0  0  0  0  0  0  0  0
    2.4541   -4.4481    1.6467 C   0  0  1  0  0  0  0  0  0  0  0  0
    2.2974   -5.3781    0.5841 O   0  0  0  0  0  0  0  0  0  0  0  0
    3.6168   -4.8614    2.5699 C   0  0  2  0  0  0  0  0  0  0  0  0
    3.7586   -4.1309    4.0304 C   0  0  1  0  0  0  0  0  0  0  0  0
    4.5176   -2.7721    3.9438 C   0  0  0  0  0  0  0  0  0  0  0  0
    4.3880   -1.7765    5.1198 C   0  0  1  0  0  0  0  0  0  0  0  0
    5.1400   -0.4655    4.8247 C   0  0  0  0  0  0  0  0  0  0  0  0
    2.9218   -1.5413    5.5379 C   0  0  1  0  0  0  0  0  0  0  0  0
    2.0699   -0.7149    4.5536 C   0  0  0  0  0  0  0  0  0  0  0  0
    2.2881   -2.8969    5.8676 C   0  0  0  0  0  0  0  0  0  0  0  0
    2.3632   -3.9274    4.7042 C   0  0  2  0  0  0  0  0  0  0  0  0
    2.0643   -5.3200    5.2961 C   0  0  1  0  0  0  0  0  0  0  0  0
    1.3266   -6.1028    4.3873 O   0  0  0  0  0  0  0  0  0  0  0  0
    3.3048   -5.8956    5.5729 O   0  0  0  0  0  0  0  0  0  0  0  0
    4.3638   -5.0181    5.1858 C   0  0  1  0  0  0  0  0  0  0  0  0
    5.6961   -5.8053    5.0302 C   0  0  0  0  0  0  0  0  0  0  0  0
    5.7210   -6.5573    3.7100 C   0  0  2  0  0  0  0  0  0  0  0  0
    6.1761   -8.0099    3.5601 C   0  0  0  0  0  0  0  0  0  0  0  0
    5.4362   -8.6722    2.3471 C   0  0  0  0  0  0  0  0  0  0  0  0
    4.5426   -7.7643    1.5415 N   0  0  0  0  0  0  0  0  0  0  0  0
    5.1051   -6.4998    0.9438 C   0  0  2  0  0  0  0  0  0  0  0  0
    6.6039   -6.3280    1.2225 C   0  0  0  0  0  0  0  0  0  0  0  0
    6.1109   -5.6532    2.5138 C   0  0  1  0  0  0  0  0  0  0  0  0
    4.9107   -5.0910    1.6940 C   0  0  2  0  0  0  0  0  0  0  0  0
    5.1758   -3.7813    0.7588 C   0  0  2  0  0  0  0  0  0  0  0  0
    6.2078   -3.0138    1.3540 O   0  0  0  0  0  0  0  0  0  0  0  0
    5.7159   -4.0052   -0.7065 C   0  0  0  0  0  0  0  0  0  0  0  0
    6.2369   -2.7413   -3.2433 H   0  0  0  0  0  0  0  0  0  0  0  0
    4.5446   -2.3609   -3.6013 H   0  0  0  0  0  0  0  0  0  0  0  0
    5.0878   -4.0469   -3.5380 H   0  0  0  0  0  0  0  0  0  0  0  0
    3.2839   -1.7566   -1.3858 H   0  0  0  0  0  0  0  0  0  0  0  0
    4.2789   -1.7662    0.9462 H   0  0  0  0  0  0  0  0  0  0  0  0
    2.3845   -2.3479    1.8591 H   0  0  0  0  0  0  0  0  0  0  0  0
    1.8450   -2.8612    0.3241 H   0  0  0  0  0  0  0  0  0  0  0  0
    1.5053   -4.5111    2.1728 H   0  0  0  0  0  0  0  0  0  0  0  0
    2.9867   -5.2297   -0.0484 H   0  0  0  0  0  0  0  0  0  0  0  0
    3.2259   -5.8403    2.8190 H   0  0  0  0  0  0  0  0  0  0  0  0
    5.5755   -2.9818    3.8184 H   0  0  0  0  0  0  0  0  0  0  0  0
    4.1978   -2.2241    3.0717 H   0  0  0  0  0  0  0  0  0  0  0  0
    4.8935   -2.2120    5.9814 H   0  0  0  0  0  0  0  0  0  0  0  0
    4.7688    0.0193    3.9206 H   0  0  0  0  0  0  0  0  0  0  0  0
    6.2035   -0.6511    4.6767 H   0  0  0  0  0  0  0  0  0  0  0  0
    5.0470    0.2441    5.6486 H   0  0  0  0  0  0  0  0  0  0  0  0
    2.9384   -0.9609    6.4622 H   0  0  0  0  0  0  0  0  0  0  0  0
    1.9607   -1.2047    3.5903 H   0  0  0  0  0  0  0  0  0  0  0  0
    2.4957    0.2738    4.3778 H   0  0  0  0  0  0  0  0  0  0  0  0
    1.0652   -0.5564    4.9492 H   0  0  0  0  0  0  0  0  0  0  0  0
    2.7654   -3.2864    6.7676 H   0  0  0  0  0  0  0  0  0  0  0  0
    1.2449   -2.7476    6.1525 H   0  0  0  0  0  0  0  0  0  0  0  0
    1.5779   -3.6305    4.0149 H   0  0  0  0  0  0  0  0  0  0  0  0
    1.4679   -5.2671    6.2112 H   0  0  0  0  0  0  0  0  0  0  0  0
    1.1928   -6.9533    4.7830 H   0  0  0  0  0  0  0  0  0  0  0  0
    4.5304   -4.3954    6.0604 H   0  0  0  0  0  0  0  0  0  0  0  0
    6.5624   -5.1507    5.1198 H   0  0  0  0  0  0  0  0  0  0  0  0
    5.7762   -6.5175    5.8513 H   0  0  0  0  0  0  0  0  0  0  0  0
    4.6743   -6.8102    3.7242 H   0  0  0  0  0  0  0  0  0  0  0  0
    7.2582   -8.0684    3.4374 H   0  0  0  0  0  0  0  0  0  0  0  0
    5.9373   -8.5674    4.4674 H   0  0  0  0  0  0  0  0  0  0  0  0
    6.1543   -9.1638    1.6870 H   0  0  0  0  0  0  0  0  0  0  0  0
    4.8015   -9.4751    2.7307 H   0  0  0  0  0  0  0  0  0  0  0  0
    4.2200   -8.3283    0.7680 H   0  0  0  0  0  0  0  0  0  0  0  0
    4.8197   -6.5117   -0.1001 H   0  0  0  0  0  0  0  0  0  0  0  0
    7.2278   -7.2133    1.3096 H   0  0  0  0  0  0  0  0  0  0  0  0
    7.1212   -5.6382    0.5638 H   0  0  0  0  0  0  0  0  0  0  0  0
    6.8400   -4.8992    2.8058 H   0  0  0  0  0  0  0  0  0  0  0  0
    5.9022   -2.7236    2.1979 H   0  0  0  0  0  0  0  0  0  0  0  0
    5.5652   -4.9875   -1.1283 H   0  0  0  0  0  0  0  0  0  0  0  0
    6.7765   -3.7703   -0.8066 H   0  0  0  0  0  0  0  0  0  0  0  0
    3.7320   -7.5163    2.0938 H   0  0  0  0  0  0  0  0  0  0  0  0
  1  2  1  0
  1 33  1  0
  1 34  1  0
  1 35  1  0
  2 32  1  0
  2  3  2  0
  3  4  1  0
  3 36  1  0
  4 30  1  0
  4  5  1  0
  4 37  1  1
  5  6  1  0
  5 38  1  0
  5 39  1  0
  6  7  1  0
  6  8  1  0
  6 40  1  1
  7 41  1  0
  8 29  1  0
  8  9  1  0
  8 42  1  1
  9 16  1  0
  9 20  1  0
  9 10  1  6
 10 11  1  0
 10 43  1  0
 10 44  1  0
 11 12  1  0
 11 13  1  0
 11 45  1  1
 12 46  1  0
 12 47  1  0
 12 48  1  0
 13 14  1  0
 13 15  1  0
 13 49  1  1
 14 50  1  0
 14 51  1  0
 14 52  1  0
 15 16  1  0
 15 53  1  0
 15 54  1  0
 16 17  1  0
 16 55  1  6
 17 18  1  0
 17 19  1  0
 17 56  1  1
 18 57  1  0
 19 20  1  0
 20 21  1  0
 20 58  1  1
 21 22  1  0
 21 59  1  0
 21 60  1  0
 22 28  1  0
 22 23  1  0
 22 61  1  6
 23 24  1  0
 23 62  1  0
 23 63  1  0
 24 25  1  0
 24 64  1  0
 24 65  1  0
 25 26  1  0
 25 66  1  0
 25 74  1  0
 26 29  1  0
 26 27  1  0
 26 67  1  6
 27 28  1  0
 27 68  1  0
 27 69  1  0
 28 29  1  0
 28 70  1  1
 29 30  1  6
 30 31  1  1
 30 32  1  0
 31 71  1  0
 32 72  1  0
 32 73  1  0
M  CHG  1  25   1
M  END
>  <i_m_ct_stereo_status>  (302) 
1

>  <s_m_source_file>  (302) 
/var/tmp/pbs.5076255.sched01/tmp7rmqr72f/92ch8atech.sdf

>  <i_m_source_file_index>  (302) 
23

>  <i_lp_mmshare_version>  (302) 
48012

>  <i_f3d_flags>  (302) 
0

>  <s_epik_input>  (302) 
W0NIM11DKFtDSDJdMSk9W0NIXVtDQEBIXShbQ0gyXVtDQEhdMltPSF0pW0NAQF0xKFtPSF0pW0NAQF0zKFtDQEhdMltDQEBdNDU2KVtDQEBIXTdbTkhdW0NIMl1bQ0gyXVtDQEhdKFtDQEhdM1tDSDJdNylbQ0gyXVtDQEBIXTZPW0NASF0oW09IXSlbQ0BIXTVbQ0gyXVtDQEhdKFtDSDNdKVtDQEBIXShbQ0gyXTQpW0NIM10=

>  <s_epik_cmdline>  (302) 
J2VwaWtfcHl0aG9uJywgJy1waHQnLCAnMi4wJywgJy1waCcsICc3LjAnLCAnLXRuJywgJzgnLCAnLW1hJywgJzIwMCcsICctaW1hZScsICc8aW5maWxlLm1hZT4nLCAnLW9tYWUnLCAnPG91dGZpbGUubWFlPic=

>  <r_lp_tautomer_probability>  (302) 
1

>  <r_epik_Ionization_Penalty>  (302) 
9.26213e-05

>  <r_epik_Ionization_Penalty_Charging>  (302) 
9.24031e-05

>  <r_epik_Ionization_Penalty_Neutral>  (302) 
2.18258e-07

>  <r_epik_State_Penalty>  (302) 
-0

>  <r_epik_Charging_Adjusted_Penalty>  (302) 
9.24031e-05

>  <i_epik_Tot_Q>  (302) 
1

>  <i_epik_Tot_abs_Q>  (302) 
1

>  <s_epik_Chemistry_Notes>  (302) 
This compound contains an acetal/aminal-like group ( X-CH(R)-Y where X, Y are N, S, or O) that may be acid/base labile, releasing an aldehyde.

>  <s_lp_Force_Field>  (302) 
OPLS3e

>  <r_lp_Energy>  (302) 
115.552

>  <b_lp_Chiralities_Consistent>  (302) 
1

>  <s_lp_Variant>  (302) 
76:0-1

>  <s_i_glide_gridfile>  (302) 
pfpi4k_grid

>  <i_i_glide_lignum>  (302) 
23

>  <i_i_glide_rotatable_bonds>  (302) 
3

>  <r_i_docking_score>  (302) 
-2.76836

>  <r_i_glide_ligand_efficiency>  (302) 
-0.0865113

>  <r_i_glide_ligand_efficiency_sa>  (302) 
-0.274656

>  <r_i_glide_ligand_efficiency_ln>  (302) 
-0.619911

>  <r_i_glide_gscore>  (302) 
-2.76836

>  <r_i_glide_lipo>  (302) 
-0.637089

>  <r_i_glide_hbond>  (302) 
0

>  <r_i_glide_metal>  (302) 
-0

>  <r_i_glide_rewards>  (302) 
-0.377545

>  <r_i_glide_evdw>  (302) 
-23.9549

>  <r_i_glide_ecoul>  (302) 
-3.7064

>  <r_i_glide_erotb>  (302) 
0

>  <r_i_glide_esite>  (302) 
-1.96837e-05

>  <r_i_glide_emodel>  (302) 
-32.7138

>  <r_i_glide_energy>  (302) 
-27.6613

>  <r_i_glide_einternal>  (302) 
0.37812

>  <r_i_glide_intrahb_reward>  (302) 
-0

>  <i_i_glide_confnum>  (302) 
1

>  <i_i_glide_posenum>  (302) 
21

>  <r_i_glide_eff_state_penalty>  (302) 
0

>  <ligand_id>  (302) 
76

>  <original_smiles>  (302) 
CC1=CC2CC(O)C3C45CC(C)C(C)CC4C(O)OC5CC4CCNC5CC4C53C2(O)C1

>  <smiles>  (302) 
[H]OC1([H])OC2([H])C([H])([H])C3([H])C([H])([H])C([H])([H])[N+]([H])([H])C4([H])C([H])([H])C3([H])C43C([H])(C([H])(O[H])C([H])([H])C4([H])C([H])=C(C([H])([H])[H])C([H])([H])C43O[H])C23C([H])([H])C([H])(C([H])([H])[H])C([H])(C([H])([H])[H])C([H])([H])C13[H]

$$$$
76:0:2
     RDKit          3D

 74 80  0  0  1  0  0  0  0  0999 V2000
    3.9203   -3.3314   -3.4938 C   0  0  0  0  0  0  0  0  0  0  0  0
    4.0165   -3.3425   -1.9871 C   0  0  0  0  0  0  0  0  0  0  0  0
    3.2293   -2.6917   -1.1522 C   0  0  0  0  0  0  0  0  0  0  0  0
    3.6143   -2.8421    0.2907 C   0  0  1  0  0  0  0  0  0  0  0  0
    2.4318   -3.1594    1.1833 C   0  0  0  0  0  0  0  0  0  0  0  0
    2.4451   -4.5351    1.8350 C   0  0  1  0  0  0  0  0  0  0  0  0
    2.0981   -5.5174    0.8718 O   0  0  0  0  0  0  0  0  0  0  0  0
    3.8137   -4.8363    2.4742 C   0  0  2  0  0  0  0  0  0  0  0  0
    4.2540   -4.0192    3.8202 C   0  0  1  0  0  0  0  0  0  0  0  0
    4.8669   -2.6180    3.4701 C   0  0  0  0  0  0  0  0  0  0  0  0
    4.9755   -1.5569    4.5882 C   0  0  1  0  0  0  0  0  0  0  0  0
    5.5313   -0.2233    4.0466 C   0  0  0  0  0  0  0  0  0  0  0  0
    3.6408   -1.3708    5.3383 C   0  0  1  0  0  0  0  0  0  0  0  0
    2.5240   -0.6571    4.5528 C   0  0  0  0  0  0  0  0  0  0  0  0
    3.1949   -2.7330    5.8806 C   0  0  0  0  0  0  0  0  0  0  0  0
    3.0524   -3.8352    4.7971 C   0  0  2  0  0  0  0  0  0  0  0  0
    2.9831   -5.1849    5.5409 C   0  0  1  0  0  0  0  0  0  0  0  0
    2.1190   -6.0891    4.8980 O   0  0  0  0  0  0  0  0  0  0  0  0
    4.2787   -5.6819    5.5511 O   0  0  0  0  0  0  0  0  0  0  0  0
    5.1647   -4.8197    4.8536 C   0  0  1  0  0  0  0  0  0  0  0  0
    6.4498   -5.6599    4.5022 C   0  0  0  0  0  0  0  0  0  0  0  0
    6.2105   -6.3983    3.2033 C   0  0  2  0  0  0  0  0  0  0  0  0
    6.7486   -7.7916    2.9749 C   0  0  0  0  0  0  0  0  0  0  0  0
    5.8085   -8.5623    2.0097 C   0  0  0  0  0  0  0  0  0  0  0  0
    4.6790   -7.7620    1.4148 N   0  0  0  0  0  0  0  0  0  0  0  0
    4.9939   -6.4971    0.6555 C   0  0  2  0  0  0  0  0  0  0  0  0
    6.4900   -6.1942    0.5629 C   0  0  0  0  0  0  0  0  0  0  0  0
    6.2583   -5.5033    1.9126 C   0  0  1  0  0  0  0  0  0  0  0  0
    4.8839   -5.0632    1.3486 C   0  0  2  0  0  0  0  0  0  0  0  0
    4.8513   -3.8150    0.2876 C   0  0  2  0  0  0  0  0  0  0  0  0
    5.9331   -2.9531    0.5717 O   0  0  0  0  0  0  0  0  0  0  0  0
    5.0515   -4.1185   -1.2543 C   0  0  0  0  0  0  0  0  0  0  0  0
    4.8467   -2.9518   -3.9165 H   0  0  0  0  0  0  0  0  0  0  0  0
    3.0891   -2.7143   -3.8478 H   0  0  0  0  0  0  0  0  0  0  0  0
    3.7678   -4.3284   -3.8981 H   0  0  0  0  0  0  0  0  0  0  0  0
    2.4153   -2.1064   -1.5196 H   0  0  0  0  0  0  0  0  0  0  0  0
    3.9147   -1.8304    0.5641 H   0  0  0  0  0  0  0  0  0  0  0  0
    2.3370   -2.4252    1.9680 H   0  0  0  0  0  0  0  0  0  0  0  0
    1.5497   -2.9516    0.5863 H   0  0  0  0  0  0  0  0  0  0  0  0
    1.6542   -4.5968    2.5782 H   0  0  0  0  0  0  0  0  0  0  0  0
    2.1434   -6.3832    1.2610 H   0  0  0  0  0  0  0  0  0  0  0  0
    3.5613   -5.8192    2.8583 H   0  0  0  0  0  0  0  0  0  0  0  0
    5.8778   -2.7829    3.1105 H   0  0  0  0  0  0  0  0  0  0  0  0
    4.3220   -2.1362    2.6687 H   0  0  0  0  0  0  0  0  0  0  0  0
    5.7067   -1.9054    5.3207 H   0  0  0  0  0  0  0  0  0  0  0  0
    4.9111    0.1718    3.2427 H   0  0  0  0  0  0  0  0  0  0  0  0
    6.5328   -0.3294    3.6305 H   0  0  0  0  0  0  0  0  0  0  0  0
    5.5953    0.5288    4.8334 H   0  0  0  0  0  0  0  0  0  0  0  0
    3.8330   -0.7282    6.1969 H   0  0  0  0  0  0  0  0  0  0  0  0
    2.2199   -1.2154    3.6743 H   0  0  0  0  0  0  0  0  0  0  0  0
    2.8297    0.3374    4.2264 H   0  0  0  0  0  0  0  0  0  0  0  0
    1.6369   -0.5260    5.1733 H   0  0  0  0  0  0  0  0  0  0  0  0
    3.9013   -3.0348    6.6562 H   0  0  0  0  0  0  0  0  0  0  0  0
    2.2481   -2.6230    6.4049 H   0  0  0  0  0  0  0  0  0  0  0  0
    2.1146   -3.6168    4.2952 H   0  0  0  0  0  0  0  0  0  0  0  0
    2.6291   -5.0818    6.5628 H   0  0  0  0  0  0  0  0  0  0  0  0
    2.4700   -6.2161    4.0327 H   0  0  0  0  0  0  0  0  0  0  0  0
    5.5000   -4.1105    5.6040 H   0  0  0  0  0  0  0  0  0  0  0  0
    7.3757   -5.1025    4.4776 H   0  0  0  0  0  0  0  0  0  0  0  0
    6.6356   -6.3785    5.3315 H   0  0  0  0  0  0  0  0  0  0  0  0
    5.2092   -6.6960    3.4472 H   0  0  0  0  0  0  0  0  0  0  0  0
    7.7776   -7.7888    2.5912 H   0  0  0  0  0  0  0  0  0  0  0  0
    6.7696   -8.3131    3.9412 H   0  0  0  0  0  0  0  0  0  0  0  0
    6.3774   -9.0643    1.2312 H   0  0  0  0  0  0  0  0  0  0  0  0
    5.3372   -9.3624    2.5840 H   0  0  0  0  0  0  0  0  0  0  0  0
    4.2492   -8.3853    0.7650 H   0  0  0  0  0  0  0  0  0  0  0  0
    4.5014   -6.5727   -0.3053 H   0  0  0  0  0  0  0  0  0  0  0  0
    7.2077   -7.0337    0.5514 H   0  0  0  0  0  0  0  0  0  0  0  0
    6.7406   -5.5065   -0.1998 H   0  0  0  0  0  0  0  0  0  0  0  0
    6.9880   -4.7048    1.9673 H   0  0  0  0  0  0  0  0  0  0  0  0
    5.7862   -2.5926    1.4342 H   0  0  0  0  0  0  0  0  0  0  0  0
    4.8733   -5.1287   -1.5825 H   0  0  0  0  0  0  0  0  0  0  0  0
    6.0302   -3.8126   -1.6166 H   0  0  0  0  0  0  0  0  0  0  0  0
    4.0376   -7.5350    2.1492 H   0  0  0  0  0  0  0  0  0  0  0  0
  1  2  1  0
  1 33  1  0
  1 34  1  0
  1 35  1  0
  2 32  1  0
  2  3  2  0
  3  4  1  0
  3 36  1  0
  4 30  1  0
  4  5  1  0
  4 37  1  1
  5  6  1  0
  5 38  1  0
  5 39  1  0
  6  7  1  0
  6  8  1  0
  6 40  1  1
  7 41  1  0
  8 29  1  0
  8  9  1  0
  8 42  1  1
  9 16  1  0
  9 20  1  0
  9 10  1  6
 10 11  1  0
 10 43  1  0
 10 44  1  0
 11 12  1  0
 11 13  1  0
 11 45  1  1
 12 46  1  0
 12 47  1  0
 12 48  1  0
 13 14  1  0
 13 15  1  0
 13 49  1  1
 14 50  1  0
 14 51  1  0
 14 52  1  0
 15 16  1  0
 15 53  1  0
 15 54  1  0
 16 17  1  0
 16 55  1  6
 17 18  1  0
 17 19  1  0
 17 56  1  1
 18 57  1  0
 19 20  1  0
 20 21  1  0
 20 58  1  1
 21 22  1  0
 21 59  1  0
 21 60  1  0
 22 28  1  0
 22 23  1  0
 22 61  1  1
 23 24  1  0
 23 62  1  0
 23 63  1  0
 24 25  1  0
 24 64  1  0
 24 65  1  0
 25 26  1  0
 25 66  1  0
 25 74  1  0
 26 29  1  0
 26 27  1  0
 26 67  1  6
 27 28  1  0
 27 68  1  0
 27 69  1  0
 28 29  1  0
 28 70  1  1
 29 30  1  6
 30 31  1  1
 30 32  1  0
 31 71  1  0
 32 72  1  0
 32 73  1  0
M  CHG  1  25   1
M  END
>  <i_m_ct_stereo_status>  (303) 
1

>  <s_m_source_file>  (303) 
/var/tmp/pbs.5076255.sched01/tmp7rmqr72f/92ch8atech.sdf

>  <i_m_source_file_index>  (303) 
23

>  <i_lp_mmshare_version>  (303) 
48012

>  <i_f3d_flags>  (303) 
0

>  <s_epik_input>  (303) 
W0NIM11DKFtDSDJdMSk9W0NIXVtDQEBIXShbQ0gyXVtDQEhdMltPSF0pW0NAQF0xKFtPSF0pW0NAQF0zKFtDQEhdMltDQEBdNDU2KVtDQEBIXTdbTkhdW0NIMl1bQ0gyXVtDQEhdKFtDQEhdM1tDSDJdNylbQ0gyXVtDQEBIXTZPW0NASF0oW09IXSlbQ0BIXTVbQ0gyXVtDQEhdKFtDSDNdKVtDQEBIXShbQ0gyXTQpW0NIM10=

>  <s_epik_cmdline>  (303) 
J2VwaWtfcHl0aG9uJywgJy1waHQnLCAnMi4wJywgJy1waCcsICc3LjAnLCAnLXRuJywgJzgnLCAnLW1hJywgJzIwMCcsICctaW1hZScsICc8aW5maWxlLm1hZT4nLCAnLW9tYWUnLCAnPG91dGZpbGUubWFlPic=

>  <r_lp_tautomer_probability>  (303) 
1

>  <r_epik_Ionization_Penalty>  (303) 
9.26213e-05

>  <r_epik_Ionization_Penalty_Charging>  (303) 
9.24031e-05

>  <r_epik_Ionization_Penalty_Neutral>  (303) 
2.18258e-07

>  <r_epik_State_Penalty>  (303) 
-0

>  <r_epik_Charging_Adjusted_Penalty>  (303) 
9.24031e-05

>  <i_epik_Tot_Q>  (303) 
1

>  <i_epik_Tot_abs_Q>  (303) 
1

>  <s_epik_Chemistry_Notes>  (303) 
This compound contains an acetal/aminal-like group ( X-CH(R)-Y where X, Y are N, S, or O) that may be acid/base labile, releasing an aldehyde.

>  <s_lp_Force_Field>  (303) 
OPLS3e

>  <r_lp_Energy>  (303) 
115.552

>  <b_lp_Chiralities_Consistent>  (303) 
1

>  <s_lp_Variant>  (303) 
76:0-1

>  <s_i_glide_gridfile>  (303) 
pfpi4k_grid

>  <i_i_glide_lignum>  (303) 
23

>  <i_i_glide_rotatable_bonds>  (303) 
3

>  <r_i_docking_score>  (303) 
-2.38589

>  <r_i_glide_ligand_efficiency>  (303) 
-0.074559

>  <r_i_glide_ligand_efficiency_sa>  (303) 
-0.23671

>  <r_i_glide_ligand_efficiency_ln>  (303) 
-0.534265

>  <r_i_glide_gscore>  (303) 
-2.38589

>  <r_i_glide_lipo>  (303) 
-0.715765

>  <r_i_glide_hbond>  (303) 
-0.0249986

>  <r_i_glide_metal>  (303) 
-0

>  <r_i_glide_rewards>  (303) 
-0.377545

>  <r_i_glide_evdw>  (303) 
-16.4834

>  <r_i_glide_ecoul>  (303) 
-2.95605

>  <r_i_glide_erotb>  (303) 
0

>  <r_i_glide_esite>  (303) 
0

>  <r_i_glide_emodel>  (303) 
-22.5813

>  <r_i_glide_energy>  (303) 
-19.4394

>  <r_i_glide_einternal>  (303) 
0.658816

>  <r_i_glide_intrahb_reward>  (303) 
-0

>  <i_i_glide_confnum>  (303) 
1

>  <i_i_glide_posenum>  (303) 
14

>  <r_i_glide_eff_state_penalty>  (303) 
0

>  <ligand_id>  (303) 
76

>  <original_smiles>  (303) 
CC1=CC2CC(O)C3C45CC(C)C(C)CC4C(O)OC5CC4CCNC5CC4C53C2(O)C1

>  <smiles>  (303) 
[H]OC1([H])OC2([H])C([H])([H])C3([H])C([H])([H])C([H])([H])[N+]([H])([H])C4([H])C([H])([H])C3([H])C43C([H])(C([H])(O[H])C([H])([H])C4([H])C([H])=C(C([H])([H])[H])C([H])([H])C43O[H])C23C([H])([H])C([H])(C([H])([H])[H])C([H])(C([H])([H])[H])C([H])([H])C13[H]

$$$$
78:0:0
     RDKit          3D

 26 27  0  0  1  0  0  0  0  0999 V2000
    4.9435   -3.3071   -3.1560 C   0  0  0  0  0  0  0  0  0  0  0  0
    3.9698   -2.4381   -2.3442 C   0  0  0  0  0  0  0  0  0  0  0  0
    3.3397   -1.3790   -3.2621 C   0  0  0  0  0  0  0  0  0  0  0  0
    2.8521   -3.3259   -1.7759 C   0  0  0  0  0  0  0  0  0  0  0  0
    4.8770   -1.5570   -1.0222 S   0  0  0  0  0  0  0  0  0  0  0  0
    6.1637   -2.6045   -0.4230 C   0  0  0  0  0  0  0  0  0  0  0  0
    7.4169   -2.2611   -0.7973 N   0  0  0  0  0  0  0  0  0  0  0  0
    8.4208   -3.0514   -0.4064 C   0  0  0  0  0  0  0  0  0  0  0  0
    8.3692   -4.1713    0.3253 N   0  0  0  0  0  0  0  0  0  0  0  0
    7.0950   -4.4878    0.7072 C   0  0  0  0  0  0  0  0  0  0  0  0
    6.7117   -5.9114    1.6667 S   0  0  0  0  0  0  0  0  0  0  0  0
    5.0247   -5.4979    1.6406 C   0  0  0  0  0  0  0  0  0  0  0  0
    4.7315   -4.3353    0.9770 C   0  0  0  0  0  0  0  0  0  0  0  0
    5.9187   -3.7459    0.3869 C   0  0  0  0  0  0  0  0  0  0  0  0
    4.4454   -3.7683   -4.0111 H   0  0  0  0  0  0  0  0  0  0  0  0
    5.3532   -4.1157   -2.5528 H   0  0  0  0  0  0  0  0  0  0  0  0
    5.7842   -2.7118   -3.5185 H   0  0  0  0  0  0  0  0  0  0  0  0
    4.0941   -0.7199   -3.6875 H   0  0  0  0  0  0  0  0  0  0  0  0
    2.6320   -0.7579   -2.7067 H   0  0  0  0  0  0  0  0  0  0  0  0
    2.7895   -1.8439   -4.0814 H   0  0  0  0  0  0  0  0  0  0  0  0
    2.2465   -3.7551   -2.5780 H   0  0  0  0  0  0  0  0  0  0  0  0
    2.1842   -2.7544   -1.1319 H   0  0  0  0  0  0  0  0  0  0  0  0
    3.2442   -4.1691   -1.2085 H   0  0  0  0  0  0  0  0  0  0  0  0
    9.4112   -2.7331   -0.7177 H   0  0  0  0  0  0  0  0  0  0  0  0
    4.3185   -6.1476    2.1383 H   0  0  0  0  0  0  0  0  0  0  0  0
    3.7433   -3.9079    0.8861 H   0  0  0  0  0  0  0  0  0  0  0  0
  1  2  1  0
  1 15  1  0
  1 16  1  0
  1 17  1  0
  2  3  1  0
  2  4  1  0
  2  5  1  0
  3 18  1  0
  3 19  1  0
  3 20  1  0
  4 21  1  0
  4 22  1  0
  4 23  1  0
  5  6  1  0
  6 14  2  0
  6  7  1  0
  7  8  2  0
  8  9  1  0
  8 24  1  0
  9 10  2  0
 10 14  1  0
 10 11  1  0
 11 12  1  0
 12 13  2  0
 12 25  1  0
 13 14  1  0
 13 26  1  0
M  END
>  <i_m_ct_stereo_status>  (304) 
1

>  <s_m_source_file>  (304) 
/var/tmp/pbs.5076255.sched01/tmp7rmqr72f/92ch8atech.sdf

>  <i_m_source_file_index>  (304) 
25

>  <i_lp_mmshare_version>  (304) 
48012

>  <i_f3d_flags>  (304) 
0

>  <s_epik_input>  (304) 
W0NIM11DKFtDSDNdKShbQ0gzXSlTYyhuW2NIXW4xKWMoYzEyKVtjSF1bY0hdczI=

>  <s_epik_cmdline>  (304) 
J2VwaWtfcHl0aG9uJywgJy1waHQnLCAnMi4wJywgJy1waCcsICc3LjAnLCAnLXRuJywgJzgnLCAnLW1hJywgJzIwMCcsICctaW1hZScsICc8aW5maWxlLm1hZT4nLCAnLW9tYWUnLCAnPG91dGZpbGUubWFlPic=

>  <r_lp_tautomer_probability>  (304) 
1

>  <r_epik_Ionization_Penalty>  (304) 
8.44691e-05

>  <r_epik_Ionization_Penalty_Charging>  (304) 
0

>  <r_epik_Ionization_Penalty_Neutral>  (304) 
8.44691e-05

>  <r_epik_State_Penalty>  (304) 
-0

>  <r_epik_Charging_Adjusted_Penalty>  (304) 
0

>  <i_epik_Tot_Q>  (304) 
0

>  <i_epik_Tot_abs_Q>  (304) 
0

>  <s_lp_Force_Field>  (304) 
OPLS3e

>  <r_lp_Energy>  (304) 
22.3312

>  <b_lp_Chiralities_Consistent>  (304) 
1

>  <s_lp_Variant>  (304) 
78:0-1

>  <s_i_glide_gridfile>  (304) 
pfpi4k_grid

>  <i_i_glide_lignum>  (304) 
25

>  <i_i_glide_rotatable_bonds>  (304) 
2

>  <r_i_docking_score>  (304) 
-4.64144

>  <r_i_glide_ligand_efficiency>  (304) 
-0.331531

>  <r_i_glide_ligand_efficiency_sa>  (304) 
-0.799038

>  <r_i_glide_ligand_efficiency_ln>  (304) 
-1.27545

>  <r_i_glide_gscore>  (304) 
-4.64144

>  <r_i_glide_lipo>  (304) 
-0.772688

>  <r_i_glide_hbond>  (304) 
-0.16

>  <r_i_glide_metal>  (304) 
-0

>  <r_i_glide_rewards>  (304) 
-1.89341

>  <r_i_glide_evdw>  (304) 
-24.6794

>  <r_i_glide_ecoul>  (304) 
-3.87579

>  <r_i_glide_erotb>  (304) 
0

>  <r_i_glide_esite>  (304) 
0

>  <r_i_glide_emodel>  (304) 
-35.8603

>  <r_i_glide_energy>  (304) 
-28.5552

>  <r_i_glide_einternal>  (304) 
2.7909

>  <r_i_glide_intrahb_reward>  (304) 
-0

>  <i_i_glide_confnum>  (304) 
2

>  <i_i_glide_posenum>  (304) 
25

>  <r_i_glide_eff_state_penalty>  (304) 
0

>  <ligand_id>  (304) 
78

>  <original_smiles>  (304) 
CC(C)(C)Sc1ncnc2sccc12

>  <smiles>  (304) 
[H]c1nc(SC(C([H])([H])[H])(C([H])([H])[H])C([H])([H])[H])c2c([H])c([H])sc2n1

$$$$
78:0:1
     RDKit          3D

 26 27  0  0  1  0  0  0  0  0999 V2000
    3.4413   -4.0489    3.1346 C   0  0  0  0  0  0  0  0  0  0  0  0
    3.4380   -5.2132    2.1112 C   0  0  0  0  0  0  0  0  0  0  0  0
    4.8361   -5.8518    1.9203 C   0  0  0  0  0  0  0  0  0  0  0  0
    2.5085   -6.3104    2.6737 C   0  0  0  0  0  0  0  0  0  0  0  0
    2.7774   -4.6341    0.5028 S   0  0  0  0  0  0  0  0  0  0  0  0
    3.8431   -3.3951   -0.1986 C   0  0  0  0  0  0  0  0  0  0  0  0
    4.8974   -2.9986    0.5314 N   0  0  0  0  0  0  0  0  0  0  0  0
    5.7137   -2.0751    0.0314 C   0  0  0  0  0  0  0  0  0  0  0  0
    5.6528   -1.4560   -1.1427 N   0  0  0  0  0  0  0  0  0  0  0  0
    4.5617   -1.8523   -1.8764 C   0  0  0  0  0  0  0  0  0  0  0  0
    4.1648   -1.1912   -3.4596 S   0  0  0  0  0  0  0  0  0  0  0  0
    2.7870   -2.2318   -3.5662 C   0  0  0  0  0  0  0  0  0  0  0  0
    2.5820   -3.0538   -2.4837 C   0  0  0  0  0  0  0  0  0  0  0  0
    3.5968   -2.8395   -1.4773 C   0  0  0  0  0  0  0  0  0  0  0  0
    3.8741   -4.3651    4.0868 H   0  0  0  0  0  0  0  0  0  0  0  0
    2.4243   -3.6854    3.3148 H   0  0  0  0  0  0  0  0  0  0  0  0
    4.0152   -3.1768    2.8264 H   0  0  0  0  0  0  0  0  0  0  0  0
    5.5895   -5.1743    1.5252 H   0  0  0  0  0  0  0  0  0  0  0  0
    4.7866   -6.6913    1.2217 H   0  0  0  0  0  0  0  0  0  0  0  0
    5.2380   -6.2179    2.8672 H   0  0  0  0  0  0  0  0  0  0  0  0
    2.8932   -6.6929    3.6244 H   0  0  0  0  0  0  0  0  0  0  0  0
    2.4212   -7.1674    2.0015 H   0  0  0  0  0  0  0  0  0  0  0  0
    1.4983   -5.9418    2.8655 H   0  0  0  0  0  0  0  0  0  0  0  0
    6.5311   -1.8245    0.6842 H   0  0  0  0  0  0  0  0  0  0  0  0
    2.1690   -2.1739   -4.4387 H   0  0  0  0  0  0  0  0  0  0  0  0
    1.7748   -3.7537   -2.3823 H   0  0  0  0  0  0  0  0  0  0  0  0
  1  2  1  0
  1 15  1  0
  1 16  1  0
  1 17  1  0
  2  3  1  0
  2  4  1  0
  2  5  1  0
  3 18  1  0
  3 19  1  0
  3 20  1  0
  4 21  1  0
  4 22  1  0
  4 23  1  0
  5  6  1  0
  6 14  2  0
  6  7  1  0
  7  8  2  0
  8  9  1  0
  8 24  1  0
  9 10  2  0
 10 14  1  0
 10 11  1  0
 11 12  1  0
 12 13  2  0
 12 25  1  0
 13 14  1  0
 13 26  1  0
M  END
>  <i_m_ct_stereo_status>  (305) 
1

>  <s_m_source_file>  (305) 
/var/tmp/pbs.5076255.sched01/tmp7rmqr72f/92ch8atech.sdf

>  <i_m_source_file_index>  (305) 
25

>  <i_lp_mmshare_version>  (305) 
48012

>  <i_f3d_flags>  (305) 
0

>  <s_epik_input>  (305) 
W0NIM11DKFtDSDNdKShbQ0gzXSlTYyhuW2NIXW4xKWMoYzEyKVtjSF1bY0hdczI=

>  <s_epik_cmdline>  (305) 
J2VwaWtfcHl0aG9uJywgJy1waHQnLCAnMi4wJywgJy1waCcsICc3LjAnLCAnLXRuJywgJzgnLCAnLW1hJywgJzIwMCcsICctaW1hZScsICc8aW5maWxlLm1hZT4nLCAnLW9tYWUnLCAnPG91dGZpbGUubWFlPic=

>  <r_lp_tautomer_probability>  (305) 
1

>  <r_epik_Ionization_Penalty>  (305) 
8.44691e-05

>  <r_epik_Ionization_Penalty_Charging>  (305) 
0

>  <r_epik_Ionization_Penalty_Neutral>  (305) 
8.44691e-05

>  <r_epik_State_Penalty>  (305) 
-0

>  <r_epik_Charging_Adjusted_Penalty>  (305) 
0

>  <i_epik_Tot_Q>  (305) 
0

>  <i_epik_Tot_abs_Q>  (305) 
0

>  <s_lp_Force_Field>  (305) 
OPLS3e

>  <r_lp_Energy>  (305) 
22.3312

>  <b_lp_Chiralities_Consistent>  (305) 
1

>  <s_lp_Variant>  (305) 
78:0-1

>  <s_i_glide_gridfile>  (305) 
pfpi4k_grid

>  <i_i_glide_lignum>  (305) 
25

>  <i_i_glide_rotatable_bonds>  (305) 
2

>  <r_i_docking_score>  (305) 
-3.85881

>  <r_i_glide_ligand_efficiency>  (305) 
-0.27563

>  <r_i_glide_ligand_efficiency_sa>  (305) 
-0.664306

>  <r_i_glide_ligand_efficiency_ln>  (305) 
-1.06039

>  <r_i_glide_gscore>  (305) 
-3.85881

>  <r_i_glide_lipo>  (305) 
-0.491475

>  <r_i_glide_hbond>  (305) 
-0.0260781

>  <r_i_glide_metal>  (305) 
-0

>  <r_i_glide_rewards>  (305) 
-1.88392

>  <r_i_glide_evdw>  (305) 
-21.5132

>  <r_i_glide_ecoul>  (305) 
-2.54452

>  <r_i_glide_erotb>  (305) 
0

>  <r_i_glide_esite>  (305) 
0

>  <r_i_glide_emodel>  (305) 
-31.0728

>  <r_i_glide_energy>  (305) 
-24.0577

>  <r_i_glide_einternal>  (305) 
0.0592111

>  <r_i_glide_intrahb_reward>  (305) 
-0

>  <i_i_glide_confnum>  (305) 
1

>  <i_i_glide_posenum>  (305) 
6

>  <r_i_glide_eff_state_penalty>  (305) 
0

>  <ligand_id>  (305) 
78

>  <original_smiles>  (305) 
CC(C)(C)Sc1ncnc2sccc12

>  <smiles>  (305) 
[H]c1nc(SC(C([H])([H])[H])(C([H])([H])[H])C([H])([H])[H])c2c([H])c([H])sc2n1

$$$$
78:0:2
     RDKit          3D

 26 27  0  0  1  0  0  0  0  0999 V2000
    2.4070    0.7585    1.8230 C   0  0  0  0  0  0  0  0  0  0  0  0
    2.5160   -0.3635    2.8712 C   0  0  0  0  0  0  0  0  0  0  0  0
    3.6999   -0.0957    3.8333 C   0  0  0  0  0  0  0  0  0  0  0  0
    1.2238   -0.3810    3.7121 C   0  0  0  0  0  0  0  0  0  0  0  0
    2.6923   -1.9808    2.0174 S   0  0  0  0  0  0  0  0  0  0  0  0
    4.1308   -1.9662    0.9809 C   0  0  0  0  0  0  0  0  0  0  0  0
    5.2858   -1.5880    1.5363 N   0  0  0  0  0  0  0  0  0  0  0  0
    6.3667   -1.5203    0.7623 C   0  0  0  0  0  0  0  0  0  0  0  0
    6.4838   -1.7928   -0.5408 N   0  0  0  0  0  0  0  0  0  0  0  0
    5.3159   -2.2358   -1.0906 C   0  0  0  0  0  0  0  0  0  0  0  0
    5.1550   -2.7417   -2.7685 S   0  0  0  0  0  0  0  0  0  0  0  0
    3.4652   -3.0557   -2.5286 C   0  0  0  0  0  0  0  0  0  0  0  0
    3.0164   -2.8347   -1.2550 C   0  0  0  0  0  0  0  0  0  0  0  0
    4.0707   -2.3549   -0.3936 C   0  0  0  0  0  0  0  0  0  0  0  0
    2.3641    1.7414    2.2954 H   0  0  0  0  0  0  0  0  0  0  0  0
    1.5127    0.6460    1.2085 H   0  0  0  0  0  0  0  0  0  0  0  0
    3.2669    0.7590    1.1506 H   0  0  0  0  0  0  0  0  0  0  0  0
    4.6447    0.0458    3.3254 H   0  0  0  0  0  0  0  0  0  0  0  0
    3.7980   -0.9362    4.5300 H   0  0  0  0  0  0  0  0  0  0  0  0
    3.5400    0.8210    4.4124 H   0  0  0  0  0  0  0  0  0  0  0  0
    1.1110    0.5505    4.2678 H   0  0  0  0  0  0  0  0  0  0  0  0
    1.2372   -1.1944    4.4407 H   0  0  0  0  0  0  0  0  0  0  0  0
    0.3280   -0.5026    3.0944 H   0  0  0  0  0  0  0  0  0  0  0  0
    7.2404   -1.1172    1.2551 H   0  0  0  0  0  0  0  0  0  0  0  0
    2.8793   -3.4367   -3.3494 H   0  0  0  0  0  0  0  0  0  0  0  0
    1.9979   -2.9815   -0.9226 H   0  0  0  0  0  0  0  0  0  0  0  0
  1  2  1  0
  1 15  1  0
  1 16  1  0
  1 17  1  0
  2  3  1  0
  2  4  1  0
  2  5  1  0
  3 18  1  0
  3 19  1  0
  3 20  1  0
  4 21  1  0
  4 22  1  0
  4 23  1  0
  5  6  1  0
  6 14  2  0
  6  7  1  0
  7  8  2  0
  8  9  1  0
  8 24  1  0
  9 10  2  0
 10 14  1  0
 10 11  1  0
 11 12  1  0
 12 13  2  0
 12 25  1  0
 13 14  1  0
 13 26  1  0
M  END
>  <i_m_ct_stereo_status>  (306) 
1

>  <s_m_source_file>  (306) 
/var/tmp/pbs.5076255.sched01/tmp7rmqr72f/92ch8atech.sdf

>  <i_m_source_file_index>  (306) 
25

>  <i_lp_mmshare_version>  (306) 
48012

>  <i_f3d_flags>  (306) 
0

>  <s_epik_input>  (306) 
W0NIM11DKFtDSDNdKShbQ0gzXSlTYyhuW2NIXW4xKWMoYzEyKVtjSF1bY0hdczI=

>  <s_epik_cmdline>  (306) 
J2VwaWtfcHl0aG9uJywgJy1waHQnLCAnMi4wJywgJy1waCcsICc3LjAnLCAnLXRuJywgJzgnLCAnLW1hJywgJzIwMCcsICctaW1hZScsICc8aW5maWxlLm1hZT4nLCAnLW9tYWUnLCAnPG91dGZpbGUubWFlPic=

>  <r_lp_tautomer_probability>  (306) 
1

>  <r_epik_Ionization_Penalty>  (306) 
8.44691e-05

>  <r_epik_Ionization_Penalty_Charging>  (306) 
0

>  <r_epik_Ionization_Penalty_Neutral>  (306) 
8.44691e-05

>  <r_epik_State_Penalty>  (306) 
-0

>  <r_epik_Charging_Adjusted_Penalty>  (306) 
0

>  <i_epik_Tot_Q>  (306) 
0

>  <i_epik_Tot_abs_Q>  (306) 
0

>  <s_lp_Force_Field>  (306) 
OPLS3e

>  <r_lp_Energy>  (306) 
22.3312

>  <b_lp_Chiralities_Consistent>  (306) 
1

>  <s_lp_Variant>  (306) 
78:0-1

>  <s_i_glide_gridfile>  (306) 
pfpi4k_grid

>  <i_i_glide_lignum>  (306) 
25

>  <i_i_glide_rotatable_bonds>  (306) 
2

>  <r_i_docking_score>  (306) 
-3.68711

>  <r_i_glide_ligand_efficiency>  (306) 
-0.263365

>  <r_i_glide_ligand_efficiency_sa>  (306) 
-0.634747

>  <r_i_glide_ligand_efficiency_ln>  (306) 
-1.0132

>  <r_i_glide_gscore>  (306) 
-3.68711

>  <r_i_glide_lipo>  (306) 
-0.173006

>  <r_i_glide_hbond>  (306) 
-0.127153

>  <r_i_glide_metal>  (306) 
-0

>  <r_i_glide_rewards>  (306) 
-1.99167

>  <r_i_glide_evdw>  (306) 
-21.2177

>  <r_i_glide_ecoul>  (306) 
-2.22929

>  <r_i_glide_erotb>  (306) 
0

>  <r_i_glide_esite>  (306) 
0

>  <r_i_glide_emodel>  (306) 
-29.8985

>  <r_i_glide_energy>  (306) 
-23.447

>  <r_i_glide_einternal>  (306) 
0.730407

>  <r_i_glide_intrahb_reward>  (306) 
-0

>  <i_i_glide_confnum>  (306) 
2

>  <i_i_glide_posenum>  (306) 
24

>  <r_i_glide_eff_state_penalty>  (306) 
0

>  <ligand_id>  (306) 
78

>  <original_smiles>  (306) 
CC(C)(C)Sc1ncnc2sccc12

>  <smiles>  (306) 
[H]c1nc(SC(C([H])([H])[H])(C([H])([H])[H])C([H])([H])[H])c2c([H])c([H])sc2n1

$$$$
80:0:0
     RDKit          3D

 21 23  0  0  1  0  0  0  0  0999 V2000
   -1.6777    3.4727    6.1364 C   0  0  0  0  0  0  0  0  0  0  0  0
   -1.1334    2.2172    5.5944 N   0  0  0  0  0  0  0  0  0  0  0  0
   -1.6184    1.0266    6.0232 C   0  0  0  0  0  0  0  0  0  0  0  0
   -2.4928    0.9056    6.8833 O   0  0  0  0  0  0  0  0  0  0  0  0
   -1.0211   -0.2015    5.4146 C   0  0  0  0  0  0  0  0  0  0  0  0
   -1.3111   -1.4743    5.6599 N   0  0  0  0  0  0  0  0  0  0  0  0
   -0.4173   -2.1794    4.8684 N   0  0  0  0  0  0  0  0  0  0  0  0
    0.3465   -1.3780    4.1739 N   0  0  0  0  0  0  0  0  0  0  0  0
   -0.0338   -0.1287    4.5213 N   0  0  0  0  0  0  0  0  0  0  0  0
    0.4810    1.1186    4.0928 C   0  0  0  0  0  0  0  0  0  0  0  0
    1.5275    1.2091    3.1523 C   0  0  0  0  0  0  0  0  0  0  0  0
    1.9945    2.4858    2.7949 C   0  0  0  0  0  0  0  0  0  0  0  0
    1.3839    3.6166    3.3555 C   0  0  0  0  0  0  0  0  0  0  0  0
    0.3892    3.5344    4.2597 N   0  0  0  0  0  0  0  0  0  0  0  0
   -0.0699    2.3152    4.6324 C   0  0  0  0  0  0  0  0  0  0  0  0
   -2.4792    3.3477    6.8647 H   0  0  0  0  0  0  0  0  0  0  0  0
   -2.0738    4.0700    5.3165 H   0  0  0  0  0  0  0  0  0  0  0  0
   -0.8810    4.0338    6.6248 H   0  0  0  0  0  0  0  0  0  0  0  0
    1.9731    0.3226    2.7195 H   0  0  0  0  0  0  0  0  0  0  0  0
    2.8057    2.6055    2.0943 H   0  0  0  0  0  0  0  0  0  0  0  0
    1.7044    4.6087    3.0837 H   0  0  0  0  0  0  0  0  0  0  0  0
  1  2  1  0
  1 16  1  0
  1 17  1  0
  1 18  1  0
  2 15  1  0
  2  3  1  0
  3  4  2  0
  3  5  1  0
  5  9  1  0
  5  6  2  0
  6  7  1  0
  7  8  2  0
  8  9  1  0
  9 10  1  0
 10 15  2  0
 10 11  1  0
 11 12  2  0
 11 19  1  0
 12 13  1  0
 12 20  1  0
 13 14  2  0
 13 21  1  0
 14 15  1  0
M  END
>  <i_m_ct_stereo_status>  (307) 
1

>  <s_m_source_file>  (307) 
/var/tmp/pbs.5076255.sched01/tmp7rmqr72f/92ch8atech.sdf

>  <i_m_source_file_index>  (307) 
27

>  <i_lp_mmshare_version>  (307) 
48012

>  <i_f3d_flags>  (307) 
0

>  <s_epik_input>  (307) 
W2NIXTFbY0hdW2NIXW5jKG4oW0NIM10pYzI9TyljMW4oYzIzKW5ubjM=

>  <s_epik_cmdline>  (307) 
J2VwaWtfcHl0aG9uJywgJy1waHQnLCAnMi4wJywgJy1waCcsICc3LjAnLCAnLXRuJywgJzgnLCAnLW1hJywgJzIwMCcsICctaW1hZScsICc8aW5maWxlLm1hZT4nLCAnLW9tYWUnLCAnPG91dGZpbGUubWFlPic=

>  <r_lp_tautomer_probability>  (307) 
1

>  <r_epik_Ionization_Penalty>  (307) 
6.95763e-10

>  <r_epik_Ionization_Penalty_Charging>  (307) 
2.57519e-11

>  <r_epik_Ionization_Penalty_Neutral>  (307) 
6.70011e-10

>  <r_epik_State_Penalty>  (307) 
-0

>  <r_epik_Charging_Adjusted_Penalty>  (307) 
2.57519e-11

>  <i_epik_Tot_Q>  (307) 
0

>  <i_epik_Tot_abs_Q>  (307) 
0

>  <s_lp_Force_Field>  (307) 
OPLS3e

>  <r_lp_Energy>  (307) 
30.6266

>  <b_lp_Chiralities_Consistent>  (307) 
1

>  <s_lp_Variant>  (307) 
80:0-1

>  <s_i_glide_gridfile>  (307) 
pfpi4k_grid

>  <i_i_glide_lignum>  (307) 
27

>  <i_i_glide_rotatable_bonds>  (307) 
0

>  <r_i_docking_score>  (307) 
-3.78483

>  <r_i_glide_ligand_efficiency>  (307) 
-0.252322

>  <r_i_glide_ligand_efficiency_sa>  (307) 
-0.62228

>  <r_i_glide_ligand_efficiency_ln>  (307) 
-1.02071

>  <r_i_glide_gscore>  (307) 
-3.78483

>  <r_i_glide_lipo>  (307) 
-0.0299717

>  <r_i_glide_hbond>  (307) 
-0.16

>  <r_i_glide_metal>  (307) 
-0

>  <r_i_glide_rewards>  (307) 
-2.03064

>  <r_i_glide_evdw>  (307) 
-15.59

>  <r_i_glide_ecoul>  (307) 
-4.28192

>  <r_i_glide_erotb>  (307) 
0

>  <r_i_glide_esite>  (307) 
-0.142432

>  <r_i_glide_emodel>  (307) 
-25.5712

>  <r_i_glide_energy>  (307) 
-19.872

>  <r_i_glide_einternal>  (307) 
0

>  <r_i_glide_intrahb_reward>  (307) 
-0

>  <i_i_glide_confnum>  (307) 
1

>  <i_i_glide_posenum>  (307) 
1

>  <r_i_glide_eff_state_penalty>  (307) 
0

>  <ligand_id>  (307) 
80

>  <original_smiles>  (307) 
Cn1c(=O)c2nnnn2c2cccnc21

>  <smiles>  (307) 
[H]c1nc2c(c([H])c1[H])n1nnnc1c(=O)n2C([H])([H])[H]

$$$$
80:0:1
     RDKit          3D

 21 23  0  0  1  0  0  0  0  0999 V2000
    2.9701   -1.8552    1.9292 C   0  0  0  0  0  0  0  0  0  0  0  0
    1.8584   -1.6655    2.8769 N   0  0  0  0  0  0  0  0  0  0  0  0
    1.4750   -2.6820    3.6902 C   0  0  0  0  0  0  0  0  0  0  0  0
    1.9893   -3.8022    3.6941 O   0  0  0  0  0  0  0  0  0  0  0  0
    0.3519   -2.3957    4.6282 C   0  0  0  0  0  0  0  0  0  0  0  0
   -0.1914   -3.1970    5.5359 N   0  0  0  0  0  0  0  0  0  0  0  0
   -1.2138   -2.4332    6.0782 N   0  0  0  0  0  0  0  0  0  0  0  0
   -1.2582   -1.2367    5.5606 N   0  0  0  0  0  0  0  0  0  0  0  0
   -0.2670   -1.2160    4.6425 N   0  0  0  0  0  0  0  0  0  0  0  0
    0.1369   -0.1598    3.7923 C   0  0  0  0  0  0  0  0  0  0  0  0
   -0.4977    1.0991    3.8150 C   0  0  0  0  0  0  0  0  0  0  0  0
   -0.0338    2.0961    2.9384 C   0  0  0  0  0  0  0  0  0  0  0  0
    1.0363    1.7959    2.0827 C   0  0  0  0  0  0  0  0  0  0  0  0
    1.6577    0.6035    2.0780 N   0  0  0  0  0  0  0  0  0  0  0  0
    1.2203   -0.3783    2.8998 C   0  0  0  0  0  0  0  0  0  0  0  0
    3.4271   -2.8451    1.9521 H   0  0  0  0  0  0  0  0  0  0  0  0
    3.7559   -1.1322    2.1458 H   0  0  0  0  0  0  0  0  0  0  0  0
    2.6152   -1.6828    0.9131 H   0  0  0  0  0  0  0  0  0  0  0  0
   -1.3212    1.3009    4.4845 H   0  0  0  0  0  0  0  0  0  0  0  0
   -0.4819    3.0775    2.9055 H   0  0  0  0  0  0  0  0  0  0  0  0
    1.4224    2.5372    1.4026 H   0  0  0  0  0  0  0  0  0  0  0  0
  1  2  1  0
  1 16  1  0
  1 17  1  0
  1 18  1  0
  2 15  1  0
  2  3  1  0
  3  4  2  0
  3  5  1  0
  5  9  1  0
  5  6  2  0
  6  7  1  0
  7  8  2  0
  8  9  1  0
  9 10  1  0
 10 15  2  0
 10 11  1  0
 11 12  2  0
 11 19  1  0
 12 13  1  0
 12 20  1  0
 13 14  2  0
 13 21  1  0
 14 15  1  0
M  END
>  <i_m_ct_stereo_status>  (308) 
1

>  <s_m_source_file>  (308) 
/var/tmp/pbs.5076255.sched01/tmp7rmqr72f/92ch8atech.sdf

>  <i_m_source_file_index>  (308) 
27

>  <i_lp_mmshare_version>  (308) 
48012

>  <i_f3d_flags>  (308) 
0

>  <s_epik_input>  (308) 
W2NIXTFbY0hdW2NIXW5jKG4oW0NIM10pYzI9TyljMW4oYzIzKW5ubjM=

>  <s_epik_cmdline>  (308) 
J2VwaWtfcHl0aG9uJywgJy1waHQnLCAnMi4wJywgJy1waCcsICc3LjAnLCAnLXRuJywgJzgnLCAnLW1hJywgJzIwMCcsICctaW1hZScsICc8aW5maWxlLm1hZT4nLCAnLW9tYWUnLCAnPG91dGZpbGUubWFlPic=

>  <r_lp_tautomer_probability>  (308) 
1

>  <r_epik_Ionization_Penalty>  (308) 
6.95763e-10

>  <r_epik_Ionization_Penalty_Charging>  (308) 
2.57519e-11

>  <r_epik_Ionization_Penalty_Neutral>  (308) 
6.70011e-10

>  <r_epik_State_Penalty>  (308) 
-0

>  <r_epik_Charging_Adjusted_Penalty>  (308) 
2.57519e-11

>  <i_epik_Tot_Q>  (308) 
0

>  <i_epik_Tot_abs_Q>  (308) 
0

>  <s_lp_Force_Field>  (308) 
OPLS3e

>  <r_lp_Energy>  (308) 
30.6266

>  <b_lp_Chiralities_Consistent>  (308) 
1

>  <s_lp_Variant>  (308) 
80:0-1

>  <s_i_glide_gridfile>  (308) 
pfpi4k_grid

>  <i_i_glide_lignum>  (308) 
27

>  <i_i_glide_rotatable_bonds>  (308) 
0

>  <r_i_docking_score>  (308) 
-3.7561

>  <r_i_glide_ligand_efficiency>  (308) 
-0.250407

>  <r_i_glide_ligand_efficiency_sa>  (308) 
-0.617556

>  <r_i_glide_ligand_efficiency_ln>  (308) 
-1.01296

>  <r_i_glide_gscore>  (308) 
-3.7561

>  <r_i_glide_lipo>  (308) 
-0.0322623

>  <r_i_glide_hbond>  (308) 
0

>  <r_i_glide_metal>  (308) 
-0

>  <r_i_glide_rewards>  (308) 
-2.09042

>  <r_i_glide_evdw>  (308) 
-16.5541

>  <r_i_glide_ecoul>  (308) 
-4.26395

>  <r_i_glide_erotb>  (308) 
0

>  <r_i_glide_esite>  (308) 
-0.166118

>  <r_i_glide_emodel>  (308) 
-26.4784

>  <r_i_glide_energy>  (308) 
-20.8181

>  <r_i_glide_einternal>  (308) 
0

>  <r_i_glide_intrahb_reward>  (308) 
-0

>  <i_i_glide_confnum>  (308) 
1

>  <i_i_glide_posenum>  (308) 
27

>  <r_i_glide_eff_state_penalty>  (308) 
0

>  <ligand_id>  (308) 
80

>  <original_smiles>  (308) 
Cn1c(=O)c2nnnn2c2cccnc21

>  <smiles>  (308) 
[H]c1nc2c(c([H])c1[H])n1nnnc1c(=O)n2C([H])([H])[H]

$$$$
80:0:2
     RDKit          3D

 21 23  0  0  1  0  0  0  0  0999 V2000
   -2.2792    3.3183    6.4998 C   0  0  0  0  0  0  0  0  0  0  0  0
   -1.3279    2.5441    5.6873 N   0  0  0  0  0  0  0  0  0  0  0  0
   -1.3439    1.1840    5.7427 C   0  0  0  0  0  0  0  0  0  0  0  0
   -2.1107    0.5299    6.4593 O   0  0  0  0  0  0  0  0  0  0  0  0
   -0.3444    0.4748    4.8835 C   0  0  0  0  0  0  0  0  0  0  0  0
   -0.1493   -0.8334    4.7455 N   0  0  0  0  0  0  0  0  0  0  0  0
    0.9066   -0.9177    3.8478 N   0  0  0  0  0  0  0  0  0  0  0  0
    1.3175    0.2617    3.4737 N   0  0  0  0  0  0  0  0  0  0  0  0
    0.5269    1.1432    4.1249 N   0  0  0  0  0  0  0  0  0  0  0  0
    0.5466    2.5594    4.0902 C   0  0  0  0  0  0  0  0  0  0  0  0
    1.4722    3.2748    3.2976 C   0  0  0  0  0  0  0  0  0  0  0  0
    1.4353    4.6811    3.3258 C   0  0  0  0  0  0  0  0  0  0  0  0
    0.4659    5.3144    4.1162 C   0  0  0  0  0  0  0  0  0  0  0  0
   -0.4265    4.6380    4.8661 N   0  0  0  0  0  0  0  0  0  0  0  0
   -0.3959    3.2790    4.8713 C   0  0  0  0  0  0  0  0  0  0  0  0
   -2.9661    2.7243    7.1038 H   0  0  0  0  0  0  0  0  0  0  0  0
   -2.8874    3.9336    5.8400 H   0  0  0  0  0  0  0  0  0  0  0  0
   -1.7334    3.9706    7.1820 H   0  0  0  0  0  0  0  0  0  0  0  0
    2.1889    2.7588    2.6756 H   0  0  0  0  0  0  0  0  0  0  0  0
    2.1034    5.2615    2.7090 H   0  0  0  0  0  0  0  0  0  0  0  0
    0.3913    6.3885    4.1394 H   0  0  0  0  0  0  0  0  0  0  0  0
  1  2  1  0
  1 16  1  0
  1 17  1  0
  1 18  1  0
  2 15  1  0
  2  3  1  0
  3  4  2  0
  3  5  1  0
  5  9  1  0
  5  6  2  0
  6  7  1  0
  7  8  2  0
  8  9  1  0
  9 10  1  0
 10 15  2  0
 10 11  1  0
 11 12  2  0
 11 19  1  0
 12 13  1  0
 12 20  1  0
 13 14  2  0
 13 21  1  0
 14 15  1  0
M  END
>  <i_m_ct_stereo_status>  (309) 
1

>  <s_m_source_file>  (309) 
/var/tmp/pbs.5076255.sched01/tmp7rmqr72f/92ch8atech.sdf

>  <i_m_source_file_index>  (309) 
27

>  <i_lp_mmshare_version>  (309) 
48012

>  <i_f3d_flags>  (309) 
0

>  <s_epik_input>  (309) 
W2NIXTFbY0hdW2NIXW5jKG4oW0NIM10pYzI9TyljMW4oYzIzKW5ubjM=

>  <s_epik_cmdline>  (309) 
J2VwaWtfcHl0aG9uJywgJy1waHQnLCAnMi4wJywgJy1waCcsICc3LjAnLCAnLXRuJywgJzgnLCAnLW1hJywgJzIwMCcsICctaW1hZScsICc8aW5maWxlLm1hZT4nLCAnLW9tYWUnLCAnPG91dGZpbGUubWFlPic=

>  <r_lp_tautomer_probability>  (309) 
1

>  <r_epik_Ionization_Penalty>  (309) 
6.95763e-10

>  <r_epik_Ionization_Penalty_Charging>  (309) 
2.57519e-11

>  <r_epik_Ionization_Penalty_Neutral>  (309) 
6.70011e-10

>  <r_epik_State_Penalty>  (309) 
-0

>  <r_epik_Charging_Adjusted_Penalty>  (309) 
2.57519e-11

>  <i_epik_Tot_Q>  (309) 
0

>  <i_epik_Tot_abs_Q>  (309) 
0

>  <s_lp_Force_Field>  (309) 
OPLS3e

>  <r_lp_Energy>  (309) 
30.6266

>  <b_lp_Chiralities_Consistent>  (309) 
1

>  <s_lp_Variant>  (309) 
80:0-1

>  <s_i_glide_gridfile>  (309) 
pfpi4k_grid

>  <i_i_glide_lignum>  (309) 
27

>  <i_i_glide_rotatable_bonds>  (309) 
0

>  <r_i_docking_score>  (309) 
-3.72484

>  <r_i_glide_ligand_efficiency>  (309) 
-0.248323

>  <r_i_glide_ligand_efficiency_sa>  (309) 
-0.612416

>  <r_i_glide_ligand_efficiency_ln>  (309) 
-1.00453

>  <r_i_glide_gscore>  (309) 
-3.72484

>  <r_i_glide_lipo>  (309) 
-0.0978315

>  <r_i_glide_hbond>  (309) 
-0.16

>  <r_i_glide_metal>  (309) 
-0

>  <r_i_glide_rewards>  (309) 
-2.04972

>  <r_i_glide_evdw>  (309) 
-15.5971

>  <r_i_glide_ecoul>  (309) 
-3.70473

>  <r_i_glide_erotb>  (309) 
0

>  <r_i_glide_esite>  (309) 
-0.0817235

>  <r_i_glide_emodel>  (309) 
-24.9114

>  <r_i_glide_energy>  (309) 
-19.3019

>  <r_i_glide_einternal>  (309) 
0

>  <r_i_glide_intrahb_reward>  (309) 
-0

>  <i_i_glide_confnum>  (309) 
1

>  <i_i_glide_posenum>  (309) 
9

>  <r_i_glide_eff_state_penalty>  (309) 
0

>  <ligand_id>  (309) 
80

>  <original_smiles>  (309) 
Cn1c(=O)c2nnnn2c2cccnc21

>  <smiles>  (309) 
[H]c1nc2c(c([H])c1[H])n1nnnc1c(=O)n2C([H])([H])[H]

$$$$
81:0:0
     RDKit          3D

 51 55  0  0  1  0  0  0  0  0999 V2000
   -1.8009   -8.1961    4.0708 C   0  0  0  0  0  0  0  0  0  0  0  0
   -0.5237   -8.0382    3.4176 N   0  0  0  0  0  0  0  0  0  0  0  0
   -0.3497   -7.0202    2.5495 N   0  0  0  0  0  0  0  0  0  0  0  0
    0.9071   -7.1308    2.1316 C   0  0  0  0  0  0  0  0  0  0  0  0
    1.5664   -6.1963    1.1650 C   0  0  0  0  0  0  0  0  0  0  0  0
    1.0172   -5.9144    0.0986 O   0  0  0  0  0  0  0  0  0  0  0  0
    2.6639   -5.5773    1.6184 N   0  0  0  0  0  0  0  0  0  0  0  0
    3.3511   -4.4689    0.9383 C   0  0  2  0  0  0  0  0  0  0  0  0
    4.4218   -5.0449   -0.0137 C   0  0  2  0  0  0  0  0  0  0  0  0
    5.4932   -5.8090    0.7963 C   0  0  0  0  0  0  0  0  0  0  0  0
    6.1706   -4.8388    1.7820 C   0  0  1  0  0  0  0  0  0  0  0  0
    6.8479   -3.7108    0.9779 C   0  0  0  0  0  0  0  0  0  0  0  0
    5.7789   -2.9406    0.1769 C   0  0  1  0  0  0  0  0  0  0  0  0
    5.0855   -3.9021   -0.8081 C   0  0  0  0  0  0  0  0  0  0  0  0
    4.7303   -2.3510    1.1416 C   0  0  0  0  0  0  0  0  0  0  0  0
    4.0278   -3.4829    1.9437 C   0  0  1  0  0  0  0  0  0  0  0  0
    2.9973   -2.8397    2.8956 C   0  0  0  0  0  0  0  0  0  0  0  0
    5.1124   -4.2524    2.7451 C   0  0  0  0  0  0  0  0  0  0  0  0
    1.5689   -8.2557    2.7241 C   0  0  0  0  0  0  0  0  0  0  0  0
    0.6190   -8.8037    3.5241 C   0  0  0  0  0  0  0  0  0  0  0  0
    0.8281  -10.0041    4.3790 C   0  0  0  0  0  0  0  0  0  0  0  0
    2.1216  -10.7261    3.9330 C   0  0  0  0  0  0  0  0  0  0  0  0
    3.1775   -9.7812    3.6961 O   0  0  0  0  0  0  0  0  0  0  0  0
    2.9373   -8.8874    2.6005 C   0  0  0  0  0  0  0  0  0  0  0  0
   -1.7781   -9.0472    4.7494 H   0  0  0  0  0  0  0  0  0  0  0  0
   -2.5797   -8.3599    3.3230 H   0  0  0  0  0  0  0  0  0  0  0  0
   -2.0350   -7.2950    4.6398 H   0  0  0  0  0  0  0  0  0  0  0  0
    3.0155   -5.8388    2.5276 H   0  0  0  0  0  0  0  0  0  0  0  0
    2.6258   -3.8985    0.3532 H   0  0  0  0  0  0  0  0  0  0  0  0
    3.9514   -5.7304   -0.7141 H   0  0  0  0  0  0  0  0  0  0  0  0
    5.0545   -6.6474    1.3369 H   0  0  0  0  0  0  0  0  0  0  0  0
    6.2323   -6.2434    0.1245 H   0  0  0  0  0  0  0  0  0  0  0  0
    6.9250   -5.3748    2.3578 H   0  0  0  0  0  0  0  0  0  0  0  0
    7.3801   -3.0397    1.6469 H   0  0  0  0  0  0  0  0  0  0  0  0
    7.5947   -4.1292    0.3012 H   0  0  0  0  0  0  0  0  0  0  0  0
    6.2562   -2.1346   -0.3814 H   0  0  0  0  0  0  0  0  0  0  0  0
    5.8114   -4.3049   -1.5154 H   0  0  0  0  0  0  0  0  0  0  0  0
    4.3390   -3.3716   -1.4019 H   0  0  0  0  0  0  0  0  0  0  0  0
    5.2163   -1.6422    1.8154 H   0  0  0  0  0  0  0  0  0  0  0  0
    3.9981   -1.7731    0.5758 H   0  0  0  0  0  0  0  0  0  0  0  0
    3.4604   -2.0759    3.5259 H   0  0  0  0  0  0  0  0  0  0  0  0
    2.5371   -3.5724    3.5603 H   0  0  0  0  0  0  0  0  0  0  0  0
    2.1966   -2.3479    2.3387 H   0  0  0  0  0  0  0  0  0  0  0  0
    4.6572   -5.0606    3.3173 H   0  0  0  0  0  0  0  0  0  0  0  0
    5.5885   -3.6015    3.4806 H   0  0  0  0  0  0  0  0  0  0  0  0
    0.9369   -9.6880    5.4177 H   0  0  0  0  0  0  0  0  0  0  0  0
   -0.0252  -10.6834    4.3359 H   0  0  0  0  0  0  0  0  0  0  0  0
    2.4307  -11.4397    4.6980 H   0  0  0  0  0  0  0  0  0  0  0  0
    1.9427  -11.3068    3.0240 H   0  0  0  0  0  0  0  0  0  0  0  0
    3.0148   -9.4474    1.6666 H   0  0  0  0  0  0  0  0  0  0  0  0
    3.7324   -8.1419    2.5911 H   0  0  0  0  0  0  0  0  0  0  0  0
  1  2  1  0
  1 25  1  0
  1 26  1  0
  1 27  1  0
  2 20  1  0
  2  3  1  0
  3  4  2  0
  4  5  1  0
  4 19  1  0
  5  6  2  0
  5  7  1  0
  7  8  1  0
  7 28  1  0
  8 16  1  0
  8  9  1  0
  8 29  1  6
  9 14  1  0
  9 10  1  0
  9 30  1  6
 10 11  1  0
 10 31  1  0
 10 32  1  0
 11 18  1  0
 11 12  1  0
 11 33  1  1
 12 13  1  0
 12 34  1  0
 12 35  1  0
 13 14  1  0
 13 15  1  0
 13 36  1  6
 14 37  1  0
 14 38  1  0
 15 16  1  0
 15 39  1  0
 15 40  1  0
 16 17  1  1
 16 18  1  0
 17 41  1  0
 17 42  1  0
 17 43  1  0
 18 44  1  0
 18 45  1  0
 19 24  1  0
 19 20  2  0
 20 21  1  0
 21 22  1  0
 21 46  1  0
 21 47  1  0
 22 23  1  0
 22 48  1  0
 22 49  1  0
 23 24  1  0
 24 50  1  0
 24 51  1  0
M  END
>  <i_m_ct_stereo_status>  (310) 
1

>  <s_m_source_file>  (310) 
/var/tmp/pbs.5076255.sched01/tmp7rmqr72f/92ch8atech.sdf

>  <i_m_source_file_index>  (310) 
28

>  <i_lp_mmshare_version>  (310) 
48012

>  <i_f3d_flags>  (310) 
0

>  <s_epik_input>  (310) 
W0NIMl0xT1tDSDJdW0NIMl1jKGMxMiluKFtDSDNdKW5jMkMoPU8pW05IXVtDQEBIXShbQ0BdMzRbQ0gzXSlbQ0BASF01W0NIMl1bQ0BIXShbQ0gyXTQpW0NIMl1bQ0BASF0oW0NIMl01KVtDSDJdMw==

>  <s_epik_cmdline>  (310) 
J2VwaWtfcHl0aG9uJywgJy1waHQnLCAnMi4wJywgJy1waCcsICc3LjAnLCAnLXRuJywgJzgnLCAnLW1hJywgJzIwMCcsICctaW1hZScsICc8aW5maWxlLm1hZT4nLCAnLW9tYWUnLCAnPG91dGZpbGUubWFlPic=

>  <r_lp_tautomer_probability>  (310) 
1

>  <r_epik_Ionization_Penalty>  (310) 
0.000295668

>  <r_epik_Ionization_Penalty_Charging>  (310) 
0

>  <r_epik_Ionization_Penalty_Neutral>  (310) 
0.000295668

>  <r_epik_State_Penalty>  (310) 
-0

>  <r_epik_Charging_Adjusted_Penalty>  (310) 
0

>  <i_epik_Tot_Q>  (310) 
0

>  <i_epik_Tot_abs_Q>  (310) 
0

>  <s_lp_Force_Field>  (310) 
OPLS3e

>  <r_lp_Energy>  (310) 
14.4483

>  <b_lp_Chiralities_Consistent>  (310) 
1

>  <s_lp_Variant>  (310) 
81:0-1

>  <s_i_glide_gridfile>  (310) 
pfpi4k_grid

>  <i_i_glide_lignum>  (310) 
28

>  <i_i_glide_rotatable_bonds>  (310) 
3

>  <r_i_docking_score>  (310) 
-3.65955

>  <r_i_glide_ligand_efficiency>  (310) 
-0.152481

>  <r_i_glide_ligand_efficiency_sa>  (310) 
-0.439832

>  <r_i_glide_ligand_efficiency_ln>  (310) 
-0.875899

>  <r_i_glide_gscore>  (310) 
-3.65955

>  <r_i_glide_lipo>  (310) 
-0.383305

>  <r_i_glide_hbond>  (310) 
-0.488004

>  <r_i_glide_metal>  (310) 
-0

>  <r_i_glide_rewards>  (310) 
-1.16293

>  <r_i_glide_evdw>  (310) 
-21.7652

>  <r_i_glide_ecoul>  (310) 
-6.18019

>  <r_i_glide_erotb>  (310) 
0.519537

>  <r_i_glide_esite>  (310) 
-0.12956

>  <r_i_glide_emodel>  (310) 
-33.969

>  <r_i_glide_energy>  (310) 
-27.9454

>  <r_i_glide_einternal>  (310) 
2.36717

>  <r_i_glide_intrahb_reward>  (310) 
-0

>  <i_i_glide_confnum>  (310) 
4

>  <i_i_glide_posenum>  (310) 
14

>  <r_i_glide_eff_state_penalty>  (310) 
0

>  <ligand_id>  (310) 
81

>  <original_smiles>  (310) 
Cn1nc(C(=O)NC2C3CC4CC(C3)CC2(C)C4)c2c1CCOC2

>  <smiles>  (310) 
[H]N(C(=O)c1nn(C([H])([H])[H])c2c1C([H])([H])OC([H])([H])C2([H])[H])C1([H])C2([H])C([H])([H])C3([H])C([H])([H])C([H])(C2([H])[H])C([H])([H])C1(C([H])([H])[H])C3([H])[H]

$$$$
81:0:1
     RDKit          3D

 51 55  0  0  1  0  0  0  0  0999 V2000
   -2.0635   -8.5729    3.0679 C   0  0  0  0  0  0  0  0  0  0  0  0
   -0.6760   -8.3035    2.7992 N   0  0  0  0  0  0  0  0  0  0  0  0
   -0.3764   -7.2207    2.0723 N   0  0  0  0  0  0  0  0  0  0  0  0
    0.9443   -7.2383    1.9678 C   0  0  0  0  0  0  0  0  0  0  0  0
    1.7163   -6.2265    1.1968 C   0  0  0  0  0  0  0  0  0  0  0  0
    1.2442   -5.8547    0.1260 O   0  0  0  0  0  0  0  0  0  0  0  0
    2.7583   -5.6558    1.8352 N   0  0  0  0  0  0  0  0  0  0  0  0
    3.4677   -4.4263    1.4416 C   0  0  2  0  0  0  0  0  0  0  0  0
    4.0520   -4.5297    0.0156 C   0  0  2  0  0  0  0  0  0  0  0  0
    5.0516   -5.6993   -0.0456 C   0  0  0  0  0  0  0  0  0  0  0  0
    6.2127   -5.4190    0.9283 C   0  0  1  0  0  0  0  0  0  0  0  0
    6.9112   -4.1074    0.5103 C   0  0  0  0  0  0  0  0  0  0  0  0
    5.9035   -2.9424    0.5801 C   0  0  1  0  0  0  0  0  0  0  0  0
    4.7381   -3.2156   -0.3857 C   0  0  0  0  0  0  0  0  0  0  0  0
    5.3558   -2.8180    2.0141 C   0  0  0  0  0  0  0  0  0  0  0  0
    4.6341   -4.1289    2.4388 C   0  0  1  0  0  0  0  0  0  0  0  0
    4.1284   -3.9518    3.8900 C   0  0  0  0  0  0  0  0  0  0  0  0
    5.6655   -5.2886    2.3668 C   0  0  0  0  0  0  0  0  0  0  0  0
    1.5365   -8.3290    2.6541 C   0  0  0  0  0  0  0  0  0  0  0  0
    0.4603   -8.9924    3.1623 C   0  0  0  0  0  0  0  0  0  0  0  0
    0.5503  -10.2078    3.9981 C   0  0  0  0  0  0  0  0  0  0  0  0
    1.9694  -10.8069    3.8734 C   0  0  0  0  0  0  0  0  0  0  0  0
    2.9757   -9.7791    3.9305 O   0  0  0  0  0  0  0  0  0  0  0  0
    2.9373   -8.8511    2.8390 C   0  0  0  0  0  0  0  0  0  0  0  0
   -2.1517   -9.4590    3.6788 H   0  0  0  0  0  0  0  0  0  0  0  0
   -2.5882   -8.7436    2.1273 H   0  0  0  0  0  0  0  0  0  0  0  0
   -2.5079   -7.7294    3.5991 H   0  0  0  0  0  0  0  0  0  0  0  0
    2.9975   -6.0311    2.7350 H   0  0  0  0  0  0  0  0  0  0  0  0
    2.7619   -3.5978    1.4872 H   0  0  0  0  0  0  0  0  0  0  0  0
    3.2818   -4.6774   -0.7315 H   0  0  0  0  0  0  0  0  0  0  0  0
    4.5723   -6.6478    0.2011 H   0  0  0  0  0  0  0  0  0  0  0  0
    5.4107   -5.8065   -1.0648 H   0  0  0  0  0  0  0  0  0  0  0  0
    6.9267   -6.2421    0.8843 H   0  0  0  0  0  0  0  0  0  0  0  0
    7.7689   -3.9064    1.1527 H   0  0  0  0  0  0  0  0  0  0  0  0
    7.2933   -4.1990   -0.5067 H   0  0  0  0  0  0  0  0  0  0  0  0
    6.3997   -2.0125    0.2946 H   0  0  0  0  0  0  0  0  0  0  0  0
    5.0936   -3.2872   -1.4155 H   0  0  0  0  0  0  0  0  0  0  0  0
    4.0166   -2.3962   -0.3630 H   0  0  0  0  0  0  0  0  0  0  0  0
    6.1823   -2.5848    2.6898 H   0  0  0  0  0  0  0  0  0  0  0  0
    4.6734   -1.9689    2.0734 H   0  0  0  0  0  0  0  0  0  0  0  0
    4.9371   -3.6504    4.5644 H   0  0  0  0  0  0  0  0  0  0  0  0
    3.6995   -4.8698    4.2985 H   0  0  0  0  0  0  0  0  0  0  0  0
    3.3626   -3.1743    3.9521 H   0  0  0  0  0  0  0  0  0  0  0  0
    5.1986   -6.2293    2.6577 H   0  0  0  0  0  0  0  0  0  0  0  0
    6.4881   -5.1392    3.0703 H   0  0  0  0  0  0  0  0  0  0  0  0
    0.3650   -9.9324    5.0378 H   0  0  0  0  0  0  0  0  0  0  0  0
   -0.1983  -10.9470    3.7158 H   0  0  0  0  0  0  0  0  0  0  0  0
    2.1331  -11.5325    4.6720 H   0  0  0  0  0  0  0  0  0  0  0  0
    2.0700  -11.3550    2.9316 H   0  0  0  0  0  0  0  0  0  0  0  0
    3.2945   -9.3620    1.9397 H   0  0  0  0  0  0  0  0  0  0  0  0
    3.6546   -8.0580    3.0529 H   0  0  0  0  0  0  0  0  0  0  0  0
  1  2  1  0
  1 25  1  0
  1 26  1  0
  1 27  1  0
  2 20  1  0
  2  3  1  0
  3  4  2  0
  4  5  1  0
  4 19  1  0
  5  6  2  0
  5  7  1  0
  7  8  1  0
  7 28  1  0
  8 16  1  0
  8  9  1  0
  8 29  1  6
  9 14  1  0
  9 10  1  0
  9 30  1  6
 10 11  1  0
 10 31  1  0
 10 32  1  0
 11 18  1  0
 11 12  1  0
 11 33  1  1
 12 13  1  0
 12 34  1  0
 12 35  1  0
 13 14  1  0
 13 15  1  0
 13 36  1  6
 14 37  1  0
 14 38  1  0
 15 16  1  0
 15 39  1  0
 15 40  1  0
 16 17  1  1
 16 18  1  0
 17 41  1  0
 17 42  1  0
 17 43  1  0
 18 44  1  0
 18 45  1  0
 19 24  1  0
 19 20  2  0
 20 21  1  0
 21 22  1  0
 21 46  1  0
 21 47  1  0
 22 23  1  0
 22 48  1  0
 22 49  1  0
 23 24  1  0
 24 50  1  0
 24 51  1  0
M  END
>  <i_m_ct_stereo_status>  (311) 
1

>  <s_m_source_file>  (311) 
/var/tmp/pbs.5076255.sched01/tmp7rmqr72f/92ch8atech.sdf

>  <i_m_source_file_index>  (311) 
28

>  <i_lp_mmshare_version>  (311) 
48012

>  <i_f3d_flags>  (311) 
0

>  <s_epik_input>  (311) 
W0NIMl0xT1tDSDJdW0NIMl1jKGMxMiluKFtDSDNdKW5jMkMoPU8pW05IXVtDQEBIXShbQ0BdMzRbQ0gzXSlbQ0BASF01W0NIMl1bQ0BIXShbQ0gyXTQpW0NIMl1bQ0BASF0oW0NIMl01KVtDSDJdMw==

>  <s_epik_cmdline>  (311) 
J2VwaWtfcHl0aG9uJywgJy1waHQnLCAnMi4wJywgJy1waCcsICc3LjAnLCAnLXRuJywgJzgnLCAnLW1hJywgJzIwMCcsICctaW1hZScsICc8aW5maWxlLm1hZT4nLCAnLW9tYWUnLCAnPG91dGZpbGUubWFlPic=

>  <r_lp_tautomer_probability>  (311) 
1

>  <r_epik_Ionization_Penalty>  (311) 
0.000295668

>  <r_epik_Ionization_Penalty_Charging>  (311) 
0

>  <r_epik_Ionization_Penalty_Neutral>  (311) 
0.000295668

>  <r_epik_State_Penalty>  (311) 
-0

>  <r_epik_Charging_Adjusted_Penalty>  (311) 
0

>  <i_epik_Tot_Q>  (311) 
0

>  <i_epik_Tot_abs_Q>  (311) 
0

>  <s_lp_Force_Field>  (311) 
OPLS3e

>  <r_lp_Energy>  (311) 
14.4483

>  <b_lp_Chiralities_Consistent>  (311) 
1

>  <s_lp_Variant>  (311) 
81:0-1

>  <s_i_glide_gridfile>  (311) 
pfpi4k_grid

>  <i_i_glide_lignum>  (311) 
28

>  <i_i_glide_rotatable_bonds>  (311) 
3

>  <r_i_docking_score>  (311) 
-3.51897

>  <r_i_glide_ligand_efficiency>  (311) 
-0.146624

>  <r_i_glide_ligand_efficiency_sa>  (311) 
-0.422936

>  <r_i_glide_ligand_efficiency_ln>  (311) 
-0.842251

>  <r_i_glide_gscore>  (311) 
-3.51897

>  <r_i_glide_lipo>  (311) 
-0.471781

>  <r_i_glide_hbond>  (311) 
-0.321394

>  <r_i_glide_metal>  (311) 
-0

>  <r_i_glide_rewards>  (311) 
-1.16293

>  <r_i_glide_evdw>  (311) 
-24.5317

>  <r_i_glide_ecoul>  (311) 
-4.95083

>  <r_i_glide_erotb>  (311) 
0.519537

>  <r_i_glide_esite>  (311) 
-0.113192

>  <r_i_glide_emodel>  (311) 
-34.0714

>  <r_i_glide_energy>  (311) 
-29.4825

>  <r_i_glide_einternal>  (311) 
3.805

>  <r_i_glide_intrahb_reward>  (311) 
-0

>  <i_i_glide_confnum>  (311) 
4

>  <i_i_glide_posenum>  (311) 
6

>  <r_i_glide_eff_state_penalty>  (311) 
0

>  <ligand_id>  (311) 
81

>  <original_smiles>  (311) 
Cn1nc(C(=O)NC2C3CC4CC(C3)CC2(C)C4)c2c1CCOC2

>  <smiles>  (311) 
[H]N(C(=O)c1nn(C([H])([H])[H])c2c1C([H])([H])OC([H])([H])C2([H])[H])C1([H])C2([H])C([H])([H])C3([H])C([H])([H])C([H])(C2([H])[H])C([H])([H])C1(C([H])([H])[H])C3([H])[H]

$$$$
81:0:2
     RDKit          3D

 51 55  0  0  1  0  0  0  0  0999 V2000
    0.8404  -10.5719    2.9952 C   0  0  0  0  0  0  0  0  0  0  0  0
    1.7206   -9.5277    2.5228 N   0  0  0  0  0  0  0  0  0  0  0  0
    1.1889   -8.3621    2.1061 N   0  0  0  0  0  0  0  0  0  0  0  0
    2.2171   -7.6133    1.7336 C   0  0  0  0  0  0  0  0  0  0  0  0
    2.0918   -6.2293    1.1665 C   0  0  0  0  0  0  0  0  0  0  0  0
    1.0481   -5.8743    0.6079 O   0  0  0  0  0  0  0  0  0  0  0  0
    3.1329   -5.4149    1.3789 N   0  0  0  0  0  0  0  0  0  0  0  0
    3.2426   -4.0236    0.9411 C   0  0  2  0  0  0  0  0  0  0  0  0
    3.5542   -3.9673   -0.5728 C   0  0  2  0  0  0  0  0  0  0  0  0
    4.9169   -4.6374   -0.8681 C   0  0  0  0  0  0  0  0  0  0  0  0
    6.0232   -3.8800   -0.1039 C   0  0  1  0  0  0  0  0  0  0  0  0
    6.0588   -2.4153   -0.5829 C   0  0  0  0  0  0  0  0  0  0  0  0
    4.6986   -1.7519   -0.2876 C   0  0  1  0  0  0  0  0  0  0  0  0
    3.5865   -2.5042   -1.0465 C   0  0  0  0  0  0  0  0  0  0  0  0
    4.4134   -1.8014    1.2283 C   0  0  0  0  0  0  0  0  0  0  0  0
    4.3631   -3.2699    1.7224 C   0  0  1  0  0  0  0  0  0  0  0  0
    4.0864   -3.2800    3.2418 C   0  0  0  0  0  0  0  0  0  0  0  0
    5.7368   -3.9247    1.4130 C   0  0  0  0  0  0  0  0  0  0  0  0
    3.4634   -8.3068    1.9024 C   0  0  0  0  0  0  0  0  0  0  0  0
    3.0934   -9.5108    2.4102 C   0  0  0  0  0  0  0  0  0  0  0  0
    4.0397  -10.5852    2.8038 C   0  0  0  0  0  0  0  0  0  0  0  0
    5.4353  -10.2771    2.2102 C   0  0  0  0  0  0  0  0  0  0  0  0
    5.7698   -8.8947    2.3674 O   0  0  0  0  0  0  0  0  0  0  0  0
    4.9217   -8.0006    1.6366 C   0  0  0  0  0  0  0  0  0  0  0  0
    1.4094  -11.4391    3.3345 H   0  0  0  0  0  0  0  0  0  0  0  0
    0.1711  -10.8744    2.1870 H   0  0  0  0  0  0  0  0  0  0  0  0
    0.2438  -10.1909    3.8255 H   0  0  0  0  0  0  0  0  0  0  0  0
    3.9218   -5.7901    1.8810 H   0  0  0  0  0  0  0  0  0  0  0  0
    2.2880   -3.5250    1.1302 H   0  0  0  0  0  0  0  0  0  0  0  0
    2.7659   -4.4818   -1.1189 H   0  0  0  0  0  0  0  0  0  0  0  0
    4.9100   -5.6918   -0.5854 H   0  0  0  0  0  0  0  0  0  0  0  0
    5.1140   -4.6249   -1.9408 H   0  0  0  0  0  0  0  0  0  0  0  0
    6.9871   -4.3484   -0.3012 H   0  0  0  0  0  0  0  0  0  0  0  0
    6.8619   -1.8727   -0.0842 H   0  0  0  0  0  0  0  0  0  0  0  0
    6.2649   -2.3834   -1.6540 H   0  0  0  0  0  0  0  0  0  0  0  0
    4.7211   -0.7114   -0.6146 H   0  0  0  0  0  0  0  0  0  0  0  0
    3.7546   -2.4587   -2.1240 H   0  0  0  0  0  0  0  0  0  0  0  0
    2.6173   -2.0406   -0.8647 H   0  0  0  0  0  0  0  0  0  0  0  0
    5.1851   -1.2450    1.7626 H   0  0  0  0  0  0  0  0  0  0  0  0
    3.4690   -1.2979    1.4390 H   0  0  0  0  0  0  0  0  0  0  0  0
    4.8122   -2.6660    3.7777 H   0  0  0  0  0  0  0  0  0  0  0  0
    4.1344   -4.2840    3.6668 H   0  0  0  0  0  0  0  0  0  0  0  0
    3.0970   -2.8757    3.4638 H   0  0  0  0  0  0  0  0  0  0  0  0
    5.7485   -4.9567    1.7458 H   0  0  0  0  0  0  0  0  0  0  0  0
    6.5400   -3.4378    1.9669 H   0  0  0  0  0  0  0  0  0  0  0  0
    4.1112  -10.6054    3.8923 H   0  0  0  0  0  0  0  0  0  0  0  0
    3.6881  -11.5671    2.4795 H   0  0  0  0  0  0  0  0  0  0  0  0
    6.1911  -10.8925    2.6978 H   0  0  0  0  0  0  0  0  0  0  0  0
    5.4699  -10.5232    1.1478 H   0  0  0  0  0  0  0  0  0  0  0  0
    5.1461   -8.0755    0.5710 H   0  0  0  0  0  0  0  0  0  0  0  0
    5.1946   -7.0009    1.9587 H   0  0  0  0  0  0  0  0  0  0  0  0
  1  2  1  0
  1 25  1  0
  1 26  1  0
  1 27  1  0
  2 20  1  0
  2  3  1  0
  3  4  2  0
  4  5  1  0
  4 19  1  0
  5  6  2  0
  5  7  1  0
  7  8  1  0
  7 28  1  0
  8 16  1  0
  8  9  1  0
  8 29  1  6
  9 14  1  0
  9 10  1  0
  9 30  1  6
 10 11  1  0
 10 31  1  0
 10 32  1  0
 11 18  1  0
 11 12  1  0
 11 33  1  1
 12 13  1  0
 12 34  1  0
 12 35  1  0
 13 14  1  0
 13 15  1  0
 13 36  1  6
 14 37  1  0
 14 38  1  0
 15 16  1  0
 15 39  1  0
 15 40  1  0
 16 17  1  1
 16 18  1  0
 17 41  1  0
 17 42  1  0
 17 43  1  0
 18 44  1  0
 18 45  1  0
 19 24  1  0
 19 20  2  0
 20 21  1  0
 21 22  1  0
 21 46  1  0
 21 47  1  0
 22 23  1  0
 22 48  1  0
 22 49  1  0
 23 24  1  0
 24 50  1  0
 24 51  1  0
M  END
>  <i_m_ct_stereo_status>  (312) 
1

>  <s_m_source_file>  (312) 
/var/tmp/pbs.5076255.sched01/tmp7rmqr72f/92ch8atech.sdf

>  <i_m_source_file_index>  (312) 
28

>  <i_lp_mmshare_version>  (312) 
48012

>  <i_f3d_flags>  (312) 
0

>  <s_epik_input>  (312) 
W0NIMl0xT1tDSDJdW0NIMl1jKGMxMiluKFtDSDNdKW5jMkMoPU8pW05IXVtDQEBIXShbQ0BdMzRbQ0gzXSlbQ0BASF01W0NIMl1bQ0BIXShbQ0gyXTQpW0NIMl1bQ0BASF0oW0NIMl01KVtDSDJdMw==

>  <s_epik_cmdline>  (312) 
J2VwaWtfcHl0aG9uJywgJy1waHQnLCAnMi4wJywgJy1waCcsICc3LjAnLCAnLXRuJywgJzgnLCAnLW1hJywgJzIwMCcsICctaW1hZScsICc8aW5maWxlLm1hZT4nLCAnLW9tYWUnLCAnPG91dGZpbGUubWFlPic=

>  <r_lp_tautomer_probability>  (312) 
1

>  <r_epik_Ionization_Penalty>  (312) 
0.000295668

>  <r_epik_Ionization_Penalty_Charging>  (312) 
0

>  <r_epik_Ionization_Penalty_Neutral>  (312) 
0.000295668

>  <r_epik_State_Penalty>  (312) 
-0

>  <r_epik_Charging_Adjusted_Penalty>  (312) 
0

>  <i_epik_Tot_Q>  (312) 
0

>  <i_epik_Tot_abs_Q>  (312) 
0

>  <s_lp_Force_Field>  (312) 
OPLS3e

>  <r_lp_Energy>  (312) 
14.4483

>  <b_lp_Chiralities_Consistent>  (312) 
1

>  <s_lp_Variant>  (312) 
81:0-1

>  <s_i_glide_gridfile>  (312) 
pfpi4k_grid

>  <i_i_glide_lignum>  (312) 
28

>  <i_i_glide_rotatable_bonds>  (312) 
3

>  <r_i_docking_score>  (312) 
-3.17941

>  <r_i_glide_ligand_efficiency>  (312) 
-0.132475

>  <r_i_glide_ligand_efficiency_sa>  (312) 
-0.382125

>  <r_i_glide_ligand_efficiency_ln>  (312) 
-0.760978

>  <r_i_glide_gscore>  (312) 
-3.17941

>  <r_i_glide_lipo>  (312) 
-0.320675

>  <r_i_glide_hbond>  (312) 
-0.16

>  <r_i_glide_metal>  (312) 
-0

>  <r_i_glide_rewards>  (312) 
-1.26078

>  <r_i_glide_evdw>  (312) 
-22.3511

>  <r_i_glide_ecoul>  (312) 
-5.39939

>  <r_i_glide_erotb>  (312) 
0.519537

>  <r_i_glide_esite>  (312) 
-0.0300205

>  <r_i_glide_emodel>  (312) 
-33.998

>  <r_i_glide_energy>  (312) 
-27.7505

>  <r_i_glide_einternal>  (312) 
0.0985091

>  <r_i_glide_intrahb_reward>  (312) 
-0

>  <i_i_glide_confnum>  (312) 
4

>  <i_i_glide_posenum>  (312) 
9

>  <r_i_glide_eff_state_penalty>  (312) 
0

>  <ligand_id>  (312) 
81

>  <original_smiles>  (312) 
Cn1nc(C(=O)NC2C3CC4CC(C3)CC2(C)C4)c2c1CCOC2

>  <smiles>  (312) 
[H]N(C(=O)c1nn(C([H])([H])[H])c2c1C([H])([H])OC([H])([H])C2([H])[H])C1([H])C2([H])C([H])([H])C3([H])C([H])([H])C([H])(C2([H])[H])C([H])([H])C1(C([H])([H])[H])C3([H])[H]

$$$$
82:0:0
     RDKit          3D

 61 64  0  0  1  0  0  0  0  0999 V2000
    2.9957   -2.7238   -3.2933 C   0  0  0  0  0  0  0  0  0  0  0  0
    4.3475   -3.3878   -3.0434 C   0  0  0  0  0  0  0  0  0  0  0  0
    4.9895   -3.9072   -3.9940 O   0  0  0  0  0  0  0  0  0  0  0  0
    4.7848   -3.4100   -1.7539 O   0  0  0  0  0  0  0  0  0  0  0  0
    4.0547   -2.7898   -0.6937 C   0  0  2  0  0  0  0  0  0  0  0  0
    4.4388   -1.2996   -0.6307 C   0  0  0  0  0  0  0  0  0  0  0  0
    3.6841   -0.6120    0.5145 C   0  0  0  0  0  0  0  0  0  0  0  0
    3.8830   -1.2988    1.8965 C   0  0  2  0  0  0  0  0  0  0  0  0
    5.3564   -1.1520    2.3425 C   0  0  0  0  0  0  0  0  0  0  0  0
    3.5400   -2.7793    1.7238 C   0  0  0  0  0  0  0  0  0  0  0  0
    2.6175   -3.3686    2.3838 N   0  0  0  0  0  0  0  0  0  0  0  0
    1.6633   -2.7275    3.3399 C   0  0  0  0  0  0  0  0  0  0  0  0
    1.5420   -1.2322    3.0997 C   0  0  2  0  0  0  0  0  0  0  0  0
    2.9809   -0.6420    3.0173 C   0  0  2  0  0  0  0  0  0  0  0  0
    2.9529    0.9073    2.9549 C   0  0  0  0  0  0  0  0  0  0  0  0
    2.0607    1.5221    4.0010 C   0  0  0  0  0  0  0  0  0  0  0  0
    0.6275    0.9771    4.0070 C   0  0  2  0  0  0  0  0  0  0  0  0
   -0.0948    1.3930    2.6990 C   0  0  0  0  0  0  0  0  0  0  0  0
   -0.2381    1.3394    5.2331 C   0  0  1  0  0  0  0  0  0  0  0  0
   -0.8145    2.6531    5.1884 O   0  0  0  0  0  0  0  0  0  0  0  0
   -0.1435    3.7653    5.6534 C   0  0  0  0  0  0  0  0  0  0  0  0
    1.2672    3.5519    6.2427 C   0  0  0  0  0  0  0  0  0  0  0  0
   -0.6502    4.9213    5.5169 O   0  0  0  0  0  0  0  0  0  0  0  0
   -1.2914    0.2160    5.3333 C   0  0  0  0  0  0  0  0  0  0  0  0
   -0.6773   -0.9830    4.5864 C   0  0  0  0  0  0  0  0  0  0  0  0
    0.7503   -0.5338    4.2338 C   0  0  1  0  0  0  0  0  0  0  0  0
    4.2939   -3.5337    0.6347 C   0  0  0  0  0  0  0  0  0  0  0  0
    3.0021   -1.6809   -2.9471 H   0  0  0  0  0  0  0  0  0  0  0  0
    2.2151   -3.2651   -2.7317 H   0  0  0  0  0  0  0  0  0  0  0  0
    2.7098   -2.7178   -4.3448 H   0  0  0  0  0  0  0  0  0  0  0  0
    2.9940   -2.8936   -0.8689 H   0  0  0  0  0  0  0  0  0  0  0  0
    5.5195   -1.1782   -0.5273 H   0  0  0  0  0  0  0  0  0  0  0  0
    4.1824   -0.7801   -1.5510 H   0  0  0  0  0  0  0  0  0  0  0  0
    4.0246    0.4275    0.5354 H   0  0  0  0  0  0  0  0  0  0  0  0
    2.6219   -0.5694    0.2743 H   0  0  0  0  0  0  0  0  0  0  0  0
    5.6387   -0.1058    2.4670 H   0  0  0  0  0  0  0  0  0  0  0  0
    6.0506   -1.5636    1.6181 H   0  0  0  0  0  0  0  0  0  0  0  0
    5.5381   -1.6544    3.2909 H   0  0  0  0  0  0  0  0  0  0  0  0
    0.6994   -3.2091    3.1946 H   0  0  0  0  0  0  0  0  0  0  0  0
    2.0203   -2.9681    4.3392 H   0  0  0  0  0  0  0  0  0  0  0  0
    1.0213   -1.0698    2.1525 H   0  0  0  0  0  0  0  0  0  0  0  0
    3.4474   -0.8885    3.9786 H   0  0  0  0  0  0  0  0  0  0  0  0
    3.9650    1.2863    3.0983 H   0  0  0  0  0  0  0  0  0  0  0  0
    2.6249    1.2574    1.9762 H   0  0  0  0  0  0  0  0  0  0  0  0
    2.5497    1.3667    4.9650 H   0  0  0  0  0  0  0  0  0  0  0  0
    2.0738    2.5889    3.7904 H   0  0  0  0  0  0  0  0  0  0  0  0
   -1.1247    1.0418    2.6740 H   0  0  0  0  0  0  0  0  0  0  0  0
    0.4073    1.0302    1.8041 H   0  0  0  0  0  0  0  0  0  0  0  0
   -0.1235    2.4803    2.6197 H   0  0  0  0  0  0  0  0  0  0  0  0
    0.3421    1.2337    6.1454 H   0  0  0  0  0  0  0  0  0  0  0  0
    1.2145    2.8034    7.0654 H   0  0  0  0  0  0  0  0  0  0  0  0
    1.6541    4.4931    6.6338 H   0  0  0  0  0  0  0  0  0  0  0  0
    1.9245    3.2668    5.4611 H   0  0  0  0  0  0  0  0  0  0  0  0
   -1.4808   -0.0182    6.3796 H   0  0  0  0  0  0  0  0  0  0  0  0
   -2.2425    0.5069    4.8837 H   0  0  0  0  0  0  0  0  0  0  0  0
   -0.6822   -1.8900    5.1925 H   0  0  0  0  0  0  0  0  0  0  0  0
   -1.2426   -1.1670    3.6785 H   0  0  0  0  0  0  0  0  0  0  0  0
    1.3208   -0.6848    5.1605 H   0  0  0  0  0  0  0  0  0  0  0  0
    3.9277   -4.5503    0.5871 H   0  0  0  0  0  0  0  0  0  0  0  0
    5.3480   -3.5647    0.8956 H   0  0  0  0  0  0  0  0  0  0  0  0
    2.4770   -4.3528    2.2317 H   0  0  0  0  0  0  0  0  0  0  0  0
  1  2  1  0
  1 28  1  0
  1 29  1  0
  1 30  1  0
  2  3  2  0
  2  4  1  0
  4  5  1  0
  5 27  1  0
  5  6  1  0
  5 31  1  6
  6  7  1  0
  6 32  1  0
  6 33  1  0
  7  8  1  0
  7 34  1  0
  7 35  1  0
  8 14  1  0
  8  9  1  1
  8 10  1  0
  9 36  1  0
  9 37  1  0
  9 38  1  0
 10 11  2  0
 10 27  1  0
 11 12  1  0
 11 61  1  0
 12 13  1  0
 12 39  1  0
 12 40  1  0
 13 26  1  0
 13 14  1  0
 13 41  1  6
 14 15  1  0
 14 42  1  1
 15 16  1  0
 15 43  1  0
 15 44  1  0
 16 17  1  0
 16 45  1  0
 16 46  1  0
 17 26  1  0
 17 18  1  6
 17 19  1  0
 18 47  1  0
 18 48  1  0
 18 49  1  0
 19 20  1  0
 19 24  1  0
 19 50  1  1
 20 21  1  0
 21 22  1  0
 21 23  2  0
 22 51  1  0
 22 52  1  0
 22 53  1  0
 24 25  1  0
 24 54  1  0
 24 55  1  0
 25 26  1  0
 25 56  1  0
 25 57  1  0
 26 58  1  1
 27 59  1  0
 27 60  1  0
M  CHG  1  11   1
M  END
>  <i_m_ct_stereo_status>  (313) 
1

>  <s_m_source_file>  (313) 
/var/tmp/pbs.5076255.sched01/tmp7rmqr72f/92ch8atech.sdf

>  <i_m_source_file_index>  (313) 
29

>  <i_lp_mmshare_version>  (313) 
48012

>  <i_f3d_flags>  (313) 
0

>  <s_epik_input>  (313) 
W0NIM11DKD1PKU9bQ0BIXShbQ0gyXVtDSDJdMSlbQ0gyXUMoW0NAQF0xMltDSDNdKT1OW0NIMl1bQ0BASF0zW0NAQEhdMltDSDJdW0NIMl1bQ0BAXTQoW0NIM10pW0NASF0zW0NIMl1bQ0gyXVtDQEBIXTRPQyg9TylbQ0gzXQ==

>  <s_epik_cmdline>  (313) 
J2VwaWtfcHl0aG9uJywgJy1waHQnLCAnMi4wJywgJy1waCcsICc3LjAnLCAnLXRuJywgJzgnLCAnLW1hJywgJzIwMCcsICctaW1hZScsICc8aW5maWxlLm1hZT4nLCAnLW9tYWUnLCAnPG91dGZpbGUubWFlPic=

>  <r_epik_Ionization_Penalty>  (313) 
0.156902

>  <r_epik_Ionization_Penalty_Charging>  (313) 
0.156778

>  <r_epik_Ionization_Penalty_Neutral>  (313) 
0.000123642

>  <r_epik_State_Penalty>  (313) 
0.146077

>  <r_epik_Charging_Adjusted_Penalty>  (313) 
0.302855

>  <i_epik_Tot_Q>  (313) 
1

>  <i_epik_Tot_abs_Q>  (313) 
1

>  <s_epik_Chemistry_Notes>  (313) 
This compound has an ester and may undergo hydrolysis at high or low pH. This compound has an imine and may undergo hydrolysis.

>  <s_lp_Force_Field>  (313) 
OPLS3e

>  <r_lp_Energy>  (313) 
44.5644

>  <b_lp_Chiralities_Consistent>  (313) 
1

>  <s_lp_Variant>  (313) 
82:0-1

>  <s_i_glide_gridfile>  (313) 
pfpi4k_grid

>  <i_i_glide_lignum>  (313) 
29

>  <i_i_glide_rotatable_bonds>  (313) 
4

>  <r_i_docking_score>  (313) 
-3.39741

>  <r_i_glide_ligand_efficiency>  (313) 
-0.12583

>  <r_i_glide_ligand_efficiency_sa>  (313) 
-0.37749

>  <r_i_glide_ligand_efficiency_ln>  (313) 
-0.790861

>  <r_i_glide_gscore>  (313) 
-3.39741

>  <r_i_glide_lipo>  (313) 
-0.297218

>  <r_i_glide_hbond>  (313) 
0

>  <r_i_glide_metal>  (313) 
-0

>  <r_i_glide_rewards>  (313) 
-0.925572

>  <r_i_glide_evdw>  (313) 
-31.8438

>  <r_i_glide_ecoul>  (313) 
-5.62298

>  <r_i_glide_erotb>  (313) 
0.273117

>  <r_i_glide_esite>  (313) 
-0.0120985

>  <r_i_glide_emodel>  (313) 
-37.4672

>  <r_i_glide_energy>  (313) 
-37.4668

>  <r_i_glide_einternal>  (313) 
10.9577

>  <r_i_glide_intrahb_reward>  (313) 
-0

>  <i_i_glide_confnum>  (313) 
2

>  <i_i_glide_posenum>  (313) 
38

>  <r_i_glide_eff_state_penalty>  (313) 
0

>  <ligand_id>  (313) 
82

>  <original_smiles>  (313) 
CC(=O)OC1CCC2(C)C(=NCC3C2CCC2(C)C(OC(C)=O)CCC32)C1

>  <smiles>  (313) 
[H][N+]1=C2C([H])([H])C([H])(OC(=O)C([H])([H])[H])C([H])([H])C([H])([H])C2(C([H])([H])[H])C2([H])C([H])([H])C([H])([H])C3(C([H])([H])[H])C([H])(OC(=O)C([H])([H])[H])C([H])([H])C([H])([H])C3([H])C2([H])C1([H])[H]

$$$$
82:0:1
     RDKit          3D

 61 64  0  0  1  0  0  0  0  0999 V2000
    4.6217   -8.1602    0.6116 C   0  0  0  0  0  0  0  0  0  0  0  0
    4.0120   -6.9339    1.2829 C   0  0  0  0  0  0  0  0  0  0  0  0
    3.0047   -7.0267    1.9834 O   0  0  0  0  0  0  0  0  0  0  0  0
    4.6764   -5.7864    1.0156 O   0  0  0  0  0  0  0  0  0  0  0  0
    4.2378   -4.5578    1.5957 C   0  0  2  0  0  0  0  0  0  0  0  0
    3.0427   -3.9849    0.8032 C   0  0  0  0  0  0  0  0  0  0  0  0
    2.6173   -2.6082    1.3572 C   0  0  0  0  0  0  0  0  0  0  0  0
    3.7468   -1.5453    1.4166 C   0  0  2  0  0  0  0  0  0  0  0  0
    4.2384   -1.1906   -0.0063 C   0  0  0  0  0  0  0  0  0  0  0  0
    4.8968   -2.2357    2.1460 C   0  0  0  0  0  0  0  0  0  0  0  0
    5.4113   -1.7477    3.2503 N   0  0  0  0  0  0  0  0  0  0  0  0
    4.9147   -0.5855    3.9992 C   0  0  0  0  0  0  0  0  0  0  0  0
    3.4557   -0.2611    3.6725 C   0  0  2  0  0  0  0  0  0  0  0  0
    3.3113   -0.2121    2.1285 C   0  0  2  0  0  0  0  0  0  0  0  0
    1.9152    0.3187    1.6847 C   0  0  0  0  0  0  0  0  0  0  0  0
    1.4908    1.6141    2.4072 C   0  0  0  0  0  0  0  0  0  0  0  0
    1.5690    1.4433    3.9341 C   0  0  2  0  0  0  0  0  0  0  0  0
    0.5226    0.4065    4.4378 C   0  0  0  0  0  0  0  0  0  0  0  0
    1.4521    2.7565    4.7262 C   0  0  1  0  0  0  0  0  0  0  0  0
    0.0990    3.1836    4.8461 O   0  0  0  0  0  0  0  0  0  0  0  0
   -0.3958    4.2794    4.2202 C   0  0  0  0  0  0  0  0  0  0  0  0
    0.6442    5.2407    3.6508 C   0  0  0  0  0  0  0  0  0  0  0  0
   -1.5963    4.5298    4.1388 O   0  0  0  0  0  0  0  0  0  0  0  0
    2.1514    2.4969    6.0756 C   0  0  0  0  0  0  0  0  0  0  0  0
    3.1302    1.3344    5.7973 C   0  0  0  0  0  0  0  0  0  0  0  0
    3.0202    1.0902    4.2825 C   0  0  1  0  0  0  0  0  0  0  0  0
    5.4114   -3.5584    1.6479 C   0  0  0  0  0  0  0  0  0  0  0  0
    5.6573   -8.2910    0.9266 H   0  0  0  0  0  0  0  0  0  0  0  0
    4.6054   -8.0490   -0.4717 H   0  0  0  0  0  0  0  0  0  0  0  0
    4.0724   -9.0649    0.8677 H   0  0  0  0  0  0  0  0  0  0  0  0
    3.9199   -4.7467    2.6273 H   0  0  0  0  0  0  0  0  0  0  0  0
    3.2886   -3.9180   -0.2562 H   0  0  0  0  0  0  0  0  0  0  0  0
    2.1981   -4.6682    0.8620 H   0  0  0  0  0  0  0  0  0  0  0  0
    1.8089   -2.2519    0.7233 H   0  0  0  0  0  0  0  0  0  0  0  0
    2.1846   -2.7394    2.3514 H   0  0  0  0  0  0  0  0  0  0  0  0
    3.4397   -0.7254   -0.5844 H   0  0  0  0  0  0  0  0  0  0  0  0
    4.5558   -2.0617   -0.5782 H   0  0  0  0  0  0  0  0  0  0  0  0
    5.0788   -0.4918    0.0108 H   0  0  0  0  0  0  0  0  0  0  0  0
    5.0146   -0.8360    5.0553 H   0  0  0  0  0  0  0  0  0  0  0  0
    5.5829    0.2440    3.7721 H   0  0  0  0  0  0  0  0  0  0  0  0
    2.8338   -1.0576    4.0858 H   0  0  0  0  0  0  0  0  0  0  0  0
    4.0196    0.5505    1.8017 H   0  0  0  0  0  0  0  0  0  0  0  0
    1.9038    0.5116    0.6168 H   0  0  0  0  0  0  0  0  0  0  0  0
    1.1491   -0.4321    1.8662 H   0  0  0  0  0  0  0  0  0  0  0  0
    2.1415    2.4287    2.0879 H   0  0  0  0  0  0  0  0  0  0  0  0
    0.4842    1.9039    2.0956 H   0  0  0  0  0  0  0  0  0  0  0  0
    0.5307    0.3160    5.5250 H   0  0  0  0  0  0  0  0  0  0  0  0
    0.6777   -0.5939    4.0281 H   0  0  0  0  0  0  0  0  0  0  0  0
   -0.4851    0.7135    4.1469 H   0  0  0  0  0  0  0  0  0  0  0  0
    2.0778    3.4865    4.2140 H   0  0  0  0  0  0  0  0  0  0  0  0
    1.3295    5.5672    4.4287 H   0  0  0  0  0  0  0  0  0  0  0  0
    0.1765    6.1332    3.2190 H   0  0  0  0  0  0  0  0  0  0  0  0
    1.2021    4.7545    2.8514 H   0  0  0  0  0  0  0  0  0  0  0  0
    2.6738    3.4071    6.3699 H   0  0  0  0  0  0  0  0  0  0  0  0
    1.4554    2.2412    6.8809 H   0  0  0  0  0  0  0  0  0  0  0  0
    4.1525    1.5873    6.0915 H   0  0  0  0  0  0  0  0  0  0  0  0
    2.8180    0.4528    6.3572 H   0  0  0  0  0  0  0  0  0  0  0  0
    3.6512    1.8553    3.8218 H   0  0  0  0  0  0  0  0  0  0  0  0
    6.2055   -3.9454    2.2924 H   0  0  0  0  0  0  0  0  0  0  0  0
    5.8451   -3.4262    0.6583 H   0  0  0  0  0  0  0  0  0  0  0  0
    6.1823   -2.2546    3.6687 H   0  0  0  0  0  0  0  0  0  0  0  0
  1  2  1  0
  1 28  1  0
  1 29  1  0
  1 30  1  0
  2  3  2  0
  2  4  1  0
  4  5  1  0
  5 27  1  0
  5  6  1  0
  5 31  1  1
  6  7  1  0
  6 32  1  0
  6 33  1  0
  7  8  1  0
  7 34  1  0
  7 35  1  0
  8 14  1  0
  8  9  1  6
  8 10  1  0
  9 36  1  0
  9 37  1  0
  9 38  1  0
 10 11  2  0
 10 27  1  0
 11 12  1  0
 11 61  1  0
 12 13  1  0
 12 39  1  0
 12 40  1  0
 13 26  1  0
 13 14  1  0
 13 41  1  1
 14 15  1  0
 14 42  1  6
 15 16  1  0
 15 43  1  0
 15 44  1  0
 16 17  1  0
 16 45  1  0
 16 46  1  0
 17 26  1  0
 17 18  1  1
 17 19  1  0
 18 47  1  0
 18 48  1  0
 18 49  1  0
 19 20  1  0
 19 24  1  0
 19 50  1  6
 20 21  1  0
 21 22  1  0
 21 23  2  0
 22 51  1  0
 22 52  1  0
 22 53  1  0
 24 25  1  0
 24 54  1  0
 24 55  1  0
 25 26  1  0
 25 56  1  0
 25 57  1  0
 26 58  1  6
 27 59  1  0
 27 60  1  0
M  CHG  1  11   1
M  END
>  <i_m_ct_stereo_status>  (314) 
1

>  <s_m_source_file>  (314) 
/var/tmp/pbs.5076255.sched01/tmp7rmqr72f/92ch8atech.sdf

>  <i_m_source_file_index>  (314) 
29

>  <i_lp_mmshare_version>  (314) 
48012

>  <i_f3d_flags>  (314) 
0

>  <s_epik_input>  (314) 
W0NIM11DKD1PKU9bQ0BIXShbQ0gyXVtDSDJdMSlbQ0gyXUMoW0NAQF0xMltDSDNdKT1OW0NIMl1bQ0BASF0zW0NAQEhdMltDSDJdW0NIMl1bQ0BAXTQoW0NIM10pW0NASF0zW0NIMl1bQ0gyXVtDQEBIXTRPQyg9TylbQ0gzXQ==

>  <s_epik_cmdline>  (314) 
J2VwaWtfcHl0aG9uJywgJy1waHQnLCAnMi4wJywgJy1waCcsICc3LjAnLCAnLXRuJywgJzgnLCAnLW1hJywgJzIwMCcsICctaW1hZScsICc8aW5maWxlLm1hZT4nLCAnLW9tYWUnLCAnPG91dGZpbGUubWFlPic=

>  <r_epik_Ionization_Penalty>  (314) 
0.156902

>  <r_epik_Ionization_Penalty_Charging>  (314) 
0.156778

>  <r_epik_Ionization_Penalty_Neutral>  (314) 
0.000123642

>  <r_epik_State_Penalty>  (314) 
0.146077

>  <r_epik_Charging_Adjusted_Penalty>  (314) 
0.302855

>  <i_epik_Tot_Q>  (314) 
1

>  <i_epik_Tot_abs_Q>  (314) 
1

>  <s_epik_Chemistry_Notes>  (314) 
This compound has an ester and may undergo hydrolysis at high or low pH. This compound has an imine and may undergo hydrolysis.

>  <s_lp_Force_Field>  (314) 
OPLS3e

>  <r_lp_Energy>  (314) 
44.5644

>  <b_lp_Chiralities_Consistent>  (314) 
1

>  <s_lp_Variant>  (314) 
82:0-1

>  <s_i_glide_gridfile>  (314) 
pfpi4k_grid

>  <i_i_glide_lignum>  (314) 
29

>  <i_i_glide_rotatable_bonds>  (314) 
4

>  <r_i_docking_score>  (314) 
-3.12409

>  <r_i_glide_ligand_efficiency>  (314) 
-0.115707

>  <r_i_glide_ligand_efficiency_sa>  (314) 
-0.347121

>  <r_i_glide_ligand_efficiency_ln>  (314) 
-0.727236

>  <r_i_glide_gscore>  (314) 
-3.12409

>  <r_i_glide_lipo>  (314) 
-0.151975

>  <r_i_glide_hbond>  (314) 
-0.129035

>  <r_i_glide_metal>  (314) 
-0

>  <r_i_glide_rewards>  (314) 
-1.02556

>  <r_i_glide_evdw>  (314) 
-26.1706

>  <r_i_glide_ecoul>  (314) 
-4.76273

>  <r_i_glide_erotb>  (314) 
0.273117

>  <r_i_glide_esite>  (314) 
-0.0676954

>  <r_i_glide_emodel>  (314) 
-34.3519

>  <r_i_glide_energy>  (314) 
-30.9333

>  <r_i_glide_einternal>  (314) 
6.475

>  <r_i_glide_intrahb_reward>  (314) 
-0

>  <i_i_glide_confnum>  (314) 
3

>  <i_i_glide_posenum>  (314) 
29

>  <r_i_glide_eff_state_penalty>  (314) 
0

>  <ligand_id>  (314) 
82

>  <original_smiles>  (314) 
CC(=O)OC1CCC2(C)C(=NCC3C2CCC2(C)C(OC(C)=O)CCC32)C1

>  <smiles>  (314) 
[H][N+]1=C2C([H])([H])C([H])(OC(=O)C([H])([H])[H])C([H])([H])C([H])([H])C2(C([H])([H])[H])C2([H])C([H])([H])C([H])([H])C3(C([H])([H])[H])C([H])(OC(=O)C([H])([H])[H])C([H])([H])C([H])([H])C3([H])C2([H])C1([H])[H]

$$$$
82:0:2
     RDKit          3D

 61 64  0  0  1  0  0  0  0  0999 V2000
    5.0152   -3.8560   -3.5737 C   0  0  0  0  0  0  0  0  0  0  0  0
    4.1095   -3.0557   -2.6455 C   0  0  0  0  0  0  0  0  0  0  0  0
    3.1642   -2.4120   -3.0926 O   0  0  0  0  0  0  0  0  0  0  0  0
    4.4666   -3.1488   -1.3418 O   0  0  0  0  0  0  0  0  0  0  0  0
    3.7191   -2.4763   -0.3343 C   0  0  2  0  0  0  0  0  0  0  0  0
    4.1791   -1.0120   -0.2534 C   0  0  0  0  0  0  0  0  0  0  0  0
    3.4576   -0.2648    0.8906 C   0  0  0  0  0  0  0  0  0  0  0  0
    3.5908   -0.9514    2.2771 C   0  0  2  0  0  0  0  0  0  0  0  0
    5.0593   -0.8917    2.7625 C   0  0  0  0  0  0  0  0  0  0  0  0
    3.1601   -2.4055    2.0955 C   0  0  0  0  0  0  0  0  0  0  0  0
    2.2068   -2.9467    2.7502 N   0  0  0  0  0  0  0  0  0  0  0  0
    1.2645   -2.2510    3.6822 C   0  0  0  0  0  0  0  0  0  0  0  0
    1.2355   -0.7530    3.4398 C   0  0  2  0  0  0  0  0  0  0  0  0
    2.7084   -0.2473    3.3834 C   0  0  2  0  0  0  0  0  0  0  0  0
    2.7749    1.3021    3.3215 C   0  0  0  0  0  0  0  0  0  0  0  0
    1.8937    1.9613    4.3464 C   0  0  0  0  0  0  0  0  0  0  0  0
    0.4305    1.5042    4.3253 C   0  0  2  0  0  0  0  0  0  0  0  0
   -0.2411    1.9602    3.0037 C   0  0  0  0  0  0  0  0  0  0  0  0
   -0.4408    1.9195    5.5293 C   0  0  1  0  0  0  0  0  0  0  0  0
   -0.9412    3.2643    5.4630 O   0  0  0  0  0  0  0  0  0  0  0  0
   -0.2049    4.3352    5.9268 C   0  0  0  0  0  0  0  0  0  0  0  0
    1.1682    4.0378    6.5633 C   0  0  0  0  0  0  0  0  0  0  0  0
   -0.5841    5.5251    5.7426 O   0  0  0  0  0  0  0  0  0  0  0  0
   -1.5559    0.8578    5.6098 C   0  0  0  0  0  0  0  0  0  0  0  0
   -1.0044   -0.3770    4.8712 C   0  0  0  0  0  0  0  0  0  0  0  0
    0.4562   -0.0113    4.5539 C   0  0  1  0  0  0  0  0  0  0  0  0
    3.8795   -3.2034    1.0161 C   0  0  0  0  0  0  0  0  0  0  0  0
    5.0111   -4.9094   -3.2948 H   0  0  0  0  0  0  0  0  0  0  0  0
    6.0358   -3.4829   -3.5210 H   0  0  0  0  0  0  0  0  0  0  0  0
    4.6774   -3.7785   -4.6097 H   0  0  0  0  0  0  0  0  0  0  0  0
    2.6651   -2.4995   -0.6045 H   0  0  0  0  0  0  0  0  0  0  0  0
    5.2594   -0.9374   -0.1316 H   0  0  0  0  0  0  0  0  0  0  0  0
    3.9630   -0.5129   -1.1958 H   0  0  0  0  0  0  0  0  0  0  0  0
    3.8584    0.7515    0.9170 H   0  0  0  0  0  0  0  0  0  0  0  0
    2.3992   -0.1532    0.6289 H   0  0  0  0  0  0  0  0  0  0  0  0
    5.3993    0.1361    2.8952 H   0  0  0  0  0  0  0  0  0  0  0  0
    5.7472   -1.3434    2.0558 H   0  0  0  0  0  0  0  0  0  0  0  0
    5.1932   -1.4009    3.7164 H   0  0  0  0  0  0  0  0  0  0  0  0
    0.2794   -2.6766    3.5152 H   0  0  0  0  0  0  0  0  0  0  0  0
    1.5796   -2.5110    4.6886 H   0  0  0  0  0  0  0  0  0  0  0  0
    0.7450   -0.5622    2.4828 H   0  0  0  0  0  0  0  0  0  0  0  0
    3.1363   -0.5147    4.3569 H   0  0  0  0  0  0  0  0  0  0  0  0
    3.8059    1.6297    3.4755 H   0  0  0  0  0  0  0  0  0  0  0  0
    2.4813    1.6722    2.3394 H   0  0  0  0  0  0  0  0  0  0  0  0
    2.3489    1.7783    5.3224 H   0  0  0  0  0  0  0  0  0  0  0  0
    1.9711    3.0247    4.1316 H   0  0  0  0  0  0  0  0  0  0  0  0
   -1.2881    1.6682    2.9547 H   0  0  0  0  0  0  0  0  0  0  0  0
    0.2587    1.5695    2.1216 H   0  0  0  0  0  0  0  0  0  0  0  0
   -0.2057    3.0465    2.9202 H   0  0  0  0  0  0  0  0  0  0  0  0
    0.1090    1.7833    6.4567 H   0  0  0  0  0  0  0  0  0  0  0  0
    1.0406    3.3150    7.4071 H   0  0  0  0  0  0  0  0  0  0  0  0
    1.6237    4.9700    6.9309 H   0  0  0  0  0  0  0  0  0  0  0  0
    1.8275    3.6986    5.8188 H   0  0  0  0  0  0  0  0  0  0  0  0
   -1.7886    0.6373    6.6516 H   0  0  0  0  0  0  0  0  0  0  0  0
   -2.4727    1.2081    5.1372 H   0  0  0  0  0  0  0  0  0  0  0  0
   -1.0701   -1.2774    5.4814 H   0  0  0  0  0  0  0  0  0  0  0  0
   -1.5651   -0.5410    3.9535 H   0  0  0  0  0  0  0  0  0  0  0  0
    0.9953   -0.1899    5.4939 H   0  0  0  0  0  0  0  0  0  0  0  0
    3.4769   -4.2015    0.9765 H   0  0  0  0  0  0  0  0  0  0  0  0
    4.9214   -3.2901    1.2974 H   0  0  0  0  0  0  0  0  0  0  0  0
    2.0021   -3.9189    2.5921 H   0  0  0  0  0  0  0  0  0  0  0  0
  1  2  1  0
  1 28  1  0
  1 29  1  0
  1 30  1  0
  2  3  2  0
  2  4  1  0
  4  5  1  0
  5 27  1  0
  5  6  1  0
  5 31  1  6
  6  7  1  0
  6 32  1  0
  6 33  1  0
  7  8  1  0
  7 34  1  0
  7 35  1  0
  8 14  1  0
  8  9  1  1
  8 10  1  0
  9 36  1  0
  9 37  1  0
  9 38  1  0
 10 11  2  0
 10 27  1  0
 11 12  1  0
 11 61  1  0
 12 13  1  0
 12 39  1  0
 12 40  1  0
 13 26  1  0
 13 14  1  0
 13 41  1  6
 14 15  1  0
 14 42  1  1
 15 16  1  0
 15 43  1  0
 15 44  1  0
 16 17  1  0
 16 45  1  0
 16 46  1  0
 17 26  1  0
 17 18  1  6
 17 19  1  0
 18 47  1  0
 18 48  1  0
 18 49  1  0
 19 20  1  0
 19 24  1  0
 19 50  1  1
 20 21  1  0
 21 22  1  0
 21 23  2  0
 22 51  1  0
 22 52  1  0
 22 53  1  0
 24 25  1  0
 24 54  1  0
 24 55  1  0
 25 26  1  0
 25 56  1  0
 25 57  1  0
 26 58  1  1
 27 59  1  0
 27 60  1  0
M  CHG  1  11   1
M  END
>  <i_m_ct_stereo_status>  (315) 
1

>  <s_m_source_file>  (315) 
/var/tmp/pbs.5076255.sched01/tmp7rmqr72f/92ch8atech.sdf

>  <i_m_source_file_index>  (315) 
29

>  <i_lp_mmshare_version>  (315) 
48012

>  <i_f3d_flags>  (315) 
0

>  <s_epik_input>  (315) 
W0NIM11DKD1PKU9bQ0BIXShbQ0gyXVtDSDJdMSlbQ0gyXUMoW0NAQF0xMltDSDNdKT1OW0NIMl1bQ0BASF0zW0NAQEhdMltDSDJdW0NIMl1bQ0BAXTQoW0NIM10pW0NASF0zW0NIMl1bQ0gyXVtDQEBIXTRPQyg9TylbQ0gzXQ==

>  <s_epik_cmdline>  (315) 
J2VwaWtfcHl0aG9uJywgJy1waHQnLCAnMi4wJywgJy1waCcsICc3LjAnLCAnLXRuJywgJzgnLCAnLW1hJywgJzIwMCcsICctaW1hZScsICc8aW5maWxlLm1hZT4nLCAnLW9tYWUnLCAnPG91dGZpbGUubWFlPic=

>  <r_epik_Ionization_Penalty>  (315) 
0.156902

>  <r_epik_Ionization_Penalty_Charging>  (315) 
0.156778

>  <r_epik_Ionization_Penalty_Neutral>  (315) 
0.000123642

>  <r_epik_State_Penalty>  (315) 
0.146077

>  <r_epik_Charging_Adjusted_Penalty>  (315) 
0.302855

>  <i_epik_Tot_Q>  (315) 
1

>  <i_epik_Tot_abs_Q>  (315) 
1

>  <s_epik_Chemistry_Notes>  (315) 
This compound has an ester and may undergo hydrolysis at high or low pH. This compound has an imine and may undergo hydrolysis.

>  <s_lp_Force_Field>  (315) 
OPLS3e

>  <r_lp_Energy>  (315) 
44.5644

>  <b_lp_Chiralities_Consistent>  (315) 
1

>  <s_lp_Variant>  (315) 
82:0-1

>  <s_i_glide_gridfile>  (315) 
pfpi4k_grid

>  <i_i_glide_lignum>  (315) 
29

>  <i_i_glide_rotatable_bonds>  (315) 
4

>  <r_i_docking_score>  (315) 
-2.90028

>  <r_i_glide_ligand_efficiency>  (315) 
-0.107418

>  <r_i_glide_ligand_efficiency_sa>  (315) 
-0.322253

>  <r_i_glide_ligand_efficiency_ln>  (315) 
-0.675136

>  <r_i_glide_gscore>  (315) 
-2.90028

>  <r_i_glide_lipo>  (315) 
-0.22244

>  <r_i_glide_hbond>  (315) 
0

>  <r_i_glide_metal>  (315) 
-0

>  <r_i_glide_rewards>  (315) 
-0.84198

>  <r_i_glide_evdw>  (315) 
-29.9043

>  <r_i_glide_ecoul>  (315) 
-3.86405

>  <r_i_glide_erotb>  (315) 
0.273117

>  <r_i_glide_esite>  (315) 
-0.0341501

>  <r_i_glide_emodel>  (315) 
-35.589

>  <r_i_glide_energy>  (315) 
-33.7684

>  <r_i_glide_einternal>  (315) 
5.84963

>  <r_i_glide_intrahb_reward>  (315) 
-0

>  <i_i_glide_confnum>  (315) 
2

>  <i_i_glide_posenum>  (315) 
27

>  <r_i_glide_eff_state_penalty>  (315) 
0

>  <ligand_id>  (315) 
82

>  <original_smiles>  (315) 
CC(=O)OC1CCC2(C)C(=NCC3C2CCC2(C)C(OC(C)=O)CCC32)C1

>  <smiles>  (315) 
[H][N+]1=C2C([H])([H])C([H])(OC(=O)C([H])([H])[H])C([H])([H])C([H])([H])C2(C([H])([H])[H])C2([H])C([H])([H])C([H])([H])C3(C([H])([H])[H])C([H])(OC(=O)C([H])([H])[H])C([H])([H])C([H])([H])C3([H])C2([H])C1([H])[H]

$$$$
82:1:0
     RDKit          3D

 60 63  0  0  1  0  0  0  0  0999 V2000
    2.7536   -3.0569   -3.2995 C   0  0  0  0  0  0  0  0  0  0  0  0
    4.2340   -3.4200   -3.2666 C   0  0  0  0  0  0  0  0  0  0  0  0
    4.7761   -3.8623   -4.2823 O   0  0  0  0  0  0  0  0  0  0  0  0
    4.8835   -3.2348   -2.0891 O   0  0  0  0  0  0  0  0  0  0  0  0
    4.2365   -2.7213   -0.9249 C   0  0  2  0  0  0  0  0  0  0  0  0
    4.4676   -1.1991   -0.8143 C   0  0  0  0  0  0  0  0  0  0  0  0
    3.7579   -0.6528    0.4437 C   0  0  0  0  0  0  0  0  0  0  0  0
    4.1114   -1.3893    1.7667 C   0  0  2  0  0  0  0  0  0  0  0  0
    5.5887   -1.0916    2.1207 C   0  0  0  0  0  0  0  0  0  0  0  0
    3.9274   -2.9103    1.5189 C   0  0  0  0  0  0  0  0  0  0  0  0
    3.0871   -3.6732    2.1085 N   0  0  0  0  0  0  0  0  0  0  0  0
    2.1778   -3.1800    3.1294 C   0  0  0  0  0  0  0  0  0  0  0  0
    1.8744   -1.6748    3.0254 C   0  0  2  0  0  0  0  0  0  0  0  0
    3.2161   -0.9045    2.9624 C   0  0  2  0  0  0  0  0  0  0  0  0
    3.0110    0.6365    3.0659 C   0  0  0  0  0  0  0  0  0  0  0  0
    2.1045    1.0637    4.2437 C   0  0  0  0  0  0  0  0  0  0  0  0
    0.7505    0.3290    4.1918 C   0  0  2  0  0  0  0  0  0  0  0  0
   -0.0665    0.7659    2.9393 C   0  0  0  0  0  0  0  0  0  0  0  0
   -0.1224    0.4650    5.4597 C   0  0  1  0  0  0  0  0  0  0  0  0
   -0.8424    1.6961    5.5007 O   0  0  0  0  0  0  0  0  0  0  0  0
   -1.7667    1.9340    6.4548 C   0  0  0  0  0  0  0  0  0  0  0  0
   -2.3195    3.3464    6.3992 C   0  0  0  0  0  0  0  0  0  0  0  0
   -2.1682    1.1320    7.2910 O   0  0  0  0  0  0  0  0  0  0  0  0
   -0.9988   -0.8117    5.4547 C   0  0  0  0  0  0  0  0  0  0  0  0
   -0.2677   -1.8409    4.5851 C   0  0  0  0  0  0  0  0  0  0  0  0
    1.0639   -1.1737    4.2423 C   0  0  1  0  0  0  0  0  0  0  0  0
    4.7277   -3.4507    0.3392 C   0  0  0  0  0  0  0  0  0  0  0  0
    2.6077   -2.0018   -3.0355 H   0  0  0  0  0  0  0  0  0  0  0  0
    2.2081   -3.6770   -2.5845 H   0  0  0  0  0  0  0  0  0  0  0  0
    2.3335   -3.2100   -4.2862 H   0  0  0  0  0  0  0  0  0  0  0  0
    3.1622   -2.9171   -0.9830 H   0  0  0  0  0  0  0  0  0  0  0  0
    5.5329   -0.9452   -0.8008 H   0  0  0  0  0  0  0  0  0  0  0  0
    4.0504   -0.7061   -1.6928 H   0  0  0  0  0  0  0  0  0  0  0  0
    3.9824    0.4126    0.5164 H   0  0  0  0  0  0  0  0  0  0  0  0
    2.6779   -0.7188    0.2928 H   0  0  0  0  0  0  0  0  0  0  0  0
    5.7455   -0.0335    2.3242 H   0  0  0  0  0  0  0  0  0  0  0  0
    6.2797   -1.3502    1.3178 H   0  0  0  0  0  0  0  0  0  0  0  0
    5.8988   -1.6503    3.0042 H   0  0  0  0  0  0  0  0  0  0  0  0
    1.2338   -3.7191    3.0316 H   0  0  0  0  0  0  0  0  0  0  0  0
    2.5691   -3.4411    4.1122 H   0  0  0  0  0  0  0  0  0  0  0  0
    1.3116   -1.5143    2.1067 H   0  0  0  0  0  0  0  0  0  0  0  0
    3.7529   -1.1852    3.8695 H   0  0  0  0  0  0  0  0  0  0  0  0
    3.9737    1.1290    3.1889 H   0  0  0  0  0  0  0  0  0  0  0  0
    2.5847    1.0350    2.1443 H   0  0  0  0  0  0  0  0  0  0  0  0
    2.6157    0.8368    5.1802 H   0  0  0  0  0  0  0  0  0  0  0  0
    1.9552    2.1430    4.2303 H   0  0  0  0  0  0  0  0  0  0  0  0
   -1.0490    0.2935    2.9070 H   0  0  0  0  0  0  0  0  0  0  0  0
    0.4321    0.5273    1.9996 H   0  0  0  0  0  0  0  0  0  0  0  0
   -0.2286    1.8459    2.9425 H   0  0  0  0  0  0  0  0  0  0  0  0
    0.5292    0.4246    6.3347 H   0  0  0  0  0  0  0  0  0  0  0  0
   -1.5120    4.0684    6.5196 H   0  0  0  0  0  0  0  0  0  0  0  0
   -3.0397    3.5045    7.2022 H   0  0  0  0  0  0  0  0  0  0  0  0
   -2.8148    3.5263    5.4465 H   0  0  0  0  0  0  0  0  0  0  0  0
   -1.1273   -1.1873    6.4678 H   0  0  0  0  0  0  0  0  0  0  0  0
   -1.9881   -0.6171    5.0316 H   0  0  0  0  0  0  0  0  0  0  0  0
   -0.1373   -2.7972    5.0928 H   0  0  0  0  0  0  0  0  0  0  0  0
   -0.8451   -2.0302    3.6897 H   0  0  0  0  0  0  0  0  0  0  0  0
    1.6914   -1.3447    5.1180 H   0  0  0  0  0  0  0  0  0  0  0  0
    4.5211   -4.5133    0.2199 H   0  0  0  0  0  0  0  0  0  0  0  0
    5.8068   -3.3564    0.5063 H   0  0  0  0  0  0  0  0  0  0  0  0
  1  2  1  0
  1 28  1  0
  1 29  1  0
  1 30  1  0
  2  3  2  0
  2  4  1  0
  4  5  1  0
  5 27  1  0
  5  6  1  0
  5 31  1  6
  6  7  1  0
  6 32  1  0
  6 33  1  0
  7  8  1  0
  7 34  1  0
  7 35  1  0
  8 14  1  0
  8  9  1  1
  8 10  1  0
  9 36  1  0
  9 37  1  0
  9 38  1  0
 10 11  2  0
 10 27  1  0
 11 12  1  0
 12 13  1  0
 12 39  1  0
 12 40  1  0
 13 26  1  0
 13 14  1  0
 13 41  1  6
 14 15  1  0
 14 42  1  1
 15 16  1  0
 15 43  1  0
 15 44  1  0
 16 17  1  0
 16 45  1  0
 16 46  1  0
 17 26  1  0
 17 18  1  6
 17 19  1  0
 18 47  1  0
 18 48  1  0
 18 49  1  0
 19 20  1  0
 19 24  1  0
 19 50  1  1
 20 21  1  0
 21 22  1  0
 21 23  2  0
 22 51  1  0
 22 52  1  0
 22 53  1  0
 24 25  1  0
 24 54  1  0
 24 55  1  0
 25 26  1  0
 25 56  1  0
 25 57  1  0
 26 58  1  1
 27 59  1  0
 27 60  1  0
M  END
>  <i_m_ct_stereo_status>  (316) 
1

>  <s_m_source_file>  (316) 
/var/tmp/pbs.5076255.sched01/tmp7rmqr72f/92ch8atech.sdf

>  <i_m_source_file_index>  (316) 
30

>  <i_lp_mmshare_version>  (316) 
48012

>  <i_f3d_flags>  (316) 
0

>  <s_epik_input>  (316) 
W0NIM11DKD1PKU9bQ0BIXShbQ0gyXVtDSDJdMSlbQ0gyXUMoW0NAQF0xMltDSDNdKT1OW0NIMl1bQ0BASF0zW0NAQEhdMltDSDJdW0NIMl1bQ0BAXTQoW0NIM10pW0NASF0zW0NIMl1bQ0gyXVtDQEBIXTRPQyg9TylbQ0gzXQ==

>  <s_epik_cmdline>  (316) 
J2VwaWtfcHl0aG9uJywgJy1waHQnLCAnMi4wJywgJy1waCcsICc3LjAnLCAnLXRuJywgJzgnLCAnLW1hJywgJzIwMCcsICctaW1hZScsICc8aW5maWxlLm1hZT4nLCAnLW9tYWUnLCAnPG91dGZpbGUubWFlPic=

>  <r_lp_tautomer_probability>  (316) 
0.999992

>  <r_epik_Ionization_Penalty>  (316) 
0.864369

>  <r_epik_Ionization_Penalty_Charging>  (316) 
0

>  <r_epik_Ionization_Penalty_Neutral>  (316) 
0.864369

>  <r_epik_State_Penalty>  (316) 
0.901133

>  <r_epik_Charging_Adjusted_Penalty>  (316) 
0.901133

>  <i_epik_Tot_Q>  (316) 
0

>  <i_epik_Tot_abs_Q>  (316) 
0

>  <s_epik_Chemistry_Notes>  (316) 
This compound has an ester and may undergo hydrolysis at high or low pH. This compound has an imine and may undergo hydrolysis.

>  <s_lp_Force_Field>  (316) 
OPLS3e

>  <r_lp_Energy>  (316) 
34.0134

>  <b_lp_Chiralities_Consistent>  (316) 
1

>  <s_lp_Variant>  (316) 
82:0-2

>  <s_i_glide_gridfile>  (316) 
pfpi4k_grid

>  <i_i_glide_lignum>  (316) 
30

>  <i_i_glide_rotatable_bonds>  (316) 
4

>  <r_i_docking_score>  (316) 
-3.83173

>  <r_i_glide_ligand_efficiency>  (316) 
-0.141916

>  <r_i_glide_ligand_efficiency_sa>  (316) 
-0.425748

>  <r_i_glide_ligand_efficiency_ln>  (316) 
-0.891965

>  <r_i_glide_gscore>  (316) 
-3.83173

>  <r_i_glide_lipo>  (316) 
-0.418858

>  <r_i_glide_hbond>  (316) 
-0.168822

>  <r_i_glide_metal>  (316) 
-0

>  <r_i_glide_rewards>  (316) 
-0.975498

>  <r_i_glide_evdw>  (316) 
-33.5968

>  <r_i_glide_ecoul>  (316) 
-5.66068

>  <r_i_glide_erotb>  (316) 
0.27443

>  <r_i_glide_esite>  (316) 
-0.0140454

>  <r_i_glide_emodel>  (316) 
-44.5216

>  <r_i_glide_energy>  (316) 
-39.2574

>  <r_i_glide_einternal>  (316) 
6.88227

>  <r_i_glide_intrahb_reward>  (316) 
-0

>  <i_i_glide_confnum>  (316) 
4

>  <i_i_glide_posenum>  (316) 
14

>  <r_i_glide_eff_state_penalty>  (316) 
0

>  <ligand_id>  (316) 
82

>  <original_smiles>  (316) 
CC(=O)OC1CCC2(C)C(=NCC3C2CCC2(C)C(OC(C)=O)CCC32)C1

>  <smiles>  (316) 
[H]C([H])([H])C(=O)OC1([H])C([H])([H])C2=NC([H])([H])C3([H])C([H])(C([H])([H])C([H])([H])C4(C([H])([H])[H])C([H])(OC(=O)C([H])([H])[H])C([H])([H])C([H])([H])C34[H])C2(C([H])([H])[H])C([H])([H])C1([H])[H]

$$$$
82:1:1
     RDKit          3D

 60 63  0  0  1  0  0  0  0  0999 V2000
    2.6021   -2.5297   -3.0222 C   0  0  0  0  0  0  0  0  0  0  0  0
    4.0133   -3.0883   -2.8727 C   0  0  0  0  0  0  0  0  0  0  0  0
    4.6209   -3.5007   -3.8695 O   0  0  0  0  0  0  0  0  0  0  0  0
    4.5290   -3.1202   -1.6116 O   0  0  0  0  0  0  0  0  0  0  0  0
    3.8759   -2.5067   -0.4974 C   0  0  2  0  0  0  0  0  0  0  0  0
    4.3689   -1.0524   -0.3931 C   0  0  0  0  0  0  0  0  0  0  0  0
    3.6786   -0.3441    0.7869 C   0  0  0  0  0  0  0  0  0  0  0  0
    3.7907   -1.0996    2.1405 C   0  0  2  0  0  0  0  0  0  0  0  0
    5.2729   -1.0480    2.6132 C   0  0  0  0  0  0  0  0  0  0  0  0
    3.3457   -2.5657    1.9160 C   0  0  0  0  0  0  0  0  0  0  0  0
    2.3457   -3.1494    2.4589 N   0  0  0  0  0  0  0  0  0  0  0  0
    1.4670   -2.4540    3.3969 C   0  0  0  0  0  0  0  0  0  0  0  0
    1.4536   -0.9262    3.2203 C   0  0  2  0  0  0  0  0  0  0  0  0
    2.9173   -0.4269    3.2485 C   0  0  2  0  0  0  0  0  0  0  0  0
    2.9792    1.1246    3.2642 C   0  0  0  0  0  0  0  0  0  0  0  0
    2.0975    1.7542    4.3043 C   0  0  0  0  0  0  0  0  0  0  0  0
    0.6379    1.2919    4.2273 C   0  0  2  0  0  0  0  0  0  0  0  0
   -0.0056    1.8248    2.9048 C   0  0  0  0  0  0  0  0  0  0  0  0
   -0.2441    1.6304    5.4476 C   0  0  1  0  0  0  0  0  0  0  0  0
   -0.7164    2.9786    5.4808 O   0  0  0  0  0  0  0  0  0  0  0  0
   -0.0664    3.9962    6.0369 C   0  0  0  0  0  0  0  0  0  0  0  0
    1.2705    3.6852    6.7268 C   0  0  0  0  0  0  0  0  0  0  0  0
   -0.4897    5.1705    5.9872 O   0  0  0  0  0  0  0  0  0  0  0  0
   -1.3862    0.5842    5.4011 C   0  0  0  0  0  0  0  0  0  0  0  0
   -0.8185   -0.6143    4.6116 C   0  0  0  0  0  0  0  0  0  0  0  0
    0.6493   -0.2378    4.3503 C   0  0  1  0  0  0  0  0  0  0  0  0
    4.1224   -3.2778    0.8123 C   0  0  0  0  0  0  0  0  0  0  0  0
    2.5547   -1.5088   -2.6263 H   0  0  0  0  0  0  0  0  0  0  0  0
    1.9011   -3.1538   -2.4513 H   0  0  0  0  0  0  0  0  0  0  0  0
    2.2818   -2.5099   -4.0416 H   0  0  0  0  0  0  0  0  0  0  0  0
    2.7917   -2.5258   -0.6328 H   0  0  0  0  0  0  0  0  0  0  0  0
    5.4570   -1.0086   -0.2932 H   0  0  0  0  0  0  0  0  0  0  0  0
    4.1255   -0.5178   -1.3169 H   0  0  0  0  0  0  0  0  0  0  0  0
    4.0903    0.6584    0.8574 H   0  0  0  0  0  0  0  0  0  0  0  0
    2.6197   -0.2256    0.5446 H   0  0  0  0  0  0  0  0  0  0  0  0
    5.6034   -0.0254    2.8032 H   0  0  0  0  0  0  0  0  0  0  0  0
    5.9697   -1.4548    1.8709 H   0  0  0  0  0  0  0  0  0  0  0  0
    5.4146   -1.6185    3.5376 H   0  0  0  0  0  0  0  0  0  0  0  0
    0.4454   -2.8081    3.2383 H   0  0  0  0  0  0  0  0  0  0  0  0
    1.7264   -2.7317    4.4188 H   0  0  0  0  0  0  0  0  0  0  0  0
    0.9989   -0.6990    2.2589 H   0  0  0  0  0  0  0  0  0  0  0  0
    3.3300   -0.7567    4.2023 H   0  0  0  0  0  0  0  0  0  0  0  0
    4.0168    1.4092    3.4663 H   0  0  0  0  0  0  0  0  0  0  0  0
    2.7413    1.5372    2.2753 H   0  0  0  0  0  0  0  0  0  0  0  0
    2.5278    1.5017    5.2889 H   0  0  0  0  0  0  0  0  0  0  0  0
    2.1596    2.8573    4.2464 H   0  0  0  0  0  0  0  0  0  0  0  0
   -1.0576    1.5445    2.8174 H   0  0  0  0  0  0  0  0  0  0  0  0
    0.5123    1.4804    2.0048 H   0  0  0  0  0  0  0  0  0  0  0  0
    0.0428    2.9151    2.8988 H   0  0  0  0  0  0  0  0  0  0  0  0
    0.3011    1.4432    6.3689 H   0  0  0  0  0  0  0  0  0  0  0  0
    1.1088    2.9082    7.5207 H   0  0  0  0  0  0  0  0  0  0  0  0
    1.6308    4.5587    7.2755 H   0  0  0  0  0  0  0  0  0  0  0  0
    1.9938    3.3867    6.0149 H   0  0  0  0  0  0  0  0  0  0  0  0
   -1.6533    0.3118    6.4176 H   0  0  0  0  0  0  0  0  0  0  0  0
   -2.2856    0.9644    4.9093 H   0  0  0  0  0  0  0  0  0  0  0  0
   -0.9067   -1.5543    5.1573 H   0  0  0  0  0  0  0  0  0  0  0  0
   -1.3592   -0.7044    3.6806 H   0  0  0  0  0  0  0  0  0  0  0  0
    1.1673   -0.4751    5.2803 H   0  0  0  0  0  0  0  0  0  0  0  0
    3.7272   -4.2928    0.7058 H   0  0  0  0  0  0  0  0  0  0  0  0
    5.1856   -3.3622    1.0609 H   0  0  0  0  0  0  0  0  0  0  0  0
  1  2  1  0
  1 28  1  0
  1 29  1  0
  1 30  1  0
  2  3  2  0
  2  4  1  0
  4  5  1  0
  5 27  1  0
  5  6  1  0
  5 31  1  6
  6  7  1  0
  6 32  1  0
  6 33  1  0
  7  8  1  0
  7 34  1  0
  7 35  1  0
  8 14  1  0
  8  9  1  1
  8 10  1  0
  9 36  1  0
  9 37  1  0
  9 38  1  0
 10 11  2  0
 10 27  1  0
 11 12  1  0
 12 13  1  0
 12 39  1  0
 12 40  1  0
 13 26  1  0
 13 14  1  0
 13 41  1  6
 14 15  1  0
 14 42  1  1
 15 16  1  0
 15 43  1  0
 15 44  1  0
 16 17  1  0
 16 45  1  0
 16 46  1  0
 17 26  1  0
 17 18  1  6
 17 19  1  0
 18 47  1  0
 18 48  1  0
 18 49  1  0
 19 20  1  0
 19 24  1  0
 19 50  1  1
 20 21  1  0
 21 22  1  0
 21 23  2  0
 22 51  1  0
 22 52  1  0
 22 53  1  0
 24 25  1  0
 24 54  1  0
 24 55  1  0
 25 26  1  0
 25 56  1  0
 25 57  1  0
 26 58  1  1
 27 59  1  0
 27 60  1  0
M  END
>  <i_m_ct_stereo_status>  (317) 
1

>  <s_m_source_file>  (317) 
/var/tmp/pbs.5076255.sched01/tmp7rmqr72f/92ch8atech.sdf

>  <i_m_source_file_index>  (317) 
30

>  <i_lp_mmshare_version>  (317) 
48012

>  <i_f3d_flags>  (317) 
0

>  <s_epik_input>  (317) 
W0NIM11DKD1PKU9bQ0BIXShbQ0gyXVtDSDJdMSlbQ0gyXUMoW0NAQF0xMltDSDNdKT1OW0NIMl1bQ0BASF0zW0NAQEhdMltDSDJdW0NIMl1bQ0BAXTQoW0NIM10pW0NASF0zW0NIMl1bQ0gyXVtDQEBIXTRPQyg9TylbQ0gzXQ==

>  <s_epik_cmdline>  (317) 
J2VwaWtfcHl0aG9uJywgJy1waHQnLCAnMi4wJywgJy1waCcsICc3LjAnLCAnLXRuJywgJzgnLCAnLW1hJywgJzIwMCcsICctaW1hZScsICc8aW5maWxlLm1hZT4nLCAnLW9tYWUnLCAnPG91dGZpbGUubWFlPic=

>  <r_lp_tautomer_probability>  (317) 
0.999992

>  <r_epik_Ionization_Penalty>  (317) 
0.864369

>  <r_epik_Ionization_Penalty_Charging>  (317) 
0

>  <r_epik_Ionization_Penalty_Neutral>  (317) 
0.864369

>  <r_epik_State_Penalty>  (317) 
0.901133

>  <r_epik_Charging_Adjusted_Penalty>  (317) 
0.901133

>  <i_epik_Tot_Q>  (317) 
0

>  <i_epik_Tot_abs_Q>  (317) 
0

>  <s_epik_Chemistry_Notes>  (317) 
This compound has an ester and may undergo hydrolysis at high or low pH. This compound has an imine and may undergo hydrolysis.

>  <s_lp_Force_Field>  (317) 
OPLS3e

>  <r_lp_Energy>  (317) 
34.0134

>  <b_lp_Chiralities_Consistent>  (317) 
1

>  <s_lp_Variant>  (317) 
82:0-2

>  <s_i_glide_gridfile>  (317) 
pfpi4k_grid

>  <i_i_glide_lignum>  (317) 
30

>  <i_i_glide_rotatable_bonds>  (317) 
4

>  <r_i_docking_score>  (317) 
-2.87485

>  <r_i_glide_ligand_efficiency>  (317) 
-0.106476

>  <r_i_glide_ligand_efficiency_sa>  (317) 
-0.319428

>  <r_i_glide_ligand_efficiency_ln>  (317) 
-0.669217

>  <r_i_glide_gscore>  (317) 
-2.87485

>  <r_i_glide_lipo>  (317) 
-0.196237

>  <r_i_glide_hbond>  (317) 
0

>  <r_i_glide_metal>  (317) 
-0

>  <r_i_glide_rewards>  (317) 
-0.848852

>  <r_i_glide_evdw>  (317) 
-32.624

>  <r_i_glide_ecoul>  (317) 
-3.09364

>  <r_i_glide_erotb>  (317) 
0.27443

>  <r_i_glide_esite>  (317) 
-0.00894085

>  <r_i_glide_emodel>  (317) 
-36.308

>  <r_i_glide_energy>  (317) 
-35.7177

>  <r_i_glide_einternal>  (317) 
11.006

>  <r_i_glide_intrahb_reward>  (317) 
-0

>  <i_i_glide_confnum>  (317) 
2

>  <i_i_glide_posenum>  (317) 
19

>  <r_i_glide_eff_state_penalty>  (317) 
0

>  <ligand_id>  (317) 
82

>  <original_smiles>  (317) 
CC(=O)OC1CCC2(C)C(=NCC3C2CCC2(C)C(OC(C)=O)CCC32)C1

>  <smiles>  (317) 
[H]C([H])([H])C(=O)OC1([H])C([H])([H])C2=NC([H])([H])C3([H])C([H])(C([H])([H])C([H])([H])C4(C([H])([H])[H])C([H])(OC(=O)C([H])([H])[H])C([H])([H])C([H])([H])C34[H])C2(C([H])([H])[H])C([H])([H])C1([H])[H]

$$$$
82:1:2
     RDKit          3D

 60 63  0  0  1  0  0  0  0  0999 V2000
    0.4142   -8.7013    2.8936 C   0  0  0  0  0  0  0  0  0  0  0  0
    0.2052   -7.1919    2.9049 C   0  0  0  0  0  0  0  0  0  0  0  0
   -0.5555   -6.6583    2.0981 O   0  0  0  0  0  0  0  0  0  0  0  0
    0.9231   -6.5641    3.8669 O   0  0  0  0  0  0  0  0  0  0  0  0
    0.8892   -5.1432    4.0065 C   0  0  2  0  0  0  0  0  0  0  0  0
    2.2863   -4.5536    3.7659 C   0  0  0  0  0  0  0  0  0  0  0  0
    2.2840   -3.0198    3.9814 C   0  0  0  0  0  0  0  0  0  0  0  0
    1.6893   -2.5524    5.3452 C   0  0  2  0  0  0  0  0  0  0  0  0
    2.6340   -2.9868    6.4961 C   0  0  0  0  0  0  0  0  0  0  0  0
    0.3122   -3.2360    5.5195 C   0  0  0  0  0  0  0  0  0  0  0  0
   -0.8109   -2.6410    5.6346 N   0  0  0  0  0  0  0  0  0  0  0  0
   -0.9426   -1.1958    5.5248 C   0  0  0  0  0  0  0  0  0  0  0  0
    0.2174   -0.5098    4.7876 C   0  0  2  0  0  0  0  0  0  0  0  0
    1.5475   -0.9908    5.4155 C   0  0  2  0  0  0  0  0  0  0  0  0
    2.7749   -0.1862    4.8946 C   0  0  0  0  0  0  0  0  0  0  0  0
    2.5760    1.3422    4.9523 C   0  0  0  0  0  0  0  0  0  0  0  0
    1.2866    1.7654    4.2249 C   0  0  2  0  0  0  0  0  0  0  0  0
    1.3904    1.4897    2.6985 C   0  0  0  0  0  0  0  0  0  0  0  0
    0.8531    3.2261    4.4738 C   0  0  1  0  0  0  0  0  0  0  0  0
    1.5095    4.1915    3.6597 O   0  0  0  0  0  0  0  0  0  0  0  0
    2.6657    4.7494    4.0634 C   0  0  0  0  0  0  0  0  0  0  0  0
    3.2304    5.7267    3.0457 C   0  0  0  0  0  0  0  0  0  0  0  0
    3.2459    4.5328    5.1258 O   0  0  0  0  0  0  0  0  0  0  0  0
   -0.6690    3.2270    4.2403 C   0  0  0  0  0  0  0  0  0  0  0  0
   -1.1328    1.7638    4.4233 C   0  0  0  0  0  0  0  0  0  0  0  0
    0.1251    1.0299    4.9049 C   0  0  1  0  0  0  0  0  0  0  0  0
    0.3515   -4.7581    5.3931 C   0  0  0  0  0  0  0  0  0  0  0  0
    0.1590   -9.1291    3.8632 H   0  0  0  0  0  0  0  0  0  0  0  0
    1.4533   -8.9423    2.6695 H   0  0  0  0  0  0  0  0  0  0  0  0
   -0.2112   -9.1716    2.1378 H   0  0  0  0  0  0  0  0  0  0  0  0
    0.2191   -4.6953    3.2724 H   0  0  0  0  0  0  0  0  0  0  0  0
    3.0082   -5.0330    4.4309 H   0  0  0  0  0  0  0  0  0  0  0  0
    2.6142   -4.7794    2.7500 H   0  0  0  0  0  0  0  0  0  0  0  0
    3.3097   -2.6647    3.8775 H   0  0  0  0  0  0  0  0  0  0  0  0
    1.7177   -2.5545    3.1735 H   0  0  0  0  0  0  0  0  0  0  0  0
    3.6076   -2.4995    6.4266 H   0  0  0  0  0  0  0  0  0  0  0  0
    2.8348   -4.0578    6.5014 H   0  0  0  0  0  0  0  0  0  0  0  0
    2.2167   -2.7381    7.4741 H   0  0  0  0  0  0  0  0  0  0  0  0
   -1.8621   -0.9818    4.9764 H   0  0  0  0  0  0  0  0  0  0  0  0
   -1.0771   -0.7688    6.5177 H   0  0  0  0  0  0  0  0  0  0  0  0
    0.1727   -0.8049    3.7395 H   0  0  0  0  0  0  0  0  0  0  0  0
    1.4735   -0.7425    6.4770 H   0  0  0  0  0  0  0  0  0  0  0  0
    3.6621   -0.4364    5.4762 H   0  0  0  0  0  0  0  0  0  0  0  0
    3.0040   -0.4577    3.8657 H   0  0  0  0  0  0  0  0  0  0  0  0
    2.5326    1.6575    5.9963 H   0  0  0  0  0  0  0  0  0  0  0  0
    3.4432    1.8384    4.5174 H   0  0  0  0  0  0  0  0  0  0  0  0
    0.5015    1.8219    2.1593 H   0  0  0  0  0  0  0  0  0  0  0  0
    1.5254    0.4338    2.4628 H   0  0  0  0  0  0  0  0  0  0  0  0
    2.2405    2.0229    2.2686 H   0  0  0  0  0  0  0  0  0  0  0  0
    1.0078    3.4632    5.5274 H   0  0  0  0  0  0  0  0  0  0  0  0
    3.3913    5.2273    2.0894 H   0  0  0  0  0  0  0  0  0  0  0  0
    4.1842    6.1389    3.3834 H   0  0  0  0  0  0  0  0  0  0  0  0
    2.5281    6.5450    2.8950 H   0  0  0  0  0  0  0  0  0  0  0  0
   -1.1560    3.9065    4.9427 H   0  0  0  0  0  0  0  0  0  0  0  0
   -0.9112    3.5616    3.2289 H   0  0  0  0  0  0  0  0  0  0  0  0
   -1.9508    1.6836    5.1412 H   0  0  0  0  0  0  0  0  0  0  0  0
   -1.4816    1.3598    3.4709 H   0  0  0  0  0  0  0  0  0  0  0  0
    0.1890    1.2557    5.9719 H   0  0  0  0  0  0  0  0  0  0  0  0
   -0.6512   -5.1616    5.5182 H   0  0  0  0  0  0  0  0  0  0  0  0
    0.9614   -5.1940    6.1847 H   0  0  0  0  0  0  0  0  0  0  0  0
  1  2  1  0
  1 28  1  0
  1 29  1  0
  1 30  1  0
  2  3  2  0
  2  4  1  0
  4  5  1  0
  5 27  1  0
  5  6  1  0
  5 31  1  6
  6  7  1  0
  6 32  1  0
  6 33  1  0
  7  8  1  0
  7 34  1  0
  7 35  1  0
  8 14  1  0
  8  9  1  1
  8 10  1  0
  9 36  1  0
  9 37  1  0
  9 38  1  0
 10 11  2  0
 10 27  1  0
 11 12  1  0
 12 13  1  0
 12 39  1  0
 12 40  1  0
 13 26  1  0
 13 14  1  0
 13 41  1  6
 14 15  1  0
 14 42  1  1
 15 16  1  0
 15 43  1  0
 15 44  1  0
 16 17  1  0
 16 45  1  0
 16 46  1  0
 17 26  1  0
 17 18  1  6
 17 19  1  0
 18 47  1  0
 18 48  1  0
 18 49  1  0
 19 20  1  0
 19 24  1  0
 19 50  1  1
 20 21  1  0
 21 22  1  0
 21 23  2  0
 22 51  1  0
 22 52  1  0
 22 53  1  0
 24 25  1  0
 24 54  1  0
 24 55  1  0
 25 26  1  0
 25 56  1  0
 25 57  1  0
 26 58  1  1
 27 59  1  0
 27 60  1  0
M  END
>  <i_m_ct_stereo_status>  (318) 
1

>  <s_m_source_file>  (318) 
/var/tmp/pbs.5076255.sched01/tmp7rmqr72f/92ch8atech.sdf

>  <i_m_source_file_index>  (318) 
30

>  <i_lp_mmshare_version>  (318) 
48012

>  <i_f3d_flags>  (318) 
0

>  <s_epik_input>  (318) 
W0NIM11DKD1PKU9bQ0BIXShbQ0gyXVtDSDJdMSlbQ0gyXUMoW0NAQF0xMltDSDNdKT1OW0NIMl1bQ0BASF0zW0NAQEhdMltDSDJdW0NIMl1bQ0BAXTQoW0NIM10pW0NASF0zW0NIMl1bQ0gyXVtDQEBIXTRPQyg9TylbQ0gzXQ==

>  <s_epik_cmdline>  (318) 
J2VwaWtfcHl0aG9uJywgJy1waHQnLCAnMi4wJywgJy1waCcsICc3LjAnLCAnLXRuJywgJzgnLCAnLW1hJywgJzIwMCcsICctaW1hZScsICc8aW5maWxlLm1hZT4nLCAnLW9tYWUnLCAnPG91dGZpbGUubWFlPic=

>  <r_lp_tautomer_probability>  (318) 
0.999992

>  <r_epik_Ionization_Penalty>  (318) 
0.864369

>  <r_epik_Ionization_Penalty_Charging>  (318) 
0

>  <r_epik_Ionization_Penalty_Neutral>  (318) 
0.864369

>  <r_epik_State_Penalty>  (318) 
0.901133

>  <r_epik_Charging_Adjusted_Penalty>  (318) 
0.901133

>  <i_epik_Tot_Q>  (318) 
0

>  <i_epik_Tot_abs_Q>  (318) 
0

>  <s_epik_Chemistry_Notes>  (318) 
This compound has an ester and may undergo hydrolysis at high or low pH. This compound has an imine and may undergo hydrolysis.

>  <s_lp_Force_Field>  (318) 
OPLS3e

>  <r_lp_Energy>  (318) 
34.0134

>  <b_lp_Chiralities_Consistent>  (318) 
1

>  <s_lp_Variant>  (318) 
82:0-2

>  <s_i_glide_gridfile>  (318) 
pfpi4k_grid

>  <i_i_glide_lignum>  (318) 
30

>  <i_i_glide_rotatable_bonds>  (318) 
4

>  <r_i_docking_score>  (318) 
-2.75197

>  <r_i_glide_ligand_efficiency>  (318) 
-0.101925

>  <r_i_glide_ligand_efficiency_sa>  (318) 
-0.305774

>  <r_i_glide_ligand_efficiency_ln>  (318) 
-0.640612

>  <r_i_glide_gscore>  (318) 
-2.75197

>  <r_i_glide_lipo>  (318) 
-0.0617938

>  <r_i_glide_hbond>  (318) 
-0.16

>  <r_i_glide_metal>  (318) 
-0

>  <r_i_glide_rewards>  (318) 
-0.848852

>  <r_i_glide_evdw>  (318) 
-24.7238

>  <r_i_glide_ecoul>  (318) 
-4.33827

>  <r_i_glide_erotb>  (318) 
0.27443

>  <r_i_glide_esite>  (318) 
-0.0688186

>  <r_i_glide_emodel>  (318) 
-35.4222

>  <r_i_glide_energy>  (318) 
-29.0621

>  <r_i_glide_einternal>  (318) 
0.545166

>  <r_i_glide_intrahb_reward>  (318) 
-0

>  <i_i_glide_confnum>  (318) 
4

>  <i_i_glide_posenum>  (318) 
15

>  <r_i_glide_eff_state_penalty>  (318) 
0

>  <ligand_id>  (318) 
82

>  <original_smiles>  (318) 
CC(=O)OC1CCC2(C)C(=NCC3C2CCC2(C)C(OC(C)=O)CCC32)C1

>  <smiles>  (318) 
[H]C([H])([H])C(=O)OC1([H])C([H])([H])C2=NC([H])([H])C3([H])C([H])(C([H])([H])C([H])([H])C4(C([H])([H])[H])C([H])(OC(=O)C([H])([H])[H])C([H])([H])C([H])([H])C34[H])C2(C([H])([H])[H])C([H])([H])C1([H])[H]

$$$$
83:0:0
     RDKit          3D

 64 70  0  0  1  0  0  0  0  0999 V2000
    2.9762   -2.7113   -1.8710 C   0  0  0  0  0  0  0  0  0  0  0  0
    2.6831   -3.6124   -0.8147 O   0  0  0  0  0  0  0  0  0  0  0  0
    3.7359   -4.2141   -0.1576 C   0  0  0  0  0  0  0  0  0  0  0  0
    5.0861   -3.7409   -0.1948 C   0  0  0  0  0  0  0  0  0  0  0  0
    6.1409   -4.4044    0.5008 C   0  0  0  0  0  0  0  0  0  0  0  0
    5.8631   -5.5807    1.2388 C   0  0  0  0  0  0  0  0  0  0  0  0
    4.5095   -5.9619    1.2315 C   0  0  0  0  0  0  0  0  0  0  0  0
    3.4407   -5.3631    0.6099 C   0  0  0  0  0  0  0  0  0  0  0  0
    2.2530   -6.0296    0.7930 O   0  0  0  0  0  0  0  0  0  0  0  0
    2.4889   -7.0081    1.8272 C   0  0  1  0  0  0  0  0  0  0  0  0
    1.5916   -8.2760    1.6781 C   0  0  0  0  0  0  0  0  0  0  0  0
    1.4509   -9.0772    2.8963 N   0  0  0  0  0  0  0  0  0  0  0  0
    0.4513   -8.9970    3.7844 C   0  0  0  0  0  0  0  0  0  0  0  0
   -0.4585   -8.1716    3.7868 O   0  0  0  0  0  0  0  0  0  0  0  0
    0.6912   -9.9456    4.7043 N   0  0  0  0  0  0  0  0  0  0  0  0
    0.1315   -9.9285    6.0555 C   0  0  0  0  0  0  0  0  0  0  0  0
    1.1372   -9.2513    7.0076 C   0  0  0  0  0  0  0  0  0  0  0  0
    1.0816   -9.8411    8.2722 O   0  0  0  0  0  0  0  0  0  0  0  0
    1.6964  -10.7483    4.3301 C   0  0  0  0  0  0  0  0  0  0  0  0
    2.1001  -11.7579    4.8972 O   0  0  0  0  0  0  0  0  0  0  0  0
    2.2820  -10.1670    3.2811 N   0  0  0  0  0  0  0  0  0  0  0  0
    3.6153  -10.4870    2.7325 C   0  0  0  0  0  0  0  0  0  0  0  0
    4.9249   -9.9139    3.4483 C   0  0  2  0  0  0  0  0  0  0  0  0
    4.6710   -9.2004    4.7785 C   0  0  0  0  0  0  0  0  0  0  0  0
    4.0743   -7.8029    4.5412 C   0  0  1  0  0  0  0  0  0  0  0  0
    4.2473   -6.9494    5.8147 C   0  0  0  0  0  0  0  0  0  0  0  0
    4.6936   -7.1276    3.2803 C   0  0  1  0  0  0  0  0  0  0  0  0
    6.1203   -7.5599    3.0371 C   0  0  2  0  0  0  0  0  0  0  0  0
    6.7983   -6.5251    2.0459 C   0  0  0  0  0  0  0  0  0  0  0  0
    6.0027   -9.0807    2.6223 C   0  0  2  0  0  0  0  0  0  0  0  0
    5.7423   -9.1726    1.1334 C   0  0  0  0  0  0  0  0  0  0  0  0
    4.5666   -8.2613    0.7541 C   0  0  0  0  0  0  0  0  0  0  0  0
    4.0358   -7.2250    1.8496 C   0  0  2  0  0  0  0  0  0  0  0  0
    2.0489   -2.3617   -2.3209 H   0  0  0  0  0  0  0  0  0  0  0  0
    3.5435   -3.2049   -2.6584 H   0  0  0  0  0  0  0  0  0  0  0  0
    3.5170   -1.8314   -1.5272 H   0  0  0  0  0  0  0  0  0  0  0  0
    5.3347   -2.8570   -0.7532 H   0  0  0  0  0  0  0  0  0  0  0  0
    7.1475   -4.0199    0.4564 H   0  0  0  0  0  0  0  0  0  0  0  0
    2.1998   -6.4851    2.7403 H   0  0  0  0  0  0  0  0  0  0  0  0
    0.5936   -7.9188    1.4128 H   0  0  0  0  0  0  0  0  0  0  0  0
    1.8547   -8.9365    0.8628 H   0  0  0  0  0  0  0  0  0  0  0  0
   -0.8214   -9.4043    6.1042 H   0  0  0  0  0  0  0  0  0  0  0  0
   -0.1058  -10.9487    6.3603 H   0  0  0  0  0  0  0  0  0  0  0  0
    2.1649   -9.3784    6.6668 H   0  0  0  0  0  0  0  0  0  0  0  0
    0.9596   -8.1762    7.0669 H   0  0  0  0  0  0  0  0  0  0  0  0
    1.2276  -10.7994    8.1175 H   0  0  0  0  0  0  0  0  0  0  0  0
    3.6939  -11.5761    2.7917 H   0  0  0  0  0  0  0  0  0  0  0  0
    3.5547  -10.3466    1.6706 H   0  0  0  0  0  0  0  0  0  0  0  0
    5.4585  -10.8233    3.7286 H   0  0  0  0  0  0  0  0  0  0  0  0
    4.0464   -9.8018    5.4338 H   0  0  0  0  0  0  0  0  0  0  0  0
    5.6188   -9.1137    5.3163 H   0  0  0  0  0  0  0  0  0  0  0  0
    3.0038   -7.8709    4.4201 H   0  0  0  0  0  0  0  0  0  0  0  0
    5.2960   -6.7708    6.0581 H   0  0  0  0  0  0  0  0  0  0  0  0
    3.7939   -7.4434    6.6763 H   0  0  0  0  0  0  0  0  0  0  0  0
    3.7580   -5.9790    5.7129 H   0  0  0  0  0  0  0  0  0  0  0  0
    4.7001   -6.0732    3.5641 H   0  0  0  0  0  0  0  0  0  0  0  0
    6.6816   -7.5206    3.9696 H   0  0  0  0  0  0  0  0  0  0  0  0
    7.5177   -7.0078    1.3824 H   0  0  0  0  0  0  0  0  0  0  0  0
    7.3908   -5.8548    2.6638 H   0  0  0  0  0  0  0  0  0  0  0  0
    6.9735   -9.5446    2.8005 H   0  0  0  0  0  0  0  0  0  0  0  0
    6.6422   -8.8948    0.5888 H   0  0  0  0  0  0  0  0  0  0  0  0
    5.5622  -10.2062    0.8324 H   0  0  0  0  0  0  0  0  0  0  0  0
    4.8771   -7.7393   -0.1526 H   0  0  0  0  0  0  0  0  0  0  0  0
    3.7994   -8.8757    0.3142 H   0  0  0  0  0  0  0  0  0  0  0  0
  1  2  1  0
  1 34  1  0
  1 35  1  0
  1 36  1  0
  2  3  1  0
  3  8  2  0
  3  4  1  0
  4  5  2  0
  4 37  1  0
  5  6  1  0
  5 38  1  0
  6 29  1  0
  6  7  2  0
  7 33  1  0
  7  8  1  0
  8  9  1  0
  9 10  1  0
 10 33  1  0
 10 11  1  0
 10 39  1  1
 11 12  1  0
 11 40  1  0
 11 41  1  0
 12 21  1  0
 12 13  1  0
 13 14  2  0
 13 15  1  0
 15 16  1  0
 15 19  1  0
 16 17  1  0
 16 42  1  0
 16 43  1  0
 17 18  1  0
 17 44  1  0
 17 45  1  0
 18 46  1  0
 19 20  2  0
 19 21  1  0
 21 22  1  0
 22 23  1  0
 22 47  1  0
 22 48  1  0
 23 30  1  0
 23 24  1  0
 23 49  1  1
 24 25  1  0
 24 50  1  0
 24 51  1  0
 25 26  1  0
 25 27  1  0
 25 52  1  6
 26 53  1  0
 26 54  1  0
 26 55  1  0
 27 33  1  0
 27 28  1  0
 27 56  1  1
 28 29  1  0
 28 30  1  0
 28 57  1  1
 29 58  1  0
 29 59  1  0
 30 31  1  0
 30 60  1  6
 31 32  1  0
 31 61  1  0
 31 62  1  0
 33 32  1  6
 32 63  1  0
 32 64  1  0
M  END
>  <i_m_ct_stereo_status>  (319) 
1

>  <s_m_source_file>  (319) 
/var/tmp/pbs.5076255.sched01/tmp7rmqr72f/92ch8atech.sdf

>  <i_m_source_file_index>  (319) 
31

>  <i_lp_mmshare_version>  (319) 
48012

>  <i_f3d_flags>  (319) 
0

>  <s_epik_input>  (319) 
W0NAQF0xMjNjNGM1W2NIXVtjSF1jKE9bQ0gzXSljNE9bQ0BIXTFbQ0gyXW42bihjKD1PKW4oYzY9TylbQ0gyXVtDSDJdW09IXSlbQ0gyXVtDQEhdN1tDQEBIXShbQ0gyXVtDSDJdMylbQ0BASF0oW0NIMl01KVtDQEBIXTJbQ0BASF0oW0NIMl03KVtDSDNd

>  <s_epik_cmdline>  (319) 
J2VwaWtfcHl0aG9uJywgJy1waHQnLCAnMi4wJywgJy1waCcsICc3LjAnLCAnLXRuJywgJzgnLCAnLW1hJywgJzIwMCcsICctaW1hZScsICc8aW5maWxlLm1hZT4nLCAnLW9tYWUnLCAnPG91dGZpbGUubWFlPic=

>  <r_lp_tautomer_probability>  (319) 
1

>  <r_epik_Ionization_Penalty>  (319) 
1.00056e-06

>  <r_epik_Ionization_Penalty_Charging>  (319) 
8.12202e-07

>  <r_epik_Ionization_Penalty_Neutral>  (319) 
1.88363e-07

>  <r_epik_State_Penalty>  (319) 
-0

>  <r_epik_Charging_Adjusted_Penalty>  (319) 
8.12202e-07

>  <i_epik_Tot_Q>  (319) 
0

>  <i_epik_Tot_abs_Q>  (319) 
0

>  <s_lp_Force_Field>  (319) 
OPLS3e

>  <r_lp_Energy>  (319) 
99.3738

>  <b_lp_Chiralities_Consistent>  (319) 
1

>  <s_lp_Variant>  (319) 
83:0-1

>  <s_i_glide_gridfile>  (319) 
pfpi4k_grid

>  <i_i_glide_lignum>  (319) 
31

>  <i_i_glide_rotatable_bonds>  (319) 
4

>  <r_i_docking_score>  (319) 
-3.21002

>  <r_i_glide_ligand_efficiency>  (319) 
-0.0972733

>  <r_i_glide_ligand_efficiency_sa>  (319) 
-0.312007

>  <r_i_glide_ligand_efficiency_ln>  (319) 
-0.713892

>  <r_i_glide_gscore>  (319) 
-3.21002

>  <r_i_glide_lipo>  (319) 
-0.398213

>  <r_i_glide_hbond>  (319) 
-0.16

>  <r_i_glide_metal>  (319) 
-0

>  <r_i_glide_rewards>  (319) 
-0.341386

>  <r_i_glide_evdw>  (319) 
-29.573

>  <r_i_glide_ecoul>  (319) 
-6.15693

>  <r_i_glide_erotb>  (319) 
0.195186

>  <r_i_glide_esite>  (319) 
-0.103418

>  <r_i_glide_emodel>  (319) 
-41.7536

>  <r_i_glide_energy>  (319) 
-35.7299

>  <r_i_glide_einternal>  (319) 
2.28298

>  <r_i_glide_intrahb_reward>  (319) 
-0

>  <i_i_glide_confnum>  (319) 
1

>  <i_i_glide_posenum>  (319) 
33

>  <r_i_glide_eff_state_penalty>  (319) 
0

>  <ligand_id>  (319) 
83

>  <original_smiles>  (319) 
COc1ccc2c3c1OC1Cn4c(=O)n(CCO)c(=O)n4CC4CC(C)C5C(C2)C4CCC315

>  <smiles>  (319) 
[H]OC([H])([H])C([H])([H])n1c(=O)n2n(c1=O)C([H])([H])C1([H])C([H])([H])C([H])(C([H])([H])[H])C3([H])C4([H])C([H])([H])c5c([H])c([H])c(OC([H])([H])[H])c6c5C3(C([H])([H])C([H])([H])C14[H])C([H])(O6)C2([H])[H]

$$$$
83:0:1
     RDKit          3D

 64 70  0  0  1  0  0  0  0  0999 V2000
   -1.5950   -8.9304    3.3332 C   0  0  0  0  0  0  0  0  0  0  0  0
   -0.8818   -7.7184    3.5074 O   0  0  0  0  0  0  0  0  0  0  0  0
    0.3532   -7.6055    2.9047 C   0  0  0  0  0  0  0  0  0  0  0  0
    0.9860   -8.6424    2.1577 C   0  0  0  0  0  0  0  0  0  0  0  0
    2.2547   -8.4638    1.5325 C   0  0  0  0  0  0  0  0  0  0  0  0
    2.9210   -7.2247    1.6569 C   0  0  0  0  0  0  0  0  0  0  0  0
    2.2297   -6.2584    2.4014 C   0  0  0  0  0  0  0  0  0  0  0  0
    1.0101   -6.3656    3.0275 C   0  0  0  0  0  0  0  0  0  0  0  0
    0.6539   -5.2345    3.7122 O   0  0  0  0  0  0  0  0  0  0  0  0
    1.5732   -4.1962    3.3155 C   0  0  1  0  0  0  0  0  0  0  0  0
    1.8119   -3.1395    4.4352 C   0  0  0  0  0  0  0  0  0  0  0  0
    2.3514   -1.8606    3.9553 N   0  0  0  0  0  0  0  0  0  0  0  0
    1.6511   -0.7606    3.6334 C   0  0  0  0  0  0  0  0  0  0  0  0
    0.4221   -0.6515    3.6214 O   0  0  0  0  0  0  0  0  0  0  0  0
    2.5442    0.1846    3.3071 N   0  0  0  0  0  0  0  0  0  0  0  0
    2.2257    1.3686    2.4859 C   0  0  0  0  0  0  0  0  0  0  0  0
    1.5276    2.5249    3.2098 C   0  0  0  0  0  0  0  0  0  0  0  0
    1.8212    3.7097    2.4944 O   0  0  0  0  0  0  0  0  0  0  0  0
    3.8015   -0.2227    3.5809 C   0  0  0  0  0  0  0  0  0  0  0  0
    4.8364    0.4328    3.5372 O   0  0  0  0  0  0  0  0  0  0  0  0
    3.7278   -1.5320    3.8490 N   0  0  0  0  0  0  0  0  0  0  0  0
    4.8628   -2.4797    3.8671 C   0  0  0  0  0  0  0  0  0  0  0  0
    5.4286   -3.0458    2.4832 C   0  0  2  0  0  0  0  0  0  0  0  0
    4.8356   -2.4078    1.2271 C   0  0  0  0  0  0  0  0  0  0  0  0
    3.4200   -2.9403    0.9686 C   0  0  1  0  0  0  0  0  0  0  0  0
    3.0441   -2.6693   -0.4977 C   0  0  0  0  0  0  0  0  0  0  0  0
    3.3052   -4.4500    1.3359 C   0  0  1  0  0  0  0  0  0  0  0  0
    4.6047   -5.1962    1.1353 C   0  0  2  0  0  0  0  0  0  0  0  0
    4.2968   -6.7476    1.0975 C   0  0  0  0  0  0  0  0  0  0  0  0
    5.5609   -4.6163    2.2527 C   0  0  2  0  0  0  0  0  0  0  0  0
    5.3358   -5.3857    3.5403 C   0  0  0  0  0  0  0  0  0  0  0  0
    3.8396   -5.4244    3.8739 C   0  0  0  0  0  0  0  0  0  0  0  0
    2.8146   -4.9444    2.7502 C   0  0  2  0  0  0  0  0  0  0  0  0
   -2.5042   -8.8999    3.9291 H   0  0  0  0  0  0  0  0  0  0  0  0
   -1.0195   -9.7978    3.6568 H   0  0  0  0  0  0  0  0  0  0  0  0
   -1.8887   -9.0608    2.2932 H   0  0  0  0  0  0  0  0  0  0  0  0
    0.5030   -9.5947    2.0361 H   0  0  0  0  0  0  0  0  0  0  0  0
    2.6818   -9.2744    0.9568 H   0  0  0  0  0  0  0  0  0  0  0  0
    1.0663   -3.6986    2.4914 H   0  0  0  0  0  0  0  0  0  0  0  0
    0.8286   -2.9212    4.8569 H   0  0  0  0  0  0  0  0  0  0  0  0
    2.3842   -3.4925    5.2874 H   0  0  0  0  0  0  0  0  0  0  0  0
    3.1403    1.7444    2.0324 H   0  0  0  0  0  0  0  0  0  0  0  0
    1.6081    1.0563    1.6435 H   0  0  0  0  0  0  0  0  0  0  0  0
    0.4519    2.3699    3.2654 H   0  0  0  0  0  0  0  0  0  0  0  0
    1.9071    2.6510    4.2235 H   0  0  0  0  0  0  0  0  0  0  0  0
    1.1556    3.8645    1.8094 H   0  0  0  0  0  0  0  0  0  0  0  0
    5.6887   -1.9180    4.3114 H   0  0  0  0  0  0  0  0  0  0  0  0
    4.6770   -3.1985    4.6466 H   0  0  0  0  0  0  0  0  0  0  0  0
    6.4568   -2.6893    2.4745 H   0  0  0  0  0  0  0  0  0  0  0  0
    4.8446   -1.3209    1.2927 H   0  0  0  0  0  0  0  0  0  0  0  0
    5.4810   -2.6343    0.3751 H   0  0  0  0  0  0  0  0  0  0  0  0
    2.7011   -2.3699    1.5364 H   0  0  0  0  0  0  0  0  0  0  0  0
    3.6913   -3.1925   -1.2028 H   0  0  0  0  0  0  0  0  0  0  0  0
    3.1083   -1.6006   -0.7095 H   0  0  0  0  0  0  0  0  0  0  0  0
    2.0196   -2.9830   -0.6961 H   0  0  0  0  0  0  0  0  0  0  0  0
    2.5908   -4.8141    0.5944 H   0  0  0  0  0  0  0  0  0  0  0  0
    5.0354   -4.9263    0.1690 H   0  0  0  0  0  0  0  0  0  0  0  0
    5.1089   -7.3275    1.5391 H   0  0  0  0  0  0  0  0  0  0  0  0
    4.2845   -7.0164    0.0411 H   0  0  0  0  0  0  0  0  0  0  0  0
    6.5878   -4.8066    1.9419 H   0  0  0  0  0  0  0  0  0  0  0  0
    5.7177   -6.4014    3.4400 H   0  0  0  0  0  0  0  0  0  0  0  0
    5.9206   -4.9619    4.3571 H   0  0  0  0  0  0  0  0  0  0  0  0
    3.6437   -6.4578    4.1771 H   0  0  0  0  0  0  0  0  0  0  0  0
    3.6792   -4.9542    4.8300 H   0  0  0  0  0  0  0  0  0  0  0  0
  1  2  1  0
  1 34  1  0
  1 35  1  0
  1 36  1  0
  2  3  1  0
  3  8  2  0
  3  4  1  0
  4  5  2  0
  4 37  1  0
  5  6  1  0
  5 38  1  0
  6 29  1  0
  6  7  2  0
  7 33  1  0
  7  8  1  0
  8  9  1  0
  9 10  1  0
 10 33  1  0
 10 11  1  0
 10 39  1  6
 11 12  1  0
 11 40  1  0
 11 41  1  0
 12 21  1  0
 12 13  1  0
 13 14  2  0
 13 15  1  0
 15 16  1  0
 15 19  1  0
 16 17  1  0
 16 42  1  0
 16 43  1  0
 17 18  1  0
 17 44  1  0
 17 45  1  0
 18 46  1  0
 19 20  2  0
 19 21  1  0
 21 22  1  0
 22 23  1  0
 22 47  1  0
 22 48  1  0
 23 30  1  0
 23 24  1  0
 23 49  1  1
 24 25  1  0
 24 50  1  0
 24 51  1  0
 25 26  1  0
 25 27  1  0
 25 52  1  1
 26 53  1  0
 26 54  1  0
 26 55  1  0
 27 33  1  0
 27 28  1  0
 27 56  1  6
 28 29  1  0
 28 30  1  0
 28 57  1  6
 29 58  1  0
 29 59  1  0
 30 31  1  0
 30 60  1  6
 31 32  1  0
 31 61  1  0
 31 62  1  0
 33 32  1  1
 32 63  1  0
 32 64  1  0
M  END
>  <i_m_ct_stereo_status>  (320) 
1

>  <s_m_source_file>  (320) 
/var/tmp/pbs.5076255.sched01/tmp7rmqr72f/92ch8atech.sdf

>  <i_m_source_file_index>  (320) 
31

>  <i_lp_mmshare_version>  (320) 
48012

>  <i_f3d_flags>  (320) 
0

>  <s_epik_input>  (320) 
W0NAQF0xMjNjNGM1W2NIXVtjSF1jKE9bQ0gzXSljNE9bQ0BIXTFbQ0gyXW42bihjKD1PKW4oYzY9TylbQ0gyXVtDSDJdW09IXSlbQ0gyXVtDQEhdN1tDQEBIXShbQ0gyXVtDSDJdMylbQ0BASF0oW0NIMl01KVtDQEBIXTJbQ0BASF0oW0NIMl03KVtDSDNd

>  <s_epik_cmdline>  (320) 
J2VwaWtfcHl0aG9uJywgJy1waHQnLCAnMi4wJywgJy1waCcsICc3LjAnLCAnLXRuJywgJzgnLCAnLW1hJywgJzIwMCcsICctaW1hZScsICc8aW5maWxlLm1hZT4nLCAnLW9tYWUnLCAnPG91dGZpbGUubWFlPic=

>  <r_lp_tautomer_probability>  (320) 
1

>  <r_epik_Ionization_Penalty>  (320) 
1.00056e-06

>  <r_epik_Ionization_Penalty_Charging>  (320) 
8.12202e-07

>  <r_epik_Ionization_Penalty_Neutral>  (320) 
1.88363e-07

>  <r_epik_State_Penalty>  (320) 
-0

>  <r_epik_Charging_Adjusted_Penalty>  (320) 
8.12202e-07

>  <i_epik_Tot_Q>  (320) 
0

>  <i_epik_Tot_abs_Q>  (320) 
0

>  <s_lp_Force_Field>  (320) 
OPLS3e

>  <r_lp_Energy>  (320) 
99.3738

>  <b_lp_Chiralities_Consistent>  (320) 
1

>  <s_lp_Variant>  (320) 
83:0-1

>  <s_i_glide_gridfile>  (320) 
pfpi4k_grid

>  <i_i_glide_lignum>  (320) 
31

>  <i_i_glide_rotatable_bonds>  (320) 
4

>  <r_i_docking_score>  (320) 
-2.72557

>  <r_i_glide_ligand_efficiency>  (320) 
-0.082593

>  <r_i_glide_ligand_efficiency_sa>  (320) 
-0.26492

>  <r_i_glide_ligand_efficiency_ln>  (320) 
-0.606152

>  <r_i_glide_gscore>  (320) 
-2.72557

>  <r_i_glide_lipo>  (320) 
-0.352767

>  <r_i_glide_hbond>  (320) 
-0.164882

>  <r_i_glide_metal>  (320) 
-0

>  <r_i_glide_rewards>  (320) 
-0.331983

>  <r_i_glide_evdw>  (320) 
-22.7893

>  <r_i_glide_ecoul>  (320) 
-6.16818

>  <r_i_glide_erotb>  (320) 
0.195186

>  <r_i_glide_esite>  (320) 
-0.00643064

>  <r_i_glide_emodel>  (320) 
-32.9271

>  <r_i_glide_energy>  (320) 
-28.9575

>  <r_i_glide_einternal>  (320) 
2.37953

>  <r_i_glide_intrahb_reward>  (320) 
-0

>  <i_i_glide_confnum>  (320) 
1

>  <i_i_glide_posenum>  (320) 
10

>  <r_i_glide_eff_state_penalty>  (320) 
0

>  <ligand_id>  (320) 
83

>  <original_smiles>  (320) 
COc1ccc2c3c1OC1Cn4c(=O)n(CCO)c(=O)n4CC4CC(C)C5C(C2)C4CCC315

>  <smiles>  (320) 
[H]OC([H])([H])C([H])([H])n1c(=O)n2n(c1=O)C([H])([H])C1([H])C([H])([H])C([H])(C([H])([H])[H])C3([H])C4([H])C([H])([H])c5c([H])c([H])c(OC([H])([H])[H])c6c5C3(C([H])([H])C([H])([H])C14[H])C([H])(O6)C2([H])[H]

$$$$
83:0:2
     RDKit          3D

 64 70  0  0  1  0  0  0  0  0999 V2000
    3.7711   -1.4485    0.2701 C   0  0  0  0  0  0  0  0  0  0  0  0
    4.2986   -2.5615   -0.4438 O   0  0  0  0  0  0  0  0  0  0  0  0
    5.0169   -3.4353    0.3280 C   0  0  0  0  0  0  0  0  0  0  0  0
    6.4267   -3.2787    0.4369 C   0  0  0  0  0  0  0  0  0  0  0  0
    7.2395   -4.2244    1.1436 C   0  0  0  0  0  0  0  0  0  0  0  0
    6.6405   -5.3588    1.7450 C   0  0  0  0  0  0  0  0  0  0  0  0
    5.2417   -5.4114    1.5966 C   0  0  0  0  0  0  0  0  0  0  0  0
    4.3748   -4.5524    0.9466 C   0  0  0  0  0  0  0  0  0  0  0  0
    3.0848   -4.9517    0.9485 O   0  0  0  0  0  0  0  0  0  0  0  0
    2.9882   -6.0081    1.9291 C   0  0  1  0  0  0  0  0  0  0  0  0
    1.8528   -7.0219    1.6063 C   0  0  0  0  0  0  0  0  0  0  0  0
    1.4356   -7.8503    2.7216 N   0  0  0  0  0  0  0  0  0  0  0  0
    0.3916   -7.6340    3.5057 C   0  0  0  0  0  0  0  0  0  0  0  0
   -0.3412   -6.6326    3.4798 O   0  0  0  0  0  0  0  0  0  0  0  0
    0.3276   -8.6566    4.3642 N   0  0  0  0  0  0  0  0  0  0  0  0
   -0.3379   -8.5985    5.6456 C   0  0  0  0  0  0  0  0  0  0  0  0
    0.6996   -8.4823    6.7947 C   0  0  0  0  0  0  0  0  0  0  0  0
    0.3456   -9.3158    7.8832 O   0  0  0  0  0  0  0  0  0  0  0  0
    1.1443   -9.6528    3.9829 C   0  0  0  0  0  0  0  0  0  0  0  0
    1.2378  -10.7662    4.5067 O   0  0  0  0  0  0  0  0  0  0  0  0
    1.9535   -9.1523    3.0534 N   0  0  0  0  0  0  0  0  0  0  0  0
    3.2309   -9.7209    2.5877 C   0  0  0  0  0  0  0  0  0  0  0  0
    4.5516   -9.5026    3.4668 C   0  0  2  0  0  0  0  0  0  0  0  0
    4.3366   -8.8424    4.8294 C   0  0  0  0  0  0  0  0  0  0  0  0
    4.0800   -7.3341    4.6696 C   0  0  1  0  0  0  0  0  0  0  0  0
    4.3119   -6.6298    6.0256 C   0  0  0  0  0  0  0  0  0  0  0  0
    4.9610   -6.7323    3.5326 C   0  0  1  0  0  0  0  0  0  0  0  0
    6.2716   -7.4608    3.3693 C   0  0  2  0  0  0  0  0  0  0  0  0
    7.2468   -6.5482    2.5311 C   0  0  0  0  0  0  0  0  0  0  0  0
    5.8628   -8.8813    2.8118 C   0  0  2  0  0  0  0  0  0  0  0  0
    5.7381   -8.8049    1.3053 C   0  0  0  0  0  0  0  0  0  0  0  0
    4.8305   -7.6251    0.9178 C   0  0  0  0  0  0  0  0  0  0  0  0
    4.4406   -6.5765    2.0543 C   0  0  2  0  0  0  0  0  0  0  0  0
    3.1232   -0.8733   -0.3982 H   0  0  0  0  0  0  0  0  0  0  0  0
    4.5699   -0.7880    0.6099 H   0  0  0  0  0  0  0  0  0  0  0  0
    3.1670   -1.7518    1.1272 H   0  0  0  0  0  0  0  0  0  0  0  0
    6.8784   -2.4371   -0.0473 H   0  0  0  0  0  0  0  0  0  0  0  0
    8.3042   -4.0804    1.1949 H   0  0  0  0  0  0  0  0  0  0  0  0
    2.7445   -5.4891    2.8563 H   0  0  0  0  0  0  0  0  0  0  0  0
    0.9911   -6.4308    1.2830 H   0  0  0  0  0  0  0  0  0  0  0  0
    2.0463   -7.6941    0.8007 H   0  0  0  0  0  0  0  0  0  0  0  0
   -0.9882   -7.7270    5.6413 H   0  0  0  0  0  0  0  0  0  0  0  0
   -0.9752   -9.4515    5.7864 H   0  0  0  0  0  0  0  0  0  0  0  0
    1.6883   -8.8138    6.4978 H   0  0  0  0  0  0  0  0  0  0  0  0
    0.7945   -7.4461    7.1059 H   0  0  0  0  0  0  0  0  0  0  0  0
    0.6102  -10.1986    7.6648 H   0  0  0  0  0  0  0  0  0  0  0  0
    3.0618  -10.8024    2.5737 H   0  0  0  0  0  0  0  0  0  0  0  0
    3.3136   -9.5236    1.5318 H   0  0  0  0  0  0  0  0  0  0  0  0
    4.8415  -10.5264    3.7124 H   0  0  0  0  0  0  0  0  0  0  0  0
    3.5310   -9.3355    5.3724 H   0  0  0  0  0  0  0  0  0  0  0  0
    5.2145   -9.0075    5.4530 H   0  0  0  0  0  0  0  0  0  0  0  0
    3.0431   -7.1467    4.4617 H   0  0  0  0  0  0  0  0  0  0  0  0
    5.3427   -6.7128    6.3693 H   0  0  0  0  0  0  0  0  0  0  0  0
    3.6737   -7.0657    6.7975 H   0  0  0  0  0  0  0  0  0  0  0  0
    4.0614   -5.5683    5.9699 H   0  0  0  0  0  0  0  0  0  0  0  0
    5.1705   -5.7284    3.9081 H   0  0  0  0  0  0  0  0  0  0  0  0
    6.7320   -7.6135    4.3454 H   0  0  0  0  0  0  0  0  0  0  0  0
    7.9185   -7.1315    1.8937 H   0  0  0  0  0  0  0  0  0  0  0  0
    7.9164   -6.0705    3.2537 H   0  0  0  0  0  0  0  0  0  0  0  0
    6.6822   -9.5685    3.0306 H   0  0  0  0  0  0  0  0  0  0  0  0
    6.7326   -8.6830    0.8830 H   0  0  0  0  0  0  0  0  0  0  0  0
    5.3797   -9.7505    0.8898 H   0  0  0  0  0  0  0  0  0  0  0  0
    5.3369   -7.1217    0.0908 H   0  0  0  0  0  0  0  0  0  0  0  0
    3.9843   -8.0037    0.3664 H   0  0  0  0  0  0  0  0  0  0  0  0
  1  2  1  0
  1 34  1  0
  1 35  1  0
  1 36  1  0
  2  3  1  0
  3  8  2  0
  3  4  1  0
  4  5  2  0
  4 37  1  0
  5  6  1  0
  5 38  1  0
  6 29  1  0
  6  7  2  0
  7 33  1  0
  7  8  1  0
  8  9  1  0
  9 10  1  0
 10 33  1  0
 10 11  1  0
 10 39  1  1
 11 12  1  0
 11 40  1  0
 11 41  1  0
 12 21  1  0
 12 13  1  0
 13 14  2  0
 13 15  1  0
 15 16  1  0
 15 19  1  0
 16 17  1  0
 16 42  1  0
 16 43  1  0
 17 18  1  0
 17 44  1  0
 17 45  1  0
 18 46  1  0
 19 20  2  0
 19 21  1  0
 21 22  1  0
 22 23  1  0
 22 47  1  0
 22 48  1  0
 23 30  1  0
 23 24  1  0
 23 49  1  1
 24 25  1  0
 24 50  1  0
 24 51  1  0
 25 26  1  0
 25 27  1  0
 25 52  1  6
 26 53  1  0
 26 54  1  0
 26 55  1  0
 27 33  1  0
 27 28  1  0
 27 56  1  1
 28 29  1  0
 28 30  1  0
 28 57  1  1
 29 58  1  0
 29 59  1  0
 30 31  1  0
 30 60  1  6
 31 32  1  0
 31 61  1  0
 31 62  1  0
 33 32  1  6
 32 63  1  0
 32 64  1  0
M  END
>  <i_m_ct_stereo_status>  (321) 
1

>  <s_m_source_file>  (321) 
/var/tmp/pbs.5076255.sched01/tmp7rmqr72f/92ch8atech.sdf

>  <i_m_source_file_index>  (321) 
31

>  <i_lp_mmshare_version>  (321) 
48012

>  <i_f3d_flags>  (321) 
0

>  <s_epik_input>  (321) 
W0NAQF0xMjNjNGM1W2NIXVtjSF1jKE9bQ0gzXSljNE9bQ0BIXTFbQ0gyXW42bihjKD1PKW4oYzY9TylbQ0gyXVtDSDJdW09IXSlbQ0gyXVtDQEhdN1tDQEBIXShbQ0gyXVtDSDJdMylbQ0BASF0oW0NIMl01KVtDQEBIXTJbQ0BASF0oW0NIMl03KVtDSDNd

>  <s_epik_cmdline>  (321) 
J2VwaWtfcHl0aG9uJywgJy1waHQnLCAnMi4wJywgJy1waCcsICc3LjAnLCAnLXRuJywgJzgnLCAnLW1hJywgJzIwMCcsICctaW1hZScsICc8aW5maWxlLm1hZT4nLCAnLW9tYWUnLCAnPG91dGZpbGUubWFlPic=

>  <r_lp_tautomer_probability>  (321) 
1

>  <r_epik_Ionization_Penalty>  (321) 
1.00056e-06

>  <r_epik_Ionization_Penalty_Charging>  (321) 
8.12202e-07

>  <r_epik_Ionization_Penalty_Neutral>  (321) 
1.88363e-07

>  <r_epik_State_Penalty>  (321) 
-0

>  <r_epik_Charging_Adjusted_Penalty>  (321) 
8.12202e-07

>  <i_epik_Tot_Q>  (321) 
0

>  <i_epik_Tot_abs_Q>  (321) 
0

>  <s_lp_Force_Field>  (321) 
OPLS3e

>  <r_lp_Energy>  (321) 
99.3738

>  <b_lp_Chiralities_Consistent>  (321) 
1

>  <s_lp_Variant>  (321) 
83:0-1

>  <s_i_glide_gridfile>  (321) 
pfpi4k_grid

>  <i_i_glide_lignum>  (321) 
31

>  <i_i_glide_rotatable_bonds>  (321) 
4

>  <r_i_docking_score>  (321) 
-2.70011

>  <r_i_glide_ligand_efficiency>  (321) 
-0.0818214

>  <r_i_glide_ligand_efficiency_sa>  (321) 
-0.262445

>  <r_i_glide_ligand_efficiency_ln>  (321) 
-0.60049

>  <r_i_glide_gscore>  (321) 
-2.70011

>  <r_i_glide_lipo>  (321) 
-0.527608

>  <r_i_glide_hbond>  (321) 
-0.186645

>  <r_i_glide_metal>  (321) 
-0

>  <r_i_glide_rewards>  (321) 
-0.316836

>  <r_i_glide_evdw>  (321) 
-26.3511

>  <r_i_glide_ecoul>  (321) 
-2.94664

>  <r_i_glide_erotb>  (321) 
0.195186

>  <r_i_glide_esite>  (321) 
-0.10465

>  <r_i_glide_emodel>  (321) 
-29.8335

>  <r_i_glide_energy>  (321) 
-29.2978

>  <r_i_glide_einternal>  (321) 
9.60404

>  <r_i_glide_intrahb_reward>  (321) 
-0

>  <i_i_glide_confnum>  (321) 
1

>  <i_i_glide_posenum>  (321) 
3

>  <r_i_glide_eff_state_penalty>  (321) 
0

>  <ligand_id>  (321) 
83

>  <original_smiles>  (321) 
COc1ccc2c3c1OC1Cn4c(=O)n(CCO)c(=O)n4CC4CC(C)C5C(C2)C4CCC315

>  <smiles>  (321) 
[H]OC([H])([H])C([H])([H])n1c(=O)n2n(c1=O)C([H])([H])C1([H])C([H])([H])C([H])(C([H])([H])[H])C3([H])C4([H])C([H])([H])c5c([H])c([H])c(OC([H])([H])[H])c6c5C3(C([H])([H])C([H])([H])C14[H])C([H])(O6)C2([H])[H]

$$$$
84:0:0
     RDKit          3D

 45 48  0  0  1  0  0  0  0  0999 V2000
    5.3929   -5.9244    0.5667 C   0  0  0  0  0  0  0  0  0  0  0  0
    4.5534   -5.1039    1.2237 C   0  0  0  0  0  0  0  0  0  0  0  0
    3.3022   -5.4240    1.9468 C   0  0  1  0  0  0  0  0  0  0  0  0
    2.9254   -6.7820    1.9356 O   0  0  0  0  0  0  0  0  0  0  0  0
    3.5436   -4.9146    3.2314 O   0  0  0  0  0  0  0  0  0  0  0  0
    4.5581   -3.8903    3.0965 C   0  0  0  0  0  0  0  0  0  0  0  0
    4.5700   -3.6432    1.5752 C   0  0  1  0  0  0  0  0  0  0  0  0
    5.7592   -2.7802    1.0076 C   0  0  0  0  0  0  0  0  0  0  0  0
    5.6596   -2.4453   -0.5291 C   0  0  1  0  0  0  0  0  0  0  0  0
    5.7942   -1.0486   -0.7130 O   0  0  0  0  0  0  0  0  0  0  0  0
    6.8122   -3.0586   -1.3635 C   0  0  0  0  0  0  0  0  0  0  0  0
    8.0831   -2.4833   -1.0945 O   0  0  0  0  0  0  0  0  0  0  0  0
    4.2919   -2.9318   -1.0317 C   0  0  1  0  0  0  0  0  0  0  0  0
    3.2085   -2.2912   -0.1436 C   0  0  1  0  0  0  0  0  0  0  0  0
    3.0811   -2.3202   -1.6668 C   0  0  0  0  0  0  0  0  0  0  0  0
    3.2010   -1.0159   -2.4483 C   0  0  0  0  0  0  0  0  0  0  0  0
    2.0180   -3.1762   -2.3400 C   0  0  0  0  0  0  0  0  0  0  0  0
    3.1202   -3.1501    1.1512 C   0  0  2  0  0  0  0  0  0  0  0  0
    2.4609   -2.1766    2.1747 C   0  0  0  0  0  0  0  0  0  0  0  0
    2.2925   -4.4926    1.2440 C   0  0  1  0  0  0  0  0  0  0  0  0
    1.8532   -5.0538    0.0194 O   0  0  0  0  0  0  0  0  0  0  0  0
    6.3213   -5.5864    0.1494 H   0  0  0  0  0  0  0  0  0  0  0  0
    5.1616   -6.9734    0.4679 H   0  0  0  0  0  0  0  0  0  0  0  0
    3.6395   -7.2914    2.2934 H   0  0  0  0  0  0  0  0  0  0  0  0
    4.3655   -3.0081    3.7090 H   0  0  0  0  0  0  0  0  0  0  0  0
    5.5170   -4.2902    3.4245 H   0  0  0  0  0  0  0  0  0  0  0  0
    5.7736   -1.8441    1.5693 H   0  0  0  0  0  0  0  0  0  0  0  0
    6.7147   -3.2506    1.2386 H   0  0  0  0  0  0  0  0  0  0  0  0
    5.0897   -0.6080   -0.2666 H   0  0  0  0  0  0  0  0  0  0  0  0
    6.8847   -4.1076   -1.1292 H   0  0  0  0  0  0  0  0  0  0  0  0
    6.5998   -2.9815   -2.4289 H   0  0  0  0  0  0  0  0  0  0  0  0
    8.7367   -2.8468   -1.6810 H   0  0  0  0  0  0  0  0  0  0  0  0
    4.2977   -4.0099   -1.1669 H   0  0  0  0  0  0  0  0  0  0  0  0
    3.3751   -1.2602    0.1596 H   0  0  0  0  0  0  0  0  0  0  0  0
    2.2262   -0.5341   -2.5330 H   0  0  0  0  0  0  0  0  0  0  0  0
    3.5886   -1.1994   -3.4518 H   0  0  0  0  0  0  0  0  0  0  0  0
    3.8552   -0.2994   -1.9574 H   0  0  0  0  0  0  0  0  0  0  0  0
    1.9379   -2.9426   -3.4048 H   0  0  0  0  0  0  0  0  0  0  0  0
    1.0398   -3.0485   -1.8768 H   0  0  0  0  0  0  0  0  0  0  0  0
    2.2539   -4.2279   -2.2554 H   0  0  0  0  0  0  0  0  0  0  0  0
    1.5327   -1.7756    1.7706 H   0  0  0  0  0  0  0  0  0  0  0  0
    3.0999   -1.3275    2.4178 H   0  0  0  0  0  0  0  0  0  0  0  0
    2.1930   -2.6569    3.1175 H   0  0  0  0  0  0  0  0  0  0  0  0
    1.4246   -4.4103    1.9002 H   0  0  0  0  0  0  0  0  0  0  0  0
    2.6107   -5.1745   -0.5396 H   0  0  0  0  0  0  0  0  0  0  0  0
  1  2  2  0
  1 22  1  0
  1 23  1  0
  2  7  1  0
  2  3  1  0
  3 20  1  0
  3  4  1  1
  3  5  1  0
  4 24  1  0
  5  6  1  0
  7  6  1  1
  6 25  1  0
  6 26  1  0
  7 18  1  0
  7  8  1  0
  8  9  1  0
  8 27  1  0
  8 28  1  0
  9 10  1  1
  9 11  1  0
  9 13  1  0
 10 29  1  0
 11 12  1  0
 11 30  1  0
 11 31  1  0
 12 32  1  0
 13 15  1  0
 13 14  1  0
 13 33  1  1
 14 15  1  0
 14 18  1  0
 14 34  1  1
 15 16  1  0
 15 17  1  0
 16 35  1  0
 16 36  1  0
 16 37  1  0
 17 38  1  0
 17 39  1  0
 17 40  1  0
 18 19  1  1
 18 20  1  0
 19 41  1  0
 19 42  1  0
 19 43  1  0
 20 21  1  0
 20 44  1  1
 21 45  1  0
M  END
>  <i_m_ct_stereo_status>  (322) 
1

>  <s_m_source_file>  (322) 
/var/tmp/pbs.5076255.sched01/tmp7rmqr72f/92ch8atech.sdf

>  <i_m_source_file_index>  (322) 
32

>  <i_lp_mmshare_version>  (322) 
48012

>  <i_f3d_flags>  (322) 
0

>  <s_epik_input>  (322) 
W0NIMl09QzFbQ0BAXShbT0hdKShPW0NIMl0yKVtDQEhdKFtPSF0pW0NAXShbQ0BdMTIzKShbQ0gzXSlbQ0BIXTRbQ0BASF0oQzQoW0NIM10pW0NIM10pW0NAXShbQ0gyXTMpKFtPSF0pW0NIMl1bT0hd

>  <s_epik_cmdline>  (322) 
J2VwaWtfcHl0aG9uJywgJy1waHQnLCAnMi4wJywgJy1waCcsICc3LjAnLCAnLXRuJywgJzgnLCAnLW1hJywgJzIwMCcsICctaW1hZScsICc8aW5maWxlLm1hZT4nLCAnLW9tYWUnLCAnPG91dGZpbGUubWFlPic=

>  <r_lp_tautomer_probability>  (322) 
1

>  <r_epik_Ionization_Penalty>  (322) 
9.33671e-07

>  <r_epik_Ionization_Penalty_Charging>  (322) 
0

>  <r_epik_Ionization_Penalty_Neutral>  (322) 
9.33671e-07

>  <r_epik_State_Penalty>  (322) 
-0

>  <r_epik_Charging_Adjusted_Penalty>  (322) 
0

>  <i_epik_Tot_Q>  (322) 
0

>  <i_epik_Tot_abs_Q>  (322) 
0

>  <s_lp_Force_Field>  (322) 
OPLS3e

>  <r_lp_Energy>  (322) 
75.4283

>  <b_lp_Chiralities_Consistent>  (322) 
1

>  <s_lp_Variant>  (322) 
84:0-1

>  <s_i_glide_gridfile>  (322) 
pfpi4k_grid

>  <i_i_glide_lignum>  (322) 
32

>  <i_i_glide_rotatable_bonds>  (322) 
5

>  <r_i_docking_score>  (322) 
-3.85348

>  <r_i_glide_ligand_efficiency>  (322) 
-0.183499

>  <r_i_glide_ligand_efficiency_sa>  (322) 
-0.50626

>  <r_i_glide_ligand_efficiency_ln>  (322) 
-0.952765

>  <r_i_glide_gscore>  (322) 
-3.85348

>  <r_i_glide_lipo>  (322) 
-0.438618

>  <r_i_glide_hbond>  (322) 
0

>  <r_i_glide_metal>  (322) 
-0

>  <r_i_glide_rewards>  (322) 
-1.3946

>  <r_i_glide_evdw>  (322) 
-15.7134

>  <r_i_glide_ecoul>  (322) 
-9.20398

>  <r_i_glide_erotb>  (322) 
0.146002

>  <r_i_glide_esite>  (322) 
0

>  <r_i_glide_emodel>  (322) 
-26.9981

>  <r_i_glide_energy>  (322) 
-24.9174

>  <r_i_glide_einternal>  (322) 
6.79452

>  <r_i_glide_intrahb_reward>  (322) 
-0

>  <i_i_glide_confnum>  (322) 
4

>  <i_i_glide_posenum>  (322) 
19

>  <r_i_glide_eff_state_penalty>  (322) 
0

>  <ligand_id>  (322) 
84

>  <original_smiles>  (322) 
C=C1C2(O)OCC13CC(O)(CO)C1C(C1(C)C)C3(C)C2O

>  <smiles>  (322) 
[H]OC([H])([H])C1(O[H])C([H])([H])C23C(=C([H])[H])C(O[H])(OC2([H])[H])C([H])(O[H])C3(C([H])([H])[H])C2([H])C1([H])C2(C([H])([H])[H])C([H])([H])[H]

$$$$
84:0:1
     RDKit          3D

 45 48  0  0  1  0  0  0  0  0999 V2000
    5.4433   -6.1853    1.0585 C   0  0  0  0  0  0  0  0  0  0  0  0
    4.6687   -5.2140    1.5849 C   0  0  0  0  0  0  0  0  0  0  0  0
    3.2789   -5.2801    2.0635 C   0  0  1  0  0  0  0  0  0  0  0  0
    2.6731   -6.5558    1.9422 O   0  0  0  0  0  0  0  0  0  0  0  0
    3.3607   -4.8437    3.3889 O   0  0  0  0  0  0  0  0  0  0  0  0
    4.5408   -4.0046    3.4740 C   0  0  0  0  0  0  0  0  0  0  0  0
    4.8678   -3.7655    1.9826 C   0  0  1  0  0  0  0  0  0  0  0  0
    6.2617   -3.1077    1.6729 C   0  0  0  0  0  0  0  0  0  0  0  0
    6.5289   -2.7669    0.1559 C   0  0  1  0  0  0  0  0  0  0  0  0
    6.9250   -1.4079    0.0883 O   0  0  0  0  0  0  0  0  0  0  0  0
    7.7564   -3.4809   -0.5017 C   0  0  0  0  0  0  0  0  0  0  0  0
    8.1784   -4.6829    0.0958 O   0  0  0  0  0  0  0  0  0  0  0  0
    5.2001   -2.9894   -0.6100 C   0  0  1  0  0  0  0  0  0  0  0  0
    4.0989   -2.1630    0.1103 C   0  0  1  0  0  0  0  0  0  0  0  0
    4.2369   -2.1549   -1.4089 C   0  0  0  0  0  0  0  0  0  0  0  0
    4.6853   -0.8787   -2.1013 C   0  0  0  0  0  0  0  0  0  0  0  0
    3.1890   -2.7972   -2.2981 C   0  0  0  0  0  0  0  0  0  0  0  0
    3.6270   -3.0090    1.3339 C   0  0  2  0  0  0  0  0  0  0  0  0
    2.9653   -1.9432    2.2602 C   0  0  0  0  0  0  0  0  0  0  0  0
    2.5809   -4.1806    1.2269 C   0  0  1  0  0  0  0  0  0  0  0  0
    2.2824   -4.5996   -0.0852 O   0  0  0  0  0  0  0  0  0  0  0  0
    6.4751   -6.0374    0.8235 H   0  0  0  0  0  0  0  0  0  0  0  0
    4.9942   -7.1668    0.9019 H   0  0  0  0  0  0  0  0  0  0  0  0
    3.2657   -7.1851    2.3086 H   0  0  0  0  0  0  0  0  0  0  0  0
    4.4002   -3.0974    4.0690 H   0  0  0  0  0  0  0  0  0  0  0  0
    5.3571   -4.5572    3.9442 H   0  0  0  0  0  0  0  0  0  0  0  0
    6.3012   -2.1803    2.2522 H   0  0  0  0  0  0  0  0  0  0  0  0
    7.0484   -3.7352    2.0807 H   0  0  0  0  0  0  0  0  0  0  0  0
    6.3034   -0.8904    0.5775 H   0  0  0  0  0  0  0  0  0  0  0  0
    7.5581   -3.6245   -1.5633 H   0  0  0  0  0  0  0  0  0  0  0  0
    8.6441   -2.8395   -0.4722 H   0  0  0  0  0  0  0  0  0  0  0  0
    8.0763   -4.6015    1.0283 H   0  0  0  0  0  0  0  0  0  0  0  0
    5.0303   -4.0557   -0.7807 H   0  0  0  0  0  0  0  0  0  0  0  0
    4.3733   -1.1699    0.4792 H   0  0  0  0  0  0  0  0  0  0  0  0
    3.8183   -0.2641   -2.3482 H   0  0  0  0  0  0  0  0  0  0  0  0
    5.1915   -1.1355   -3.0305 H   0  0  0  0  0  0  0  0  0  0  0  0
    5.3512   -0.2878   -1.4753 H   0  0  0  0  0  0  0  0  0  0  0  0
    3.3388   -2.5553   -3.3521 H   0  0  0  0  0  0  0  0  0  0  0  0
    2.1942   -2.4689   -1.9992 H   0  0  0  0  0  0  0  0  0  0  0  0
    3.2475   -3.8714   -2.2177 H   0  0  0  0  0  0  0  0  0  0  0  0
    2.1984   -1.3980    1.7105 H   0  0  0  0  0  0  0  0  0  0  0  0
    3.6798   -1.2125    2.6437 H   0  0  0  0  0  0  0  0  0  0  0  0
    2.4577   -2.3811    3.1225 H   0  0  0  0  0  0  0  0  0  0  0  0
    1.6504   -3.9358    1.7353 H   0  0  0  0  0  0  0  0  0  0  0  0
    3.0873   -4.9084   -0.4841 H   0  0  0  0  0  0  0  0  0  0  0  0
  1  2  2  0
  1 22  1  0
  1 23  1  0
  2  7  1  0
  2  3  1  0
  3 20  1  0
  3  4  1  1
  3  5  1  0
  4 24  1  0
  5  6  1  0
  7  6  1  1
  6 25  1  0
  6 26  1  0
  7 18  1  0
  7  8  1  0
  8  9  1  0
  8 27  1  0
  8 28  1  0
  9 10  1  1
  9 11  1  0
  9 13  1  0
 10 29  1  0
 11 12  1  0
 11 30  1  0
 11 31  1  0
 12 32  1  0
 13 15  1  0
 13 14  1  0
 13 33  1  6
 14 15  1  0
 14 18  1  0
 14 34  1  1
 15 16  1  0
 15 17  1  0
 16 35  1  0
 16 36  1  0
 16 37  1  0
 17 38  1  0
 17 39  1  0
 17 40  1  0
 18 19  1  1
 18 20  1  0
 19 41  1  0
 19 42  1  0
 19 43  1  0
 20 21  1  0
 20 44  1  1
 21 45  1  0
M  END
>  <i_m_ct_stereo_status>  (323) 
1

>  <s_m_source_file>  (323) 
/var/tmp/pbs.5076255.sched01/tmp7rmqr72f/92ch8atech.sdf

>  <i_m_source_file_index>  (323) 
32

>  <i_lp_mmshare_version>  (323) 
48012

>  <i_f3d_flags>  (323) 
0

>  <s_epik_input>  (323) 
W0NIMl09QzFbQ0BAXShbT0hdKShPW0NIMl0yKVtDQEhdKFtPSF0pW0NAXShbQ0BdMTIzKShbQ0gzXSlbQ0BIXTRbQ0BASF0oQzQoW0NIM10pW0NIM10pW0NAXShbQ0gyXTMpKFtPSF0pW0NIMl1bT0hd

>  <s_epik_cmdline>  (323) 
J2VwaWtfcHl0aG9uJywgJy1waHQnLCAnMi4wJywgJy1waCcsICc3LjAnLCAnLXRuJywgJzgnLCAnLW1hJywgJzIwMCcsICctaW1hZScsICc8aW5maWxlLm1hZT4nLCAnLW9tYWUnLCAnPG91dGZpbGUubWFlPic=

>  <r_lp_tautomer_probability>  (323) 
1

>  <r_epik_Ionization_Penalty>  (323) 
9.33671e-07

>  <r_epik_Ionization_Penalty_Charging>  (323) 
0

>  <r_epik_Ionization_Penalty_Neutral>  (323) 
9.33671e-07

>  <r_epik_State_Penalty>  (323) 
-0

>  <r_epik_Charging_Adjusted_Penalty>  (323) 
0

>  <i_epik_Tot_Q>  (323) 
0

>  <i_epik_Tot_abs_Q>  (323) 
0

>  <s_lp_Force_Field>  (323) 
OPLS3e

>  <r_lp_Energy>  (323) 
75.4283

>  <b_lp_Chiralities_Consistent>  (323) 
1

>  <s_lp_Variant>  (323) 
84:0-1

>  <s_i_glide_gridfile>  (323) 
pfpi4k_grid

>  <i_i_glide_lignum>  (323) 
32

>  <i_i_glide_rotatable_bonds>  (323) 
5

>  <r_i_docking_score>  (323) 
-3.27338

>  <r_i_glide_ligand_efficiency>  (323) 
-0.155875

>  <r_i_glide_ligand_efficiency_sa>  (323) 
-0.430049

>  <r_i_glide_ligand_efficiency_ln>  (323) 
-0.809338

>  <r_i_glide_gscore>  (323) 
-3.27338

>  <r_i_glide_lipo>  (323) 
-0.498471

>  <r_i_glide_hbond>  (323) 
-0.080781

>  <r_i_glide_metal>  (323) 
-0

>  <r_i_glide_rewards>  (323) 
-1.39118

>  <r_i_glide_evdw>  (323) 
-15.9647

>  <r_i_glide_ecoul>  (323) 
-4.7553

>  <r_i_glide_erotb>  (323) 
0.208574

>  <r_i_glide_esite>  (323) 
0

>  <r_i_glide_emodel>  (323) 
-23.2159

>  <r_i_glide_energy>  (323) 
-20.72

>  <r_i_glide_einternal>  (323) 
4.00603

>  <r_i_glide_intrahb_reward>  (323) 
-0

>  <i_i_glide_confnum>  (323) 
1

>  <i_i_glide_posenum>  (323) 
18

>  <r_i_glide_eff_state_penalty>  (323) 
0

>  <ligand_id>  (323) 
84

>  <original_smiles>  (323) 
C=C1C2(O)OCC13CC(O)(CO)C1C(C1(C)C)C3(C)C2O

>  <smiles>  (323) 
[H]OC([H])([H])C1(O[H])C([H])([H])C23C(=C([H])[H])C(O[H])(OC2([H])[H])C([H])(O[H])C3(C([H])([H])[H])C2([H])C1([H])C2(C([H])([H])[H])C([H])([H])[H]

$$$$
84:0:2
     RDKit          3D

 45 48  0  0  1  0  0  0  0  0999 V2000
    5.6350   -5.6342    1.6861 C   0  0  0  0  0  0  0  0  0  0  0  0
    4.6375   -4.8035    2.0100 C   0  0  0  0  0  0  0  0  0  0  0  0
    3.2512   -5.1505    2.3917 C   0  0  1  0  0  0  0  0  0  0  0  0
    2.9380   -6.5100    2.3692 O   0  0  0  0  0  0  0  0  0  0  0  0
    3.1430   -4.5733    3.6714 O   0  0  0  0  0  0  0  0  0  0  0  0
    4.1137   -3.5015    3.7459 C   0  0  0  0  0  0  0  0  0  0  0  0
    4.4915   -3.3277    2.2604 C   0  0  1  0  0  0  0  0  0  0  0  0
    5.7393   -2.4227    1.9461 C   0  0  0  0  0  0  0  0  0  0  0  0
    6.0307   -2.1542    0.4201 C   0  0  1  0  0  0  0  0  0  0  0  0
    6.1446   -0.7485    0.2786 O   0  0  0  0  0  0  0  0  0  0  0  0
    7.4113   -2.6230   -0.1161 C   0  0  0  0  0  0  0  0  0  0  0  0
    7.6449   -4.0082   -0.0518 O   0  0  0  0  0  0  0  0  0  0  0  0
    4.8457   -2.7195   -0.3784 C   0  0  1  0  0  0  0  0  0  0  0  0
    3.5515   -2.0911    0.1982 C   0  0  1  0  0  0  0  0  0  0  0  0
    3.7994   -2.1856   -1.3110 C   0  0  0  0  0  0  0  0  0  0  0  0
    4.0349   -0.9103   -2.1066 C   0  0  0  0  0  0  0  0  0  0  0  0
    2.9835   -3.1260   -2.1731 C   0  0  0  0  0  0  0  0  0  0  0  0
    3.1809   -2.9152    1.4704 C   0  0  2  0  0  0  0  0  0  0  0  0
    2.2316   -1.9474    2.2468 C   0  0  0  0  0  0  0  0  0  0  0  0
    2.4202   -4.2875    1.4154 C   0  0  1  0  0  0  0  0  0  0  0  0
    2.3137   -4.8828    0.1394 O   0  0  0  0  0  0  0  0  0  0  0  0
    6.6543   -5.2784    1.5853 H   0  0  0  0  0  0  0  0  0  0  0  0
    5.4491   -6.6820    1.5642 H   0  0  0  0  0  0  0  0  0  0  0  0
    3.6087   -6.9680    2.8704 H   0  0  0  0  0  0  0  0  0  0  0  0
    3.7328   -2.6029    4.2374 H   0  0  0  0  0  0  0  0  0  0  0  0
    4.9836   -3.8217    4.3235 H   0  0  0  0  0  0  0  0  0  0  0  0
    5.5574   -1.4665    2.4469 H   0  0  0  0  0  0  0  0  0  0  0  0
    6.6047   -2.8284    2.4487 H   0  0  0  0  0  0  0  0  0  0  0  0
    6.8002   -0.4277    0.8855 H   0  0  0  0  0  0  0  0  0  0  0  0
    7.5084   -2.3329   -1.1622 H   0  0  0  0  0  0  0  0  0  0  0  0
    8.2282   -2.1441    0.4247 H   0  0  0  0  0  0  0  0  0  0  0  0
    6.8560   -4.4626   -0.2558 H   0  0  0  0  0  0  0  0  0  0  0  0
    4.9112   -3.8030   -0.4477 H   0  0  0  0  0  0  0  0  0  0  0  0
    3.5976   -1.0390    0.4791 H   0  0  0  0  0  0  0  0  0  0  0  0
    3.0845   -0.5071   -2.4655 H   0  0  0  0  0  0  0  0  0  0  0  0
    4.6747   -1.1075   -2.9685 H   0  0  0  0  0  0  0  0  0  0  0  0
    4.5121   -0.1498   -1.4937 H   0  0  0  0  0  0  0  0  0  0  0  0
    3.1609   -2.9605   -3.2372 H   0  0  0  0  0  0  0  0  0  0  0  0
    1.9164   -3.0038   -1.9741 H   0  0  0  0  0  0  0  0  0  0  0  0
    3.2773   -4.1465   -1.9622 H   0  0  0  0  0  0  0  0  0  0  0  0
    1.4127   -1.6206    1.6052 H   0  0  0  0  0  0  0  0  0  0  0  0
    2.7460   -1.0508    2.5959 H   0  0  0  0  0  0  0  0  0  0  0  0
    1.7607   -2.4098    3.1166 H   0  0  0  0  0  0  0  0  0  0  0  0
    1.4219   -4.2391    1.8455 H   0  0  0  0  0  0  0  0  0  0  0  0
    3.1892   -5.0112   -0.1874 H   0  0  0  0  0  0  0  0  0  0  0  0
  1  2  2  0
  1 22  1  0
  1 23  1  0
  2  7  1  0
  2  3  1  0
  3 20  1  0
  3  4  1  1
  3  5  1  0
  4 24  1  0
  5  6  1  0
  7  6  1  1
  6 25  1  0
  6 26  1  0
  7 18  1  0
  7  8  1  0
  8  9  1  0
  8 27  1  0
  8 28  1  0
  9 10  1  1
  9 11  1  0
  9 13  1  0
 10 29  1  0
 11 12  1  0
 11 30  1  0
 11 31  1  0
 12 32  1  0
 13 15  1  0
 13 14  1  0
 13 33  1  6
 14 15  1  0
 14 18  1  0
 14 34  1  1
 15 16  1  0
 15 17  1  0
 16 35  1  0
 16 36  1  0
 16 37  1  0
 17 38  1  0
 17 39  1  0
 17 40  1  0
 18 19  1  1
 18 20  1  0
 19 41  1  0
 19 42  1  0
 19 43  1  0
 20 21  1  0
 20 44  1  1
 21 45  1  0
M  END
>  <i_m_ct_stereo_status>  (324) 
1

>  <s_m_source_file>  (324) 
/var/tmp/pbs.5076255.sched01/tmp7rmqr72f/92ch8atech.sdf

>  <i_m_source_file_index>  (324) 
32

>  <i_lp_mmshare_version>  (324) 
48012

>  <i_f3d_flags>  (324) 
0

>  <s_epik_input>  (324) 
W0NIMl09QzFbQ0BAXShbT0hdKShPW0NIMl0yKVtDQEhdKFtPSF0pW0NAXShbQ0BdMTIzKShbQ0gzXSlbQ0BIXTRbQ0BASF0oQzQoW0NIM10pW0NIM10pW0NAXShbQ0gyXTMpKFtPSF0pW0NIMl1bT0hd

>  <s_epik_cmdline>  (324) 
J2VwaWtfcHl0aG9uJywgJy1waHQnLCAnMi4wJywgJy1waCcsICc3LjAnLCAnLXRuJywgJzgnLCAnLW1hJywgJzIwMCcsICctaW1hZScsICc8aW5maWxlLm1hZT4nLCAnLW9tYWUnLCAnPG91dGZpbGUubWFlPic=

>  <r_lp_tautomer_probability>  (324) 
1

>  <r_epik_Ionization_Penalty>  (324) 
9.33671e-07

>  <r_epik_Ionization_Penalty_Charging>  (324) 
0

>  <r_epik_Ionization_Penalty_Neutral>  (324) 
9.33671e-07

>  <r_epik_State_Penalty>  (324) 
-0

>  <r_epik_Charging_Adjusted_Penalty>  (324) 
0

>  <i_epik_Tot_Q>  (324) 
0

>  <i_epik_Tot_abs_Q>  (324) 
0

>  <s_lp_Force_Field>  (324) 
OPLS3e

>  <r_lp_Energy>  (324) 
75.4283

>  <b_lp_Chiralities_Consistent>  (324) 
1

>  <s_lp_Variant>  (324) 
84:0-1

>  <s_i_glide_gridfile>  (324) 
pfpi4k_grid

>  <i_i_glide_lignum>  (324) 
32

>  <i_i_glide_rotatable_bonds>  (324) 
5

>  <r_i_docking_score>  (324) 
-2.79668

>  <r_i_glide_ligand_efficiency>  (324) 
-0.133175

>  <r_i_glide_ligand_efficiency_sa>  (324) 
-0.36742

>  <r_i_glide_ligand_efficiency_ln>  (324) 
-0.691472

>  <r_i_glide_gscore>  (324) 
-2.79668

>  <r_i_glide_lipo>  (324) 
-0.257214

>  <r_i_glide_hbond>  (324) 
-0.158351

>  <r_i_glide_metal>  (324) 
-0

>  <r_i_glide_rewards>  (324) 
-1.38846

>  <r_i_glide_evdw>  (324) 
-15.3632

>  <r_i_glide_ecoul>  (324) 
-2.88707

>  <r_i_glide_erotb>  (324) 
0.208574

>  <r_i_glide_esite>  (324) 
0

>  <r_i_glide_emodel>  (324) 
-22.3248

>  <r_i_glide_energy>  (324) 
-18.2503

>  <r_i_glide_einternal>  (324) 
0.235644

>  <r_i_glide_intrahb_reward>  (324) 
-0

>  <i_i_glide_confnum>  (324) 
4

>  <i_i_glide_posenum>  (324) 
1

>  <r_i_glide_eff_state_penalty>  (324) 
0

>  <ligand_id>  (324) 
84

>  <original_smiles>  (324) 
C=C1C2(O)OCC13CC(O)(CO)C1C(C1(C)C)C3(C)C2O

>  <smiles>  (324) 
[H]OC([H])([H])C1(O[H])C([H])([H])C23C(=C([H])[H])C(O[H])(OC2([H])[H])C([H])(O[H])C3(C([H])([H])[H])C2([H])C1([H])C2(C([H])([H])[H])C([H])([H])[H]

$$$$
85:0:0
     RDKit          3D

 46 51  0  0  1  0  0  0  0  0999 V2000
   -4.8347  -11.3210   -7.1866 C   0  0  0  0  0  0  0  0  0  0  0  0
   -6.2310  -10.8590   -7.4428 N   0  0  2  0  0  0  0  0  0  0  0  0
   -7.1388  -11.5135   -6.4511 C   0  0  0  0  0  0  0  0  0  0  0  0
   -8.2938  -10.6002   -5.9955 C   0  0  0  0  0  0  0  0  0  0  0  0
   -8.8951   -9.7585   -7.1229 C   0  0  1  0  0  0  0  0  0  0  0  0
  -10.1808  -10.4891   -7.5558 C   0  0  0  0  0  0  0  0  0  0  0  0
   -9.8321  -11.7676   -8.0916 O   0  0  0  0  0  0  0  0  0  0  0  0
   -9.1386  -11.7263   -9.3424 C   0  0  0  0  0  0  0  0  0  0  0  0
   -7.9693  -10.7122   -9.3502 C   0  0  2  0  0  0  0  0  0  0  0  0
   -6.6269  -11.2915   -8.8181 C   0  0  0  0  0  0  0  0  0  0  0  0
   -8.4322   -9.4671   -8.6102 C   0  0  1  0  0  0  0  0  0  0  0  0
   -9.1834   -8.5006   -9.5526 C   0  0  0  0  0  0  0  0  0  0  0  0
   -8.4041   -7.2035   -9.7961 C   0  0  0  0  0  0  0  0  0  0  0  0
   -8.1618   -6.5253   -8.4629 C   0  0  0  0  0  0  0  0  0  0  0  0
   -8.3374   -5.1368   -8.3111 C   0  0  0  0  0  0  0  0  0  0  0  0
   -8.1839   -4.5295   -7.0525 C   0  0  0  0  0  0  0  0  0  0  0  0
   -7.8288   -5.3198   -5.9469 C   0  0  0  0  0  0  0  0  0  0  0  0
   -7.6944   -4.7488   -4.7154 O   0  0  0  0  0  0  0  0  0  0  0  0
   -7.6362   -6.7088   -6.1024 C   0  0  0  0  0  0  0  0  0  0  0  0
   -7.8099   -7.3309   -7.3587 C   0  0  0  0  0  0  0  0  0  0  0  0
   -7.7164   -8.8356   -7.5490 C   0  0  1  0  0  0  0  0  0  0  0  0
   -6.2853   -9.3574   -7.3471 C   0  0  0  0  0  0  0  0  0  0  0  0
   -4.4885  -11.0364   -6.1916 H   0  0  0  0  0  0  0  0  0  0  0  0
   -4.1315  -10.9037   -7.9055 H   0  0  0  0  0  0  0  0  0  0  0  0
   -4.7602  -12.4079   -7.2523 H   0  0  0  0  0  0  0  0  0  0  0  0
   -7.5465  -12.4465   -6.8476 H   0  0  0  0  0  0  0  0  0  0  0  0
   -6.5732  -11.8241   -5.5702 H   0  0  0  0  0  0  0  0  0  0  0  0
   -9.0639  -11.1781   -5.4873 H   0  0  0  0  0  0  0  0  0  0  0  0
   -7.9005   -9.9073   -5.2484 H   0  0  0  0  0  0  0  0  0  0  0  0
  -10.8156  -10.6480   -6.6934 H   0  0  0  0  0  0  0  0  0  0  0  0
  -10.8093   -9.9298   -8.2360 H   0  0  0  0  0  0  0  0  0  0  0  0
   -8.8040  -12.7312   -9.6085 H   0  0  0  0  0  0  0  0  0  0  0  0
   -9.8629  -11.4312  -10.1067 H   0  0  0  0  0  0  0  0  0  0  0  0
   -7.7867  -10.4488  -10.3924 H   0  0  0  0  0  0  0  0  0  0  0  0
   -5.8435  -10.9800   -9.5020 H   0  0  0  0  0  0  0  0  0  0  0  0
   -6.6273  -12.3822   -8.8916 H   0  0  0  0  0  0  0  0  0  0  0  0
   -9.4644   -8.9838  -10.4878 H   0  0  0  0  0  0  0  0  0  0  0  0
  -10.1130   -8.1883   -9.0786 H   0  0  0  0  0  0  0  0  0  0  0  0
   -7.4454   -7.4166  -10.2704 H   0  0  0  0  0  0  0  0  0  0  0  0
   -8.9584   -6.5421  -10.4591 H   0  0  0  0  0  0  0  0  0  0  0  0
   -8.5866   -4.5193   -9.1531 H   0  0  0  0  0  0  0  0  0  0  0  0
   -8.3122   -3.4635   -6.9500 H   0  0  0  0  0  0  0  0  0  0  0  0
   -7.8531   -3.8155   -4.7012 H   0  0  0  0  0  0  0  0  0  0  0  0
   -7.4088   -7.3030   -5.2286 H   0  0  0  0  0  0  0  0  0  0  0  0
   -5.9188   -9.0359   -6.3711 H   0  0  0  0  0  0  0  0  0  0  0  0
   -5.6392   -8.9101   -8.1057 H   0  0  0  0  0  0  0  0  0  0  0  0
  2  1  1  1
  1 23  1  0
  1 24  1  0
  1 25  1  0
  2 10  1  0
  2 22  1  0
  2  3  1  0
  3  4  1  0
  3 26  1  0
  3 27  1  0
  5  4  1  1
  4 28  1  0
  4 29  1  0
  5 11  1  0
  5 21  1  0
  5  6  1  0
  6  7  1  0
  6 30  1  0
  6 31  1  0
  7  8  1  0
  8  9  1  0
  8 32  1  0
  8 33  1  0
  9 10  1  0
  9 11  1  0
  9 34  1  6
 10 35  1  0
 10 36  1  0
 11 21  1  0
 11 12  1  6
 12 13  1  0
 12 37  1  0
 12 38  1  0
 13 14  1  0
 13 39  1  0
 13 40  1  0
 14 20  2  0
 14 15  1  0
 15 16  2  0
 15 41  1  0
 16 17  1  0
 16 42  1  0
 17 18  1  0
 17 19  2  0
 18 43  1  0
 19 20  1  0
 19 44  1  0
 21 20  1  6
 21 22  1  0
 22 45  1  0
 22 46  1  0
M  CHG  1   2   1
M  END
>  <i_m_ct_stereo_status>  (325) 
1

>  <s_m_source_file>  (325) 
/var/tmp/pbs.5076255.sched01/tmp7rmqr72f/92ch8atech.sdf

>  <i_m_source_file_index>  (325) 
33

>  <i_lp_mmshare_version>  (325) 
48012

>  <i_f3d_flags>  (325) 
0

>  <s_epik_input>  (325) 
W0NIMl0xT1tDSDJdW0NAQEhdMltDSDJdW05AK10oW0NIM10pKFtDSDJdW0NIMl0zKVtDSDJdW0NAXTQoW0NAXTI1W0NAQF0xMzQpYzZjKFtDSDJdW0NIMl01KVtjSF1bY0hdYyhbT0hdKVtjSF02

>  <s_epik_cmdline>  (325) 
J2VwaWtfcHl0aG9uJywgJy1waHQnLCAnMi4wJywgJy1waCcsICc3LjAnLCAnLXRuJywgJzgnLCAnLW1hJywgJzIwMCcsICctaW1hZScsICc8aW5maWxlLm1hZT4nLCAnLW9tYWUnLCAnPG91dGZpbGUubWFlPic=

>  <r_lp_tautomer_probability>  (325) 
1

>  <r_epik_Ionization_Penalty>  (325) 
0.000412093

>  <r_epik_Ionization_Penalty_Charging>  (325) 
0

>  <r_epik_Ionization_Penalty_Neutral>  (325) 
0.000412093

>  <r_epik_State_Penalty>  (325) 
0.000253073

>  <r_epik_Charging_Adjusted_Penalty>  (325) 
0.000253073

>  <i_epik_Tot_Q>  (325) 
1

>  <i_epik_Tot_abs_Q>  (325) 
1

>  <s_lp_Force_Field>  (325) 
OPLS3e

>  <r_lp_Energy>  (325) 
253.378

>  <b_lp_Chiralities_Consistent>  (325) 
1

>  <s_lp_Variant>  (325) 
85:0-1

>  <s_i_glide_gridfile>  (325) 
pfpi4k_grid

>  <i_i_glide_lignum>  (325) 
33

>  <i_i_glide_rotatable_bonds>  (325) 
1

>  <r_i_docking_score>  (325) 
-4.9521

>  <r_i_glide_ligand_efficiency>  (325) 
-0.225095

>  <r_i_glide_ligand_efficiency_sa>  (325) 
-0.630726

>  <r_i_glide_ligand_efficiency_ln>  (325) 
-1.21047

>  <r_i_glide_gscore>  (325) 
-4.9521

>  <r_i_glide_lipo>  (325) 
-2.2171

>  <r_i_glide_hbond>  (325) 
0

>  <r_i_glide_metal>  (325) 
-0

>  <r_i_glide_rewards>  (325) 
-1.6941

>  <r_i_glide_evdw>  (325) 
-20.8477

>  <r_i_glide_ecoul>  (325) 
0.00989597

>  <r_i_glide_erotb>  (325) 
0

>  <r_i_glide_esite>  (325) 
0

>  <r_i_glide_emodel>  (325) 
-29.2496

>  <r_i_glide_energy>  (325) 
-20.8378

>  <r_i_glide_einternal>  (325) 
0.00590447

>  <r_i_glide_intrahb_reward>  (325) 
-0

>  <i_i_glide_confnum>  (325) 
2

>  <i_i_glide_posenum>  (325) 
30

>  <r_i_glide_eff_state_penalty>  (325) 
0

>  <ligand_id>  (325) 
85

>  <original_smiles>  (325) 
C[N+]12CCC34COCC(C1)C31CCc3ccc(O)cc3C41C2

>  <smiles>  (325) 
[H]Oc1c([H])c([H])c2c(c1[H])C13C45C([H])([H])OC([H])([H])C([H])(C14C([H])([H])C2([H])[H])C([H])([H])[N+](C([H])([H])[H])(C([H])([H])C5([H])[H])C3([H])[H]

$$$$
85:0:1
     RDKit          3D

 46 51  0  0  1  0  0  0  0  0999 V2000
   -8.2601  -11.6065  -10.6139 C   0  0  0  0  0  0  0  0  0  0  0  0
   -9.1565  -10.7489   -9.7824 N   0  0  2  0  0  0  0  0  0  0  0  0
   -9.7700  -11.6008   -8.7181 C   0  0  0  0  0  0  0  0  0  0  0  0
   -9.9507  -10.8594   -7.3865 C   0  0  0  0  0  0  0  0  0  0  0  0
  -10.4223   -9.4102   -7.5463 C   0  0  1  0  0  0  0  0  0  0  0  0
  -11.9492   -9.4195   -7.2986 C   0  0  0  0  0  0  0  0  0  0  0  0
  -12.5767  -10.2055   -8.3156 O   0  0  0  0  0  0  0  0  0  0  0  0
  -12.5471   -9.6265   -9.6237 C   0  0  0  0  0  0  0  0  0  0  0  0
  -11.1429   -9.1158  -10.0273 C   0  0  2  0  0  0  0  0  0  0  0  0
  -10.2290  -10.1974  -10.6665 C   0  0  0  0  0  0  0  0  0  0  0  0
  -10.5265   -8.4495   -8.8052 C   0  0  1  0  0  0  0  0  0  0  0  0
  -10.9539   -6.9684   -8.6980 C   0  0  0  0  0  0  0  0  0  0  0  0
   -9.7817   -6.0109   -8.9368 C   0  0  0  0  0  0  0  0  0  0  0  0
   -8.6934   -6.3002   -7.9264 C   0  0  0  0  0  0  0  0  0  0  0  0
   -8.0439   -5.2477   -7.2457 C   0  0  0  0  0  0  0  0  0  0  0  0
   -7.0985   -5.5399   -6.2476 C   0  0  0  0  0  0  0  0  0  0  0  0
   -6.8029   -6.8757   -5.9355 C   0  0  0  0  0  0  0  0  0  0  0  0
   -5.8918   -7.1397   -4.9542 O   0  0  0  0  0  0  0  0  0  0  0  0
   -7.4538   -7.9301   -6.6162 C   0  0  0  0  0  0  0  0  0  0  0  0
   -8.4156   -7.6475   -7.6121 C   0  0  0  0  0  0  0  0  0  0  0  0
   -9.2283   -8.7384   -8.2877 C   0  0  1  0  0  0  0  0  0  0  0  0
   -8.3580   -9.6155   -9.1968 C   0  0  0  0  0  0  0  0  0  0  0  0
   -7.4454  -12.0319  -10.0235 H   0  0  0  0  0  0  0  0  0  0  0  0
   -7.8111  -11.0506  -11.4335 H   0  0  0  0  0  0  0  0  0  0  0  0
   -8.8102  -12.4445  -11.0541 H   0  0  0  0  0  0  0  0  0  0  0  0
  -10.7264  -12.0082   -9.0530 H   0  0  0  0  0  0  0  0  0  0  0  0
   -9.1477  -12.4748   -8.5159 H   0  0  0  0  0  0  0  0  0  0  0  0
  -10.5860  -11.4367   -6.7248 H   0  0  0  0  0  0  0  0  0  0  0  0
   -8.9983  -10.8305   -6.8638 H   0  0  0  0  0  0  0  0  0  0  0  0
  -12.1716   -9.8453   -6.3250 H   0  0  0  0  0  0  0  0  0  0  0  0
  -12.3886   -8.4323   -7.2292 H   0  0  0  0  0  0  0  0  0  0  0  0
  -12.9384  -10.3429  -10.3472 H   0  0  0  0  0  0  0  0  0  0  0  0
  -13.2393   -8.7802   -9.6231 H   0  0  0  0  0  0  0  0  0  0  0  0
  -11.2820   -8.3627  -10.8032 H   0  0  0  0  0  0  0  0  0  0  0  0
   -9.7438   -9.7417  -11.5304 H   0  0  0  0  0  0  0  0  0  0  0  0
  -10.8346  -11.0090  -11.0779 H   0  0  0  0  0  0  0  0  0  0  0  0
  -11.8003   -6.7429   -9.3477 H   0  0  0  0  0  0  0  0  0  0  0  0
  -11.2936   -6.7606   -7.6831 H   0  0  0  0  0  0  0  0  0  0  0  0
   -9.3778   -6.1404   -9.9411 H   0  0  0  0  0  0  0  0  0  0  0  0
  -10.1157   -4.9826   -8.8389 H   0  0  0  0  0  0  0  0  0  0  0  0
   -8.2573   -4.2158   -7.4850 H   0  0  0  0  0  0  0  0  0  0  0  0
   -6.5869   -4.7365   -5.7382 H   0  0  0  0  0  0  0  0  0  0  0  0
   -5.7764   -8.0613   -4.7833 H   0  0  0  0  0  0  0  0  0  0  0  0
   -7.2768   -8.9508   -6.3112 H   0  0  0  0  0  0  0  0  0  0  0  0
   -7.5228  -10.0115   -8.6190 H   0  0  0  0  0  0  0  0  0  0  0  0
   -7.9430   -8.9941   -9.9941 H   0  0  0  0  0  0  0  0  0  0  0  0
  2  1  1  6
  1 23  1  0
  1 24  1  0
  1 25  1  0
  2 10  1  0
  2 22  1  0
  2  3  1  0
  3  4  1  0
  3 26  1  0
  3 27  1  0
  5  4  1  6
  4 28  1  0
  4 29  1  0
  5 11  1  0
  5 21  1  0
  5  6  1  0
  6  7  1  0
  6 30  1  0
  6 31  1  0
  7  8  1  0
  8  9  1  0
  8 32  1  0
  8 33  1  0
  9 10  1  0
  9 11  1  0
  9 34  1  6
 10 35  1  0
 10 36  1  0
 11 21  1  0
 11 12  1  1
 12 13  1  0
 12 37  1  0
 12 38  1  0
 13 14  1  0
 13 39  1  0
 13 40  1  0
 14 20  2  0
 14 15  1  0
 15 16  2  0
 15 41  1  0
 16 17  1  0
 16 42  1  0
 17 18  1  0
 17 19  2  0
 18 43  1  0
 19 20  1  0
 19 44  1  0
 21 20  1  1
 21 22  1  0
 22 45  1  0
 22 46  1  0
M  CHG  1   2   1
M  END
>  <i_m_ct_stereo_status>  (326) 
1

>  <s_m_source_file>  (326) 
/var/tmp/pbs.5076255.sched01/tmp7rmqr72f/92ch8atech.sdf

>  <i_m_source_file_index>  (326) 
33

>  <i_lp_mmshare_version>  (326) 
48012

>  <i_f3d_flags>  (326) 
0

>  <s_epik_input>  (326) 
W0NIMl0xT1tDSDJdW0NAQEhdMltDSDJdW05AK10oW0NIM10pKFtDSDJdW0NIMl0zKVtDSDJdW0NAXTQoW0NAXTI1W0NAQF0xMzQpYzZjKFtDSDJdW0NIMl01KVtjSF1bY0hdYyhbT0hdKVtjSF02

>  <s_epik_cmdline>  (326) 
J2VwaWtfcHl0aG9uJywgJy1waHQnLCAnMi4wJywgJy1waCcsICc3LjAnLCAnLXRuJywgJzgnLCAnLW1hJywgJzIwMCcsICctaW1hZScsICc8aW5maWxlLm1hZT4nLCAnLW9tYWUnLCAnPG91dGZpbGUubWFlPic=

>  <r_lp_tautomer_probability>  (326) 
1

>  <r_epik_Ionization_Penalty>  (326) 
0.000412093

>  <r_epik_Ionization_Penalty_Charging>  (326) 
0

>  <r_epik_Ionization_Penalty_Neutral>  (326) 
0.000412093

>  <r_epik_State_Penalty>  (326) 
0.000253073

>  <r_epik_Charging_Adjusted_Penalty>  (326) 
0.000253073

>  <i_epik_Tot_Q>  (326) 
1

>  <i_epik_Tot_abs_Q>  (326) 
1

>  <s_lp_Force_Field>  (326) 
OPLS3e

>  <r_lp_Energy>  (326) 
253.378

>  <b_lp_Chiralities_Consistent>  (326) 
1

>  <s_lp_Variant>  (326) 
85:0-1

>  <s_i_glide_gridfile>  (326) 
pfpi4k_grid

>  <i_i_glide_lignum>  (326) 
33

>  <i_i_glide_rotatable_bonds>  (326) 
1

>  <r_i_docking_score>  (326) 
-4.15201

>  <r_i_glide_ligand_efficiency>  (326) 
-0.188728

>  <r_i_glide_ligand_efficiency_sa>  (326) 
-0.528823

>  <r_i_glide_ligand_efficiency_ln>  (326) 
-1.0149

>  <r_i_glide_gscore>  (326) 
-4.15201

>  <r_i_glide_lipo>  (326) 
-1.2346

>  <r_i_glide_hbond>  (326) 
0

>  <r_i_glide_metal>  (326) 
-0

>  <r_i_glide_rewards>  (326) 
-1.76067

>  <r_i_glide_evdw>  (326) 
-18.2612

>  <r_i_glide_ecoul>  (326) 
-1.62456

>  <r_i_glide_erotb>  (326) 
0

>  <r_i_glide_esite>  (326) 
0

>  <r_i_glide_emodel>  (326) 
-26.8796

>  <r_i_glide_energy>  (326) 
-19.8858

>  <r_i_glide_einternal>  (326) 
0.00215308

>  <r_i_glide_intrahb_reward>  (326) 
-0

>  <i_i_glide_confnum>  (326) 
2

>  <i_i_glide_posenum>  (326) 
5

>  <r_i_glide_eff_state_penalty>  (326) 
0

>  <ligand_id>  (326) 
85

>  <original_smiles>  (326) 
C[N+]12CCC34COCC(C1)C31CCc3ccc(O)cc3C41C2

>  <smiles>  (326) 
[H]Oc1c([H])c([H])c2c(c1[H])C13C45C([H])([H])OC([H])([H])C([H])(C14C([H])([H])C2([H])[H])C([H])([H])[N+](C([H])([H])[H])(C([H])([H])C5([H])[H])C3([H])[H]

$$$$
85:0:2
     RDKit          3D

 46 51  0  0  1  0  0  0  0  0999 V2000
    3.1037   -1.6466    0.2824 C   0  0  0  0  0  0  0  0  0  0  0  0
    3.0048   -1.3373    1.7371 N   0  0  2  0  0  0  0  0  0  0  0  0
    4.2039   -0.5316    2.1327 C   0  0  0  0  0  0  0  0  0  0  0  0
    3.8968    0.5243    3.2117 C   0  0  0  0  0  0  0  0  0  0  0  0
    2.9314    0.0367    4.2927 C   0  0  1  0  0  0  0  0  0  0  0  0
    3.8083   -0.3453    5.4996 C   0  0  0  0  0  0  0  0  0  0  0  0
    4.6428   -1.4491    5.1377 O   0  0  0  0  0  0  0  0  0  0  0  0
    3.9563   -2.6866    4.9128 C   0  0  0  0  0  0  0  0  0  0  0  0
    2.7076   -2.5349    4.0084 C   0  0  2  0  0  0  0  0  0  0  0  0
    3.0050   -2.6331    2.4850 C   0  0  0  0  0  0  0  0  0  0  0  0
    2.0053   -1.2483    4.4098 C   0  0  1  0  0  0  0  0  0  0  0  0
    1.0316   -1.4801    5.5866 C   0  0  0  0  0  0  0  0  0  0  0  0
   -0.4355   -1.3256    5.1655 C   0  0  0  0  0  0  0  0  0  0  0  0
   -0.6392    0.0670    4.6024 C   0  0  0  0  0  0  0  0  0  0  0  0
   -1.7734    0.8295    4.9549 C   0  0  0  0  0  0  0  0  0  0  0  0
   -1.8922    2.1555    4.4993 C   0  0  0  0  0  0  0  0  0  0  0  0
   -0.8843    2.7117    3.6933 C   0  0  0  0  0  0  0  0  0  0  0  0
   -1.0001    4.0066    3.2771 O   0  0  0  0  0  0  0  0  0  0  0  0
    0.2463    1.9447    3.3347 C   0  0  0  0  0  0  0  0  0  0  0  0
    0.3780    0.6139    3.7909 C   0  0  0  0  0  0  0  0  0  0  0  0
    1.6139   -0.2183    3.5021 C   0  0  1  0  0  0  0  0  0  0  0  0
    1.7247   -0.5978    2.0160 C   0  0  0  0  0  0  0  0  0  0  0  0
    3.0890   -0.7381   -0.3210 H   0  0  0  0  0  0  0  0  0  0  0  0
    2.2762   -2.2730   -0.0466 H   0  0  0  0  0  0  0  0  0  0  0  0
    4.0240   -2.1827    0.0431 H   0  0  0  0  0  0  0  0  0  0  0  0
    5.0128   -1.1835    2.4724 H   0  0  0  0  0  0  0  0  0  0  0  0
    4.6128   -0.0022    1.2681 H   0  0  0  0  0  0  0  0  0  0  0  0
    4.8209    0.9134    3.6396 H   0  0  0  0  0  0  0  0  0  0  0  0
    3.4211    1.3795    2.7265 H   0  0  0  0  0  0  0  0  0  0  0  0
    4.4489    0.4975    5.7580 H   0  0  0  0  0  0  0  0  0  0  0  0
    3.2542   -0.5551    6.4066 H   0  0  0  0  0  0  0  0  0  0  0  0
    4.6544   -3.4274    4.5171 H   0  0  0  0  0  0  0  0  0  0  0  0
    3.6351   -3.0631    5.8880 H   0  0  0  0  0  0  0  0  0  0  0  0
    2.0495   -3.3784    4.2243 H   0  0  0  0  0  0  0  0  0  0  0  0
    2.2360   -3.2686    2.0453 H   0  0  0  0  0  0  0  0  0  0  0  0
    3.9425   -3.1693    2.3147 H   0  0  0  0  0  0  0  0  0  0  0  0
    1.2106   -2.4380    6.0747 H   0  0  0  0  0  0  0  0  0  0  0  0
    1.1962   -0.7169    6.3452 H   0  0  0  0  0  0  0  0  0  0  0  0
   -0.6930   -2.0580    4.4007 H   0  0  0  0  0  0  0  0  0  0  0  0
   -1.0944   -1.4908    6.0144 H   0  0  0  0  0  0  0  0  0  0  0  0
   -2.5400    0.4150    5.5911 H   0  0  0  0  0  0  0  0  0  0  0  0
   -2.7589    2.7396    4.7650 H   0  0  0  0  0  0  0  0  0  0  0  0
   -0.5852    4.1442    2.4193 H   0  0  0  0  0  0  0  0  0  0  0  0
    1.0261    2.4004    2.7415 H   0  0  0  0  0  0  0  0  0  0  0  0
    1.6765    0.3025    1.4006 H   0  0  0  0  0  0  0  0  0  0  0  0
    0.8712   -1.2206    1.7418 H   0  0  0  0  0  0  0  0  0  0  0  0
  2  1  1  6
  1 23  1  0
  1 24  1  0
  1 25  1  0
  2 10  1  0
  2 22  1  0
  2  3  1  0
  3  4  1  0
  3 26  1  0
  3 27  1  0
  5  4  1  6
  4 28  1  0
  4 29  1  0
  5 11  1  0
  5 21  1  0
  5  6  1  0
  6  7  1  0
  6 30  1  0
  6 31  1  0
  7  8  1  0
  8  9  1  0
  8 32  1  0
  8 33  1  0
  9 10  1  0
  9 11  1  0
  9 34  1  1
 10 35  1  0
 10 36  1  0
 11 21  1  0
 11 12  1  1
 12 13  1  0
 12 37  1  0
 12 38  1  0
 13 14  1  0
 13 39  1  0
 13 40  1  0
 14 20  2  0
 14 15  1  0
 15 16  2  0
 15 41  1  0
 16 17  1  0
 16 42  1  0
 17 18  1  0
 17 19  2  0
 18 43  1  0
 19 20  1  0
 19 44  1  0
 21 20  1  1
 21 22  1  0
 22 45  1  0
 22 46  1  0
M  CHG  1   2   1
M  END
>  <i_m_ct_stereo_status>  (327) 
1

>  <s_m_source_file>  (327) 
/var/tmp/pbs.5076255.sched01/tmp7rmqr72f/92ch8atech.sdf

>  <i_m_source_file_index>  (327) 
33

>  <i_lp_mmshare_version>  (327) 
48012

>  <i_f3d_flags>  (327) 
0

>  <s_epik_input>  (327) 
W0NIMl0xT1tDSDJdW0NAQEhdMltDSDJdW05AK10oW0NIM10pKFtDSDJdW0NIMl0zKVtDSDJdW0NAXTQoW0NAXTI1W0NAQF0xMzQpYzZjKFtDSDJdW0NIMl01KVtjSF1bY0hdYyhbT0hdKVtjSF02

>  <s_epik_cmdline>  (327) 
J2VwaWtfcHl0aG9uJywgJy1waHQnLCAnMi4wJywgJy1waCcsICc3LjAnLCAnLXRuJywgJzgnLCAnLW1hJywgJzIwMCcsICctaW1hZScsICc8aW5maWxlLm1hZT4nLCAnLW9tYWUnLCAnPG91dGZpbGUubWFlPic=

>  <r_lp_tautomer_probability>  (327) 
1

>  <r_epik_Ionization_Penalty>  (327) 
0.000412093

>  <r_epik_Ionization_Penalty_Charging>  (327) 
0

>  <r_epik_Ionization_Penalty_Neutral>  (327) 
0.000412093

>  <r_epik_State_Penalty>  (327) 
0.000253073

>  <r_epik_Charging_Adjusted_Penalty>  (327) 
0.000253073

>  <i_epik_Tot_Q>  (327) 
1

>  <i_epik_Tot_abs_Q>  (327) 
1

>  <s_lp_Force_Field>  (327) 
OPLS3e

>  <r_lp_Energy>  (327) 
253.378

>  <b_lp_Chiralities_Consistent>  (327) 
1

>  <s_lp_Variant>  (327) 
85:0-1

>  <s_i_glide_gridfile>  (327) 
pfpi4k_grid

>  <i_i_glide_lignum>  (327) 
33

>  <i_i_glide_rotatable_bonds>  (327) 
1

>  <r_i_docking_score>  (327) 
-3.55631

>  <r_i_glide_ligand_efficiency>  (327) 
-0.161651

>  <r_i_glide_ligand_efficiency_sa>  (327) 
-0.452951

>  <r_i_glide_ligand_efficiency_ln>  (327) 
-0.869293

>  <r_i_glide_gscore>  (327) 
-3.55631

>  <r_i_glide_lipo>  (327) 
-0.0663265

>  <r_i_glide_hbond>  (327) 
-0.16

>  <r_i_glide_metal>  (327) 
-0

>  <r_i_glide_rewards>  (327) 
-1.37455

>  <r_i_glide_evdw>  (327) 
-15.1915

>  <r_i_glide_ecoul>  (327) 
-7.77381

>  <r_i_glide_erotb>  (327) 
0

>  <r_i_glide_esite>  (327) 
-0.0297899

>  <r_i_glide_emodel>  (327) 
-28.1228

>  <r_i_glide_energy>  (327) 
-22.9653

>  <r_i_glide_einternal>  (327) 
0.847634

>  <r_i_glide_intrahb_reward>  (327) 
-0

>  <i_i_glide_confnum>  (327) 
2

>  <i_i_glide_posenum>  (327) 
36

>  <r_i_glide_eff_state_penalty>  (327) 
0

>  <ligand_id>  (327) 
85

>  <original_smiles>  (327) 
C[N+]12CCC34COCC(C1)C31CCc3ccc(O)cc3C41C2

>  <smiles>  (327) 
[H]Oc1c([H])c([H])c2c(c1[H])C13C45C([H])([H])OC([H])([H])C([H])(C14C([H])([H])C2([H])[H])C([H])([H])[N+](C([H])([H])[H])(C([H])([H])C5([H])[H])C3([H])[H]

$$$$
86:0:0
     RDKit          3D

 65 70  0  0  1  0  0  0  0  0999 V2000
    4.9747   -9.1698    1.7306 C   0  0  0  0  0  0  0  0  0  0  0  0
    4.1729   -8.1741    2.5854 C   0  0  2  0  0  0  0  0  0  0  0  0
    2.8655   -8.8627    3.1041 C   0  0  1  0  0  0  0  0  0  0  0  0
    1.7095   -9.1827    2.0809 C   0  0  0  0  0  0  0  0  0  0  0  0
    0.3372   -8.4572    2.3714 C   0  0  1  0  0  0  0  0  0  0  0  0
   -0.0602   -8.6824    3.8425 C   0  0  0  0  0  0  0  0  0  0  0  0
    1.0599   -8.1060    4.7240 C   0  0  1  0  0  0  0  0  0  0  0  0
    2.3419   -9.0052    4.5553 C   0  0  0  0  0  0  0  0  0  0  0  0
    1.2466   -6.5708    4.3976 C   0  0  0  0  0  0  0  0  0  0  0  0
    1.4277   -6.1852    2.8742 C   0  0  1  0  0  0  0  0  0  0  0  0
    0.3120   -6.9123    2.0634 C   0  0  0  0  0  0  0  0  0  0  0  0
    2.8833   -5.6814    2.4569 C   0  0  2  0  0  0  0  0  0  0  0  0
    2.7589   -4.4557    1.5399 C   0  0  0  0  0  0  0  0  0  0  0  0
    3.9227   -3.4147    1.6217 C   0  0  1  0  0  0  0  0  0  0  0  0
    3.4070   -2.3411    2.5877 C   0  0  0  0  0  0  0  0  0  0  0  0
    5.3847   -3.8596    1.9170 C   0  0  1  0  0  0  0  0  0  0  0  0
    5.7288   -5.2158    2.4981 C   0  0  0  0  0  0  0  0  0  0  0  0
    5.2562   -6.1423    1.4943 N   0  0  2  0  0  0  0  0  0  0  0  0
    5.4024   -5.4906    0.1777 C   0  0  0  0  0  0  0  0  0  0  0  0
    5.6155   -3.9612    0.4323 C   0  0  2  0  0  0  0  0  0  0  0  0
    7.0001   -3.5409   -0.0800 C   0  0  0  0  0  0  0  0  0  0  0  0
    4.4686   -2.9254    0.2421 C   0  0  0  0  0  0  0  0  0  0  0  0
    3.5980   -3.0674   -1.0243 C   0  0  0  0  0  0  0  0  0  0  0  0
    4.8790   -1.4382    0.1893 C   0  0  0  0  0  0  0  0  0  0  0  0
    3.9475   -6.7674    1.8106 C   0  0  1  0  0  0  0  0  0  0  0  0
    4.4583   -9.4399    0.8090 H   0  0  0  0  0  0  0  0  0  0  0  0
    5.1389  -10.0951    2.2850 H   0  0  0  0  0  0  0  0  0  0  0  0
    5.9577   -8.7881    1.4654 H   0  0  0  0  0  0  0  0  0  0  0  0
    4.8144   -7.9640    3.4497 H   0  0  0  0  0  0  0  0  0  0  0  0
    2.8828   -7.9004    3.4794 H   0  0  0  0  0  0  0  0  0  0  0  0
    2.0208   -8.9309    1.0611 H   0  0  0  0  0  0  0  0  0  0  0  0
    1.5491  -10.2531    2.0673 H   0  0  0  0  0  0  0  0  0  0  0  0
   -0.4426   -8.9233    1.7480 H   0  0  0  0  0  0  0  0  0  0  0  0
   -1.0113   -8.1975    4.0650 H   0  0  0  0  0  0  0  0  0  0  0  0
   -0.1931   -9.7446    4.0520 H   0  0  0  0  0  0  0  0  0  0  0  0
    0.7470   -8.1932    5.7756 H   0  0  0  0  0  0  0  0  0  0  0  0
    2.0845  -10.0406    4.7552 H   0  0  0  0  0  0  0  0  0  0  0  0
    3.0881   -8.7334    5.3083 H   0  0  0  0  0  0  0  0  0  0  0  0
    0.3960   -6.0188    4.7800 H   0  0  0  0  0  0  0  0  0  0  0  0
    2.0965   -6.2149    4.9859 H   0  0  0  0  0  0  0  0  0  0  0  0
    1.8423   -6.8764    2.2249 H   0  0  0  0  0  0  0  0  0  0  0  0
    0.3466   -6.7429    0.9825 H   0  0  0  0  0  0  0  0  0  0  0  0
   -0.6536   -6.5457    2.3878 H   0  0  0  0  0  0  0  0  0  0  0  0
    3.2929   -5.3121    3.3874 H   0  0  0  0  0  0  0  0  0  0  0  0
    2.6211   -4.8513    0.5359 H   0  0  0  0  0  0  0  0  0  0  0  0
    1.8139   -3.9673    1.7552 H   0  0  0  0  0  0  0  0  0  0  0  0
    4.1827   -1.6034    2.8125 H   0  0  0  0  0  0  0  0  0  0  0  0
    3.1044   -2.7667    3.5450 H   0  0  0  0  0  0  0  0  0  0  0  0
    2.5578   -1.7936    2.1706 H   0  0  0  0  0  0  0  0  0  0  0  0
    5.9560   -3.0276    2.3464 H   0  0  0  0  0  0  0  0  0  0  0  0
    6.8224   -5.2959    2.5520 H   0  0  0  0  0  0  0  0  0  0  0  0
    5.3890   -5.3725    3.5280 H   0  0  0  0  0  0  0  0  0  0  0  0
    6.2823   -5.8834   -0.3238 H   0  0  0  0  0  0  0  0  0  0  0  0
    4.5779   -5.6839   -0.5187 H   0  0  0  0  0  0  0  0  0  0  0  0
    7.0370   -3.4804   -1.1695 H   0  0  0  0  0  0  0  0  0  0  0  0
    7.7962   -4.2123    0.2486 H   0  0  0  0  0  0  0  0  0  0  0  0
    7.2825   -2.5543    0.3001 H   0  0  0  0  0  0  0  0  0  0  0  0
    4.0869   -2.6471   -1.9036 H   0  0  0  0  0  0  0  0  0  0  0  0
    2.6364   -2.5649   -0.9050 H   0  0  0  0  0  0  0  0  0  0  0  0
    3.3883   -4.1057   -1.2883 H   0  0  0  0  0  0  0  0  0  0  0  0
    5.4107   -1.1943   -0.7317 H   0  0  0  0  0  0  0  0  0  0  0  0
    5.5371   -1.1545    1.0171 H   0  0  0  0  0  0  0  0  0  0  0  0
    4.0052   -0.7835    0.2343 H   0  0  0  0  0  0  0  0  0  0  0  0
    3.5094   -7.0692    0.8561 H   0  0  0  0  0  0  0  0  0  0  0  0
    5.9011   -6.9380    1.4805 H   0  0  0  0  0  0  0  0  0  0  0  0
  1  2  1  0
  1 26  1  0
  1 27  1  0
  1 28  1  0
  2 25  1  0
  2  3  1  0
  2 29  1  1
  3  8  1  0
  3  4  1  0
  3 30  1  1
  4  5  1  0
  4 31  1  0
  4 32  1  0
  5 11  1  0
  5  6  1  0
  5 33  1  6
  6  7  1  0
  6 34  1  0
  6 35  1  0
  7  8  1  0
  7  9  1  0
  7 36  1  1
  8 37  1  0
  8 38  1  0
  9 10  1  0
  9 39  1  0
  9 40  1  0
 10 11  1  0
 10 12  1  0
 10 41  1  1
 11 42  1  0
 11 43  1  0
 12 25  1  0
 12 13  1  0
 12 44  1  1
 13 14  1  0
 13 45  1  0
 13 46  1  0
 14 22  1  0
 14 15  1  1
 14 16  1  0
 15 47  1  0
 15 48  1  0
 15 49  1  0
 16 20  1  0
 16 17  1  0
 16 50  1  1
 17 18  1  0
 17 51  1  0
 17 52  1  0
 18 19  1  0
 18 25  1  0
 18 65  1  6
 19 20  1  0
 19 53  1  0
 19 54  1  0
 20 21  1  1
 20 22  1  0
 21 55  1  0
 21 56  1  0
 21 57  1  0
 22 23  1  0
 22 24  1  0
 23 58  1  0
 23 59  1  0
 23 60  1  0
 24 61  1  0
 24 62  1  0
 24 63  1  0
 25 64  1  6
M  CHG  1  18   1
M  END
>  <i_m_ct_stereo_status>  (328) 
1

>  <s_m_source_file>  (328) 
/var/tmp/pbs.5076255.sched01/tmp7rmqr72f/92ch8atech.sdf

>  <i_m_source_file_index>  (328) 
34

>  <i_lp_mmshare_version>  (328) 
48012

>  <i_f3d_flags>  (328) 
0

>  <s_epik_input>  (328) 
W0NIM11bQ0BASF0xW0NAQEhdKFtDSDJdMilbQ0gyXVtDQEhdKFtDSDJdMylbQ0gyXVtDQEBIXTJbQ0gyXVtDQEhdM1tDQEhdKFtDSDJdNClbQ0BIXTFOKFtDSDJdNSlbQ0gyXVtDQEBdKFtDSDNdKShDNihbQ0gzXSlbQ0gzXSlbQ0BIXTVbQ0BdNDZbQ0gzXQ==

>  <s_epik_cmdline>  (328) 
J2VwaWtfcHl0aG9uJywgJy1waHQnLCAnMi4wJywgJy1waCcsICc3LjAnLCAnLXRuJywgJzgnLCAnLW1hJywgJzIwMCcsICctaW1hZScsICc8aW5maWxlLm1hZT4nLCAnLW9tYWUnLCAnPG91dGZpbGUubWFlPic=

>  <r_lp_tautomer_probability>  (328) 
1

>  <r_epik_Ionization_Penalty>  (328) 
4.58257e-05

>  <r_epik_Ionization_Penalty_Charging>  (328) 
4.58257e-05

>  <r_epik_Ionization_Penalty_Neutral>  (328) 
0

>  <r_epik_State_Penalty>  (328) 
-0

>  <r_epik_Charging_Adjusted_Penalty>  (328) 
4.58257e-05

>  <i_epik_Tot_Q>  (328) 
1

>  <i_epik_Tot_abs_Q>  (328) 
1

>  <s_lp_Force_Field>  (328) 
OPLS3e

>  <r_lp_Energy>  (328) 
217.027

>  <b_lp_Chiralities_Consistent>  (328) 
1

>  <s_lp_Variant>  (328) 
86:0-1

>  <s_i_glide_gridfile>  (328) 
pfpi4k_grid

>  <i_i_glide_lignum>  (328) 
34

>  <i_i_glide_rotatable_bonds>  (328) 
0

>  <r_i_docking_score>  (328) 
-2.64698

>  <r_i_glide_ligand_efficiency>  (328) 
-0.105879

>  <r_i_glide_ligand_efficiency_sa>  (328) 
-0.309592

>  <r_i_glide_ligand_efficiency_ln>  (328) 
-0.627413

>  <r_i_glide_gscore>  (328) 
-2.64698

>  <r_i_glide_lipo>  (328) 
-0.44194

>  <r_i_glide_hbond>  (328) 
0

>  <r_i_glide_metal>  (328) 
-0

>  <r_i_glide_rewards>  (328) 
-1.07331

>  <r_i_glide_evdw>  (328) 
-18.3909

>  <r_i_glide_ecoul>  (328) 
-1.41455

>  <r_i_glide_erotb>  (328) 
0

>  <r_i_glide_esite>  (328) 
0

>  <r_i_glide_emodel>  (328) 
-22.9252

>  <r_i_glide_energy>  (328) 
-19.8055

>  <r_i_glide_einternal>  (328) 
0

>  <r_i_glide_intrahb_reward>  (328) 
-0

>  <i_i_glide_confnum>  (328) 
1

>  <i_i_glide_posenum>  (328) 
1

>  <r_i_glide_eff_state_penalty>  (328) 
0

>  <ligand_id>  (328) 
86

>  <original_smiles>  (328) 
CC1C2CC3CC(C2)CC(C3)C2CC3(C)C4CN(CC4(C)C3(C)C)C12

>  <smiles>  (328) 
[H]C([H])([H])C1([H])C2([H])C([H])([H])C3([H])C([H])([H])C([H])(C2([H])[H])C([H])([H])C([H])(C3([H])[H])C2([H])C([H])([H])C3(C([H])([H])[H])C4([H])C(C([H])([H])[H])(C3(C([H])([H])[H])C([H])([H])[H])C([H])([H])[N+]([H])(C4([H])[H])C12[H]

$$$$
86:0:1
     RDKit          3D

 65 70  0  0  1  0  0  0  0  0999 V2000
    5.6895   -6.7878    3.2745 C   0  0  0  0  0  0  0  0  0  0  0  0
    5.0561   -5.4301    3.6337 C   0  0  2  0  0  0  0  0  0  0  0  0
    4.0735   -5.6190    4.8402 C   0  0  1  0  0  0  0  0  0  0  0  0
    2.7055   -6.3786    4.5943 C   0  0  0  0  0  0  0  0  0  0  0  0
    1.4026   -5.5179    4.8622 C   0  0  1  0  0  0  0  0  0  0  0  0
    1.5076   -4.8433    6.2400 C   0  0  0  0  0  0  0  0  0  0  0  0
    2.7585   -3.9482    6.2424 C   0  0  1  0  0  0  0  0  0  0  0  0
    4.0308   -4.8783    6.1943 C   0  0  0  0  0  0  0  0  0  0  0  0
    2.6513   -2.8826    5.0783 C   0  0  0  0  0  0  0  0  0  0  0  0
    2.3025   -3.4384    3.6367 C   0  0  1  0  0  0  0  0  0  0  0  0
    1.0958   -4.4076    3.7802 C   0  0  0  0  0  0  0  0  0  0  0  0
    3.4871   -3.3646    2.5686 C   0  0  2  0  0  0  0  0  0  0  0  0
    2.9367   -2.8651    1.2273 C   0  0  0  0  0  0  0  0  0  0  0  0
    3.9267   -2.0416    0.3412 C   0  0  1  0  0  0  0  0  0  0  0  0
    3.6086   -0.5797    0.6556 C   0  0  0  0  0  0  0  0  0  0  0  0
    5.4547   -2.3478    0.3398 C   0  0  1  0  0  0  0  0  0  0  0  0
    6.1318   -3.1577    1.4283 C   0  0  0  0  0  0  0  0  0  0  0  0
    5.4945   -4.4584    1.3216 N   0  0  2  0  0  0  0  0  0  0  0  0
    5.1431   -4.6729   -0.1004 C   0  0  0  0  0  0  0  0  0  0  0  0
    5.2377   -3.2853   -0.8144 C   0  0  2  0  0  0  0  0  0  0  0  0
    6.3355   -3.3164   -1.8891 C   0  0  0  0  0  0  0  0  0  0  0  0
    3.9647   -2.4626   -1.1718 C   0  0  0  0  0  0  0  0  0  0  0  0
    2.7819   -3.2331   -1.7854 C   0  0  0  0  0  0  0  0  0  0  0  0
    4.1489   -1.2949   -2.1638 C   0  0  0  0  0  0  0  0  0  0  0  0
    4.4303   -4.6956    2.3405 C   0  0  1  0  0  0  0  0  0  0  0  0
    4.9527   -7.4911    2.8766 H   0  0  0  0  0  0  0  0  0  0  0  0
    6.1293   -7.2457    4.1601 H   0  0  0  0  0  0  0  0  0  0  0  0
    6.4853   -6.6901    2.5442 H   0  0  0  0  0  0  0  0  0  0  0  0
    5.9008   -4.8160    3.9765 H   0  0  0  0  0  0  0  0  0  0  0  0
    4.0731   -4.6204    4.5827 H   0  0  0  0  0  0  0  0  0  0  0  0
    2.6607   -6.7603    3.5751 H   0  0  0  0  0  0  0  0  0  0  0  0
    2.6903   -7.2633    5.2236 H   0  0  0  0  0  0  0  0  0  0  0  0
    0.5432   -6.2006    4.8883 H   0  0  0  0  0  0  0  0  0  0  0  0
    0.6172   -4.2480    6.4419 H   0  0  0  0  0  0  0  0  0  0  0  0
    1.5792   -5.5855    7.0334 H   0  0  0  0  0  0  0  0  0  0  0  0
    2.7967   -3.4021    7.1928 H   0  0  0  0  0  0  0  0  0  0  0  0
    3.9814   -5.5946    7.0062 H   0  0  0  0  0  0  0  0  0  0  0  0
    4.9380   -4.2839    6.3827 H   0  0  0  0  0  0  0  0  0  0  0  0
    1.8879   -2.1542    5.3385 H   0  0  0  0  0  0  0  0  0  0  0  0
    3.5831   -2.3154    5.0586 H   0  0  0  0  0  0  0  0  0  0  0  0
    2.5841   -4.4024    3.3929 H   0  0  0  0  0  0  0  0  0  0  0  0
    0.7755   -4.8726    2.8432 H   0  0  0  0  0  0  0  0  0  0  0  0
    0.2357   -3.8309    4.1188 H   0  0  0  0  0  0  0  0  0  0  0  0
    4.1081   -2.5621    2.9470 H   0  0  0  0  0  0  0  0  0  0  0  0
    2.5530   -3.7443    0.7178 H   0  0  0  0  0  0  0  0  0  0  0  0
    2.0345   -2.2789    1.4167 H   0  0  0  0  0  0  0  0  0  0  0  0
    4.3011    0.1019    0.1632 H   0  0  0  0  0  0  0  0  0  0  0  0
    3.6670   -0.3667    1.7247 H   0  0  0  0  0  0  0  0  0  0  0  0
    2.6104   -0.2993    0.3212 H   0  0  0  0  0  0  0  0  0  0  0  0
    6.0221   -1.4586    0.0347 H   0  0  0  0  0  0  0  0  0  0  0  0
    7.1918   -3.2730    1.1652 H   0  0  0  0  0  0  0  0  0  0  0  0
    6.1376   -2.6833    2.4145 H   0  0  0  0  0  0  0  0  0  0  0  0
    5.8676   -5.3673   -0.5372 H   0  0  0  0  0  0  0  0  0  0  0  0
    4.1797   -5.1582   -0.2541 H   0  0  0  0  0  0  0  0  0  0  0  0
    6.0340   -3.8859   -2.7667 H   0  0  0  0  0  0  0  0  0  0  0  0
    7.2773   -3.7268   -1.5164 H   0  0  0  0  0  0  0  0  0  0  0  0
    6.5822   -2.3171   -2.2446 H   0  0  0  0  0  0  0  0  0  0  0  0
    2.9268   -3.4238   -2.8472 H   0  0  0  0  0  0  0  0  0  0  0  0
    1.8479   -2.6804   -1.6807 H   0  0  0  0  0  0  0  0  0  0  0  0
    2.6234   -4.2131   -1.3397 H   0  0  0  0  0  0  0  0  0  0  0  0
    4.3485   -1.6522   -3.1761 H   0  0  0  0  0  0  0  0  0  0  0  0
    4.9750   -0.6330   -1.8946 H   0  0  0  0  0  0  0  0  0  0  0  0
    3.2450   -0.6775   -2.2166 H   0  0  0  0  0  0  0  0  0  0  0  0
    3.7695   -5.4519    1.9065 H   0  0  0  0  0  0  0  0  0  0  0  0
    6.2018   -5.1680    1.5441 H   0  0  0  0  0  0  0  0  0  0  0  0
  1  2  1  0
  1 26  1  0
  1 27  1  0
  1 28  1  0
  2 25  1  0
  2  3  1  0
  2 29  1  1
  3  8  1  0
  3  4  1  0
  3 30  1  1
  4  5  1  0
  4 31  1  0
  4 32  1  0
  5 11  1  0
  5  6  1  0
  5 33  1  1
  6  7  1  0
  6 34  1  0
  6 35  1  0
  7  8  1  0
  7  9  1  0
  7 36  1  1
  8 37  1  0
  8 38  1  0
  9 10  1  0
  9 39  1  0
  9 40  1  0
 10 11  1  0
 10 12  1  0
 10 41  1  6
 11 42  1  0
 11 43  1  0
 12 25  1  0
 12 13  1  0
 12 44  1  1
 13 14  1  0
 13 45  1  0
 13 46  1  0
 14 22  1  0
 14 15  1  6
 14 16  1  0
 15 47  1  0
 15 48  1  0
 15 49  1  0
 16 20  1  0
 16 17  1  0
 16 50  1  6
 17 18  1  0
 17 51  1  0
 17 52  1  0
 18 19  1  0
 18 25  1  0
 18 65  1  1
 19 20  1  0
 19 53  1  0
 19 54  1  0
 20 21  1  6
 20 22  1  0
 21 55  1  0
 21 56  1  0
 21 57  1  0
 22 23  1  0
 22 24  1  0
 23 58  1  0
 23 59  1  0
 23 60  1  0
 24 61  1  0
 24 62  1  0
 24 63  1  0
 25 64  1  6
M  CHG  1  18   1
M  END
>  <i_m_ct_stereo_status>  (329) 
1

>  <s_m_source_file>  (329) 
/var/tmp/pbs.5076255.sched01/tmp7rmqr72f/92ch8atech.sdf

>  <i_m_source_file_index>  (329) 
34

>  <i_lp_mmshare_version>  (329) 
48012

>  <i_f3d_flags>  (329) 
0

>  <s_epik_input>  (329) 
W0NIM11bQ0BASF0xW0NAQEhdKFtDSDJdMilbQ0gyXVtDQEhdKFtDSDJdMylbQ0gyXVtDQEBIXTJbQ0gyXVtDQEhdM1tDQEhdKFtDSDJdNClbQ0BIXTFOKFtDSDJdNSlbQ0gyXVtDQEBdKFtDSDNdKShDNihbQ0gzXSlbQ0gzXSlbQ0BIXTVbQ0BdNDZbQ0gzXQ==

>  <s_epik_cmdline>  (329) 
J2VwaWtfcHl0aG9uJywgJy1waHQnLCAnMi4wJywgJy1waCcsICc3LjAnLCAnLXRuJywgJzgnLCAnLW1hJywgJzIwMCcsICctaW1hZScsICc8aW5maWxlLm1hZT4nLCAnLW9tYWUnLCAnPG91dGZpbGUubWFlPic=

>  <r_lp_tautomer_probability>  (329) 
1

>  <r_epik_Ionization_Penalty>  (329) 
4.58257e-05

>  <r_epik_Ionization_Penalty_Charging>  (329) 
4.58257e-05

>  <r_epik_Ionization_Penalty_Neutral>  (329) 
0

>  <r_epik_State_Penalty>  (329) 
-0

>  <r_epik_Charging_Adjusted_Penalty>  (329) 
4.58257e-05

>  <i_epik_Tot_Q>  (329) 
1

>  <i_epik_Tot_abs_Q>  (329) 
1

>  <s_lp_Force_Field>  (329) 
OPLS3e

>  <r_lp_Energy>  (329) 
217.027

>  <b_lp_Chiralities_Consistent>  (329) 
1

>  <s_lp_Variant>  (329) 
86:0-1

>  <s_i_glide_gridfile>  (329) 
pfpi4k_grid

>  <i_i_glide_lignum>  (329) 
34

>  <i_i_glide_rotatable_bonds>  (329) 
0

>  <r_i_docking_score>  (329) 
-2.62938

>  <r_i_glide_ligand_efficiency>  (329) 
-0.105175

>  <r_i_glide_ligand_efficiency_sa>  (329) 
-0.307534

>  <r_i_glide_ligand_efficiency_ln>  (329) 
-0.623242

>  <r_i_glide_gscore>  (329) 
-2.62938

>  <r_i_glide_lipo>  (329) 
-0.485047

>  <r_i_glide_hbond>  (329) 
0

>  <r_i_glide_metal>  (329) 
-0

>  <r_i_glide_rewards>  (329) 
-1.07331

>  <r_i_glide_evdw>  (329) 
-16.2202

>  <r_i_glide_ecoul>  (329) 
-1.73343

>  <r_i_glide_erotb>  (329) 
0

>  <r_i_glide_esite>  (329) 
0

>  <r_i_glide_emodel>  (329) 
-21.0619

>  <r_i_glide_energy>  (329) 
-17.9536

>  <r_i_glide_einternal>  (329) 
0

>  <r_i_glide_intrahb_reward>  (329) 
-0

>  <i_i_glide_confnum>  (329) 
2

>  <i_i_glide_posenum>  (329) 
11

>  <r_i_glide_eff_state_penalty>  (329) 
0

>  <ligand_id>  (329) 
86

>  <original_smiles>  (329) 
CC1C2CC3CC(C2)CC(C3)C2CC3(C)C4CN(CC4(C)C3(C)C)C12

>  <smiles>  (329) 
[H]C([H])([H])C1([H])C2([H])C([H])([H])C3([H])C([H])([H])C([H])(C2([H])[H])C([H])([H])C([H])(C3([H])[H])C2([H])C([H])([H])C3(C([H])([H])[H])C4([H])C(C([H])([H])[H])(C3(C([H])([H])[H])C([H])([H])[H])C([H])([H])[N+]([H])(C4([H])[H])C12[H]

$$$$
87:0:0
     RDKit          3D

 80 86  0  0  1  0  0  0  0  0999 V2000
    4.2206   -8.2933    1.1952 C   0  0  0  0  0  0  0  0  0  0  0  0
    3.2893   -8.1692    2.4067 C   0  0  0  0  0  0  0  0  0  0  0  0
    2.3095   -7.2275    2.5542 C   0  0  0  0  0  0  0  0  0  0  0  0
    2.6052   -6.0461    1.7978 C   0  0  0  0  0  0  0  0  0  0  0  0
    2.8429   -4.9738    2.5540 C   0  0  0  0  0  0  0  0  0  0  0  0
    2.5330   -4.9552    4.0628 C   0  0  1  0  0  0  0  0  0  0  0  0
    1.3238   -5.6716    4.2619 O   0  0  0  0  0  0  0  0  0  0  0  0
    1.2278   -7.0012    3.6636 C   0  0  1  0  0  0  0  0  0  0  0  0
   -0.2013   -6.9183    3.0398 C   0  0  0  0  0  0  0  0  0  0  0  0
   -1.1744   -7.2142    3.7290 O   0  0  0  0  0  0  0  0  0  0  0  0
   -0.3020   -6.4632    1.8610 O   0  0  0  0  0  0  0  0  0  0  0  0
    1.1764   -8.0341    4.8354 C   0  0  1  0  0  0  0  0  0  0  0  0
    0.8114   -9.5470    4.7221 C   0  0  1  0  0  0  0  0  0  0  0  0
    0.6415  -10.2807    3.3731 C   0  0  2  0  0  0  0  0  0  0  0  0
   -0.6856  -10.0066    2.6483 C   0  0  0  0  0  0  0  0  0  0  0  0
    0.6539  -11.6825    3.5735 O   0  0  0  0  0  0  0  0  0  0  0  0
    2.0719   -9.9036    5.3667 O   0  0  0  0  0  0  0  0  0  0  0  0
    2.4641   -8.5087    5.5266 C   0  0  1  0  0  0  0  0  0  0  0  0
    3.8752   -8.2493    4.9434 C   0  0  2  0  0  0  0  0  0  0  0  0
    4.9002   -9.0027    5.8433 C   0  0  0  0  0  0  0  0  0  0  0  0
    4.3963   -6.7285    4.8671 C   0  0  0  0  0  0  0  0  0  0  0  0
    3.4815   -5.5047    5.1964 C   0  0  2  0  0  0  0  0  0  0  0  0
    2.8584   -5.7421    6.6133 C   0  0  0  0  0  0  0  0  0  0  0  0
    4.0769   -4.0665    5.2094 C   0  0  1  0  0  0  0  0  0  0  0  0
    5.3480   -3.6934    4.4445 C   0  0  0  0  0  0  0  0  0  0  0  0
    5.1262   -2.8987    3.1450 C   0  0  0  0  0  0  0  0  0  0  0  0
    4.0132   -1.8046    3.2092 C   0  0  1  0  0  0  0  0  0  0  0  0
    3.8114   -0.9850    1.8643 C   0  0  0  0  0  0  0  0  0  0  0  0
    5.0774   -0.1184    1.6119 C   0  0  0  0  0  0  0  0  0  0  0  0
    3.5761   -1.8596    0.6037 C   0  0  0  0  0  0  0  0  0  0  0  0
    2.5790   -0.0498    1.9824 C   0  0  0  0  0  0  0  0  0  0  0  0
    2.6200    1.1383    1.6833 O   0  0  0  0  0  0  0  0  0  0  0  0
    1.2638   -0.6467    2.4938 C   0  0  0  0  0  0  0  0  0  0  0  0
    1.4266   -2.0230    3.1565 C   0  0  0  0  0  0  0  0  0  0  0  0
    2.6952   -2.1560    4.0288 C   0  0  2  0  0  0  0  0  0  0  0  0
    2.5748   -1.0950    5.1708 C   0  0  0  0  0  0  0  0  0  0  0  0
    2.7114   -3.5482    4.7130 C   0  0  1  0  0  0  0  0  0  0  0  0
    3.8546   -8.9180    3.5453 C   0  0  0  0  0  0  0  0  0  0  0  0
    4.3554  -10.0306    3.3797 O   0  0  0  0  0  0  0  0  0  0  0  0
    4.2085   -9.3201    0.8202 H   0  0  0  0  0  0  0  0  0  0  0  0
    5.2520   -8.0511    1.4602 H   0  0  0  0  0  0  0  0  0  0  0  0
    3.9497   -7.6691    0.3450 H   0  0  0  0  0  0  0  0  0  0  0  0
    2.6709   -6.0232    0.7225 H   0  0  0  0  0  0  0  0  0  0  0  0
    3.0548   -4.0686    2.0316 H   0  0  0  0  0  0  0  0  0  0  0  0
    0.5177   -7.6397    5.6100 H   0  0  0  0  0  0  0  0  0  0  0  0
   -0.0078   -9.7976    5.4040 H   0  0  0  0  0  0  0  0  0  0  0  0
    1.4689  -10.0533    2.7022 H   0  0  0  0  0  0  0  0  0  0  0  0
   -0.8269   -9.0077    2.3162 H   0  0  0  0  0  0  0  0  0  0  0  0
   -1.5514  -10.2409    3.2490 H   0  0  0  0  0  0  0  0  0  0  0  0
   -0.7353  -10.5660    1.7359 H   0  0  0  0  0  0  0  0  0  0  0  0
    0.8076  -12.0878    2.7387 H   0  0  0  0  0  0  0  0  0  0  0  0
    2.4457   -8.2993    6.5957 H   0  0  0  0  0  0  0  0  0  0  0  0
    4.9088   -8.5949    6.8533 H   0  0  0  0  0  0  0  0  0  0  0  0
    5.9193   -8.9250    5.4602 H   0  0  0  0  0  0  0  0  0  0  0  0
    4.6760  -10.0664    5.9407 H   0  0  0  0  0  0  0  0  0  0  0  0
    5.2724   -6.6312    5.5052 H   0  0  0  0  0  0  0  0  0  0  0  0
    4.8308   -6.5595    3.8822 H   0  0  0  0  0  0  0  0  0  0  0  0
    3.4948   -6.3543    7.2517 H   0  0  0  0  0  0  0  0  0  0  0  0
    1.8695   -6.1873    6.5866 H   0  0  0  0  0  0  0  0  0  0  0  0
    2.6860   -4.8265    7.1807 H   0  0  0  0  0  0  0  0  0  0  0  0
    4.2233   -3.7128    6.2327 H   0  0  0  0  0  0  0  0  0  0  0  0
    5.9750   -3.0845    5.0978 H   0  0  0  0  0  0  0  0  0  0  0  0
    5.9506   -4.5762    4.2409 H   0  0  0  0  0  0  0  0  0  0  0  0
    6.0742   -2.4204    2.9015 H   0  0  0  0  0  0  0  0  0  0  0  0
    5.0026   -3.5972    2.3252 H   0  0  0  0  0  0  0  0  0  0  0  0
    4.5245   -1.0936    3.8574 H   0  0  0  0  0  0  0  0  0  0  0  0
    5.9639   -0.7251    1.4322 H   0  0  0  0  0  0  0  0  0  0  0  0
    5.2920    0.5150    2.4736 H   0  0  0  0  0  0  0  0  0  0  0  0
    4.9664    0.5453    0.7514 H   0  0  0  0  0  0  0  0  0  0  0  0
    4.3844   -2.5661    0.4304 H   0  0  0  0  0  0  0  0  0  0  0  0
    3.5035   -1.2450   -0.2955 H   0  0  0  0  0  0  0  0  0  0  0  0
    2.6467   -2.4251    0.6368 H   0  0  0  0  0  0  0  0  0  0  0  0
    0.8555    0.0549    3.2233 H   0  0  0  0  0  0  0  0  0  0  0  0
    0.5504   -0.6962    1.6721 H   0  0  0  0  0  0  0  0  0  0  0  0
    0.5448   -2.2164    3.7685 H   0  0  0  0  0  0  0  0  0  0  0  0
    1.3900   -2.7889    2.3878 H   0  0  0  0  0  0  0  0  0  0  0  0
    1.6254   -1.1696    5.7018 H   0  0  0  0  0  0  0  0  0  0  0  0
    2.6441   -0.0690    4.8044 H   0  0  0  0  0  0  0  0  0  0  0  0
    3.3656   -1.2057    5.9129 H   0  0  0  0  0  0  0  0  0  0  0  0
    1.9816   -3.5174    5.5258 H   0  0  0  0  0  0  0  0  0  0  0  0
  1  2  1  0
  1 40  1  0
  1 41  1  0
  1 42  1  0
  2 38  1  0
  2  3  2  0
  3  8  1  0
  3  4  1  0
  4  5  2  0
  4 43  1  0
  6  5  1  6
  5 44  1  0
  6 22  1  0
  6 37  1  0
  6  7  1  0
  7  8  1  0
  8  9  1  6
  8 12  1  0
  9 10  2  0
  9 11  1  0
 12 18  1  0
 12 13  1  0
 12 45  1  1
 13 14  1  0
 13 17  1  0
 13 46  1  1
 14 15  1  0
 14 16  1  0
 14 47  1  6
 15 48  1  0
 15 49  1  0
 15 50  1  0
 16 51  1  0
 17 18  1  0
 18 19  1  0
 18 52  1  1
 19 20  1  1
 19 21  1  0
 19 38  1  0
 20 53  1  0
 20 54  1  0
 20 55  1  0
 21 22  1  0
 21 56  1  0
 21 57  1  0
 22 23  1  1
 22 24  1  0
 23 58  1  0
 23 59  1  0
 23 60  1  0
 24 37  1  0
 24 25  1  0
 24 61  1  1
 25 26  1  0
 25 62  1  0
 25 63  1  0
 26 27  1  0
 26 64  1  0
 26 65  1  0
 27 35  1  0
 27 28  1  0
 27 66  1  1
 28 29  1  0
 28 30  1  0
 28 31  1  0
 29 67  1  0
 29 68  1  0
 29 69  1  0
 30 70  1  0
 30 71  1  0
 30 72  1  0
 31 32  2  0
 31 33  1  0
 33 34  1  0
 33 73  1  0
 33 74  1  0
 34 35  1  0
 34 75  1  0
 34 76  1  0
 35 36  1  1
 35 37  1  0
 36 77  1  0
 36 78  1  0
 36 79  1  0
 37 80  1  1
 38 39  2  0
M  CHG  1  11  -1
M  END
>  <i_m_ct_stereo_status>  (330) 
1

>  <s_m_source_file>  (330) 
/var/tmp/pbs.5076255.sched01/tmp7rmqr72f/92ch8atech.sdf

>  <i_m_source_file_index>  (330) 
35

>  <i_lp_mmshare_version>  (330) 
48012

>  <i_f3d_flags>  (330) 
0

>  <s_epik_input>  (330) 
Tz1DMUMoW0NIM10pPUMoW0NIXT1bQ0hdMilbQ0BAXShPMykoQyg9TylbT0hdKVtDQEBIXShbQ0BIXShPNClbQ0BIXShbQ0gzXSlbT0hdKVtDQEBIXTRbQ0BdMShbQ0gzXSlbQ0gyXVtDQEBdKFtDQEBdMjM1KShbQ0gzXSlbQ0BASF02W0NASF01W0NAQF03KFtDSDNdKVtDQEBIXShbQ0gyXVtDSDJdNilDKFtDSDNdKShbQ0gzXSlDKD1PKVtDSDJdW0NIMl03

>  <s_epik_cmdline>  (330) 
J2VwaWtfcHl0aG9uJywgJy1waHQnLCAnMi4wJywgJy1waCcsICc3LjAnLCAnLXRuJywgJzgnLCAnLW1hJywgJzIwMCcsICctaW1hZScsICc8aW5maWxlLm1hZT4nLCAnLW9tYWUnLCAnPG91dGZpbGUubWFlPic=

>  <r_lp_tautomer_probability>  (330) 
1

>  <r_epik_Ionization_Penalty>  (330) 
6.75068e-06

>  <r_epik_Ionization_Penalty_Charging>  (330) 
6.70784e-06

>  <r_epik_Ionization_Penalty_Neutral>  (330) 
4.28376e-08

>  <r_epik_State_Penalty>  (330) 
-0

>  <r_epik_Charging_Adjusted_Penalty>  (330) 
6.70784e-06

>  <i_epik_Tot_Q>  (330) 
-1

>  <i_epik_Tot_abs_Q>  (330) 
1

>  <s_lp_Force_Field>  (330) 
OPLS3e

>  <r_lp_Energy>  (330) 
148.933

>  <b_lp_Chiralities_Consistent>  (330) 
1

>  <s_lp_Variant>  (330) 
87:0-1

>  <s_i_glide_gridfile>  (330) 
pfpi4k_grid

>  <i_i_glide_lignum>  (330) 
35

>  <i_i_glide_rotatable_bonds>  (330) 
3

>  <r_i_docking_score>  (330) 
-2.36295

>  <r_i_glide_ligand_efficiency>  (330) 
-0.0605884

>  <r_i_glide_ligand_efficiency_sa>  (330) 
-0.205468

>  <r_i_glide_ligand_efficiency_ln>  (330) 
-0.506683

>  <r_i_glide_gscore>  (330) 
-2.36295

>  <r_i_glide_lipo>  (330) 
-0.214649

>  <r_i_glide_hbond>  (330) 
-0.318256

>  <r_i_glide_metal>  (330) 
-0

>  <r_i_glide_rewards>  (330) 
0

>  <r_i_glide_evdw>  (330) 
-25.2543

>  <r_i_glide_ecoul>  (330) 
-3.51567

>  <r_i_glide_erotb>  (330) 
0.0714601

>  <r_i_glide_esite>  (330) 
-0.111434

>  <r_i_glide_emodel>  (330) 
-31.8433

>  <r_i_glide_energy>  (330) 
-28.77

>  <r_i_glide_einternal>  (330) 
1.06326

>  <r_i_glide_intrahb_reward>  (330) 
-0

>  <i_i_glide_confnum>  (330) 
3

>  <i_i_glide_posenum>  (330) 
10

>  <r_i_glide_eff_state_penalty>  (330) 
0

>  <ligand_id>  (330) 
87

>  <original_smiles>  (330) 
CC1=C2C=CC34OC2(C(=O)O)C2C(C(C)O)OC2C(C)(CC3(C)C2CCC3C(C)(C)C(=O)CCC3(C)C24)C1=O

>  <smiles>  (330) 
[H]OC([H])(C([H])([H])[H])C1([H])OC2([H])C1([H])C1(C(=O)[O-])OC34C([H])=C([H])C1=C(C([H])([H])[H])C(=O)C2(C([H])([H])[H])C([H])([H])C3(C([H])([H])[H])C1([H])C([H])([H])C([H])([H])C2([H])C(C([H])([H])[H])(C([H])([H])[H])C(=O)C([H])([H])C([H])([H])C2(C([H])([H])[H])C41[H]

$$$$
87:0:1
     RDKit          3D

 80 86  0  0  1  0  0  0  0  0999 V2000
    0.3944   -6.8641    5.0698 C   0  0  0  0  0  0  0  0  0  0  0  0
    0.8147   -5.6456    5.9059 C   0  0  0  0  0  0  0  0  0  0  0  0
    0.8127   -4.3579    5.4426 C   0  0  0  0  0  0  0  0  0  0  0  0
    1.0194   -4.3100    4.0335 C   0  0  0  0  0  0  0  0  0  0  0  0
    2.1788   -3.7667    3.6627 C   0  0  0  0  0  0  0  0  0  0  0  0
    3.0537   -3.0132    4.6690 C   0  0  1  0  0  0  0  0  0  0  0  0
    2.1708   -2.2625    5.5067 O   0  0  0  0  0  0  0  0  0  0  0  0
    1.0762   -2.9907    6.1581 C   0  0  1  0  0  0  0  0  0  0  0  0
   -0.1584   -2.0536    5.9635 C   0  0  0  0  0  0  0  0  0  0  0  0
   -0.5370   -1.3302    6.9027 O   0  0  0  0  0  0  0  0  0  0  0  0
   -0.7300   -2.0559    4.8430 O   0  0  0  0  0  0  0  0  0  0  0  0
    1.3901   -3.0498    7.6806 C   0  0  1  0  0  0  0  0  0  0  0  0
    0.4020   -3.4631    8.7912 C   0  0  1  0  0  0  0  0  0  0  0  0
   -1.0258   -4.0401    8.5570 C   0  0  2  0  0  0  0  0  0  0  0  0
   -1.8420   -4.2470    9.8337 C   0  0  0  0  0  0  0  0  0  0  0  0
   -1.0173   -5.2873    7.9127 O   0  0  0  0  0  0  0  0  0  0  0  0
    1.3401   -4.4568    9.3019 O   0  0  0  0  0  0  0  0  0  0  0  0
    2.3376   -4.0842    8.2883 C   0  0  1  0  0  0  0  0  0  0  0  0
    2.8380   -5.3218    7.5128 C   0  0  2  0  0  0  0  0  0  0  0  0
    3.6462   -6.2092    8.4963 C   0  0  0  0  0  0  0  0  0  0  0  0
    3.7872   -5.1009    6.2358 C   0  0  0  0  0  0  0  0  0  0  0  0
    4.0913   -3.6822    5.6613 C   0  0  2  0  0  0  0  0  0  0  0  0
    4.6343   -2.8053    6.8331 C   0  0  0  0  0  0  0  0  0  0  0  0
    5.1012   -3.5334    4.4908 C   0  0  1  0  0  0  0  0  0  0  0  0
    5.4224   -4.6759    3.5173 C   0  0  0  0  0  0  0  0  0  0  0  0
    4.7954   -4.5608    2.1180 C   0  0  0  0  0  0  0  0  0  0  0  0
    4.7763   -3.1214    1.5107 C   0  0  1  0  0  0  0  0  0  0  0  0
    4.1269   -3.0287    0.0652 C   0  0  0  0  0  0  0  0  0  0  0  0
    5.0392   -3.7800   -0.9447 C   0  0  0  0  0  0  0  0  0  0  0  0
    2.7056   -3.6397   -0.0404 C   0  0  0  0  0  0  0  0  0  0  0  0
    4.0006   -1.5450   -0.3778 C   0  0  0  0  0  0  0  0  0  0  0  0
    4.4144   -1.1518   -1.4713 O   0  0  0  0  0  0  0  0  0  0  0  0
    3.3745   -0.5470    0.6060 C   0  0  0  0  0  0  0  0  0  0  0  0
    3.2489   -1.0805    2.0404 C   0  0  0  0  0  0  0  0  0  0  0  0
    4.4655   -1.9143    2.5061 C   0  0  2  0  0  0  0  0  0  0  0  0
    5.6974   -0.9566    2.4516 C   0  0  0  0  0  0  0  0  0  0  0  0
    4.2817   -2.3221    3.9997 C   0  0  1  0  0  0  0  0  0  0  0  0
    1.5600   -6.0817    7.0948 C   0  0  0  0  0  0  0  0  0  0  0  0
    1.1929   -7.0777    7.7296 O   0  0  0  0  0  0  0  0  0  0  0  0
   -0.3643   -7.4143    5.6250 H   0  0  0  0  0  0  0  0  0  0  0  0
    1.2160   -7.5618    4.8729 H   0  0  0  0  0  0  0  0  0  0  0  0
   -0.0736   -6.6400    4.1153 H   0  0  0  0  0  0  0  0  0  0  0  0
    0.3232   -4.6978    3.3164 H   0  0  0  0  0  0  0  0  0  0  0  0
    2.3815   -3.6945    2.6206 H   0  0  0  0  0  0  0  0  0  0  0  0
    1.7649   -2.0730    7.9793 H   0  0  0  0  0  0  0  0  0  0  0  0
    0.3557   -2.6287    9.4949 H   0  0  0  0  0  0  0  0  0  0  0  0
   -1.5778   -3.3734    7.8991 H   0  0  0  0  0  0  0  0  0  0  0  0
   -1.9823   -3.3219   10.4021 H   0  0  0  0  0  0  0  0  0  0  0  0
   -1.3669   -4.9879   10.4839 H   0  0  0  0  0  0  0  0  0  0  0  0
   -2.8264   -4.6330    9.5622 H   0  0  0  0  0  0  0  0  0  0  0  0
   -0.3495   -5.2682    7.2477 H   0  0  0  0  0  0  0  0  0  0  0  0
    3.1600   -3.5914    8.8148 H   0  0  0  0  0  0  0  0  0  0  0  0
    4.5542   -5.7079    8.8372 H   0  0  0  0  0  0  0  0  0  0  0  0
    3.9454   -7.1540    8.0321 H   0  0  0  0  0  0  0  0  0  0  0  0
    3.0685   -6.4621    9.3834 H   0  0  0  0  0  0  0  0  0  0  0  0
    4.7593   -5.5671    6.4280 H   0  0  0  0  0  0  0  0  0  0  0  0
    3.4220   -5.7012    5.4035 H   0  0  0  0  0  0  0  0  0  0  0  0
    5.1189   -3.4076    7.6003 H   0  0  0  0  0  0  0  0  0  0  0  0
    3.8724   -2.1920    7.3001 H   0  0  0  0  0  0  0  0  0  0  0  0
    5.3812   -2.0689    6.5284 H   0  0  0  0  0  0  0  0  0  0  0  0
    6.0540   -3.1631    4.8570 H   0  0  0  0  0  0  0  0  0  0  0  0
    6.4978   -4.7146    3.3720 H   0  0  0  0  0  0  0  0  0  0  0  0
    5.1815   -5.6439    3.9491 H   0  0  0  0  0  0  0  0  0  0  0  0
    5.3644   -5.2149    1.4613 H   0  0  0  0  0  0  0  0  0  0  0  0
    3.8187   -5.0312    2.1379 H   0  0  0  0  0  0  0  0  0  0  0  0
    5.8402   -3.0072    1.3089 H   0  0  0  0  0  0  0  0  0  0  0  0
    5.0831   -4.8484   -0.7357 H   0  0  0  0  0  0  0  0  0  0  0  0
    6.0599   -3.3939   -0.9242 H   0  0  0  0  0  0  0  0  0  0  0  0
    4.6776   -3.6812   -1.9709 H   0  0  0  0  0  0  0  0  0  0  0  0
    2.6776   -4.6871    0.2530 H   0  0  0  0  0  0  0  0  0  0  0  0
    2.3429   -3.5995   -1.0694 H   0  0  0  0  0  0  0  0  0  0  0  0
    1.9714   -3.1020    0.5531 H   0  0  0  0  0  0  0  0  0  0  0  0
    3.9959    0.3517    0.6034 H   0  0  0  0  0  0  0  0  0  0  0  0
    2.3937   -0.2519    0.2434 H   0  0  0  0  0  0  0  0  0  0  0  0
    3.1135   -0.2270    2.7119 H   0  0  0  0  0  0  0  0  0  0  0  0
    2.3156   -1.6316    2.1274 H   0  0  0  0  0  0  0  0  0  0  0  0
    5.5229   -0.0302    3.0042 H   0  0  0  0  0  0  0  0  0  0  0  0
    5.9742   -0.6735    1.4343 H   0  0  0  0  0  0  0  0  0  0  0  0
    6.5792   -1.4275    2.8753 H   0  0  0  0  0  0  0  0  0  0  0  0
    4.4861   -1.4365    4.5991 H   0  0  0  0  0  0  0  0  0  0  0  0
  1  2  1  0
  1 40  1  0
  1 41  1  0
  1 42  1  0
  2 38  1  0
  2  3  2  0
  3  8  1  0
  3  4  1  0
  4  5  2  0
  4 43  1  0
  6  5  1  6
  5 44  1  0
  6 22  1  0
  6 37  1  0
  6  7  1  0
  7  8  1  0
  8  9  1  1
  8 12  1  0
  9 10  2  0
  9 11  1  0
 12 18  1  0
 12 13  1  0
 12 45  1  1
 13 14  1  0
 13 17  1  0
 13 46  1  1
 14 15  1  0
 14 16  1  0
 14 47  1  6
 15 48  1  0
 15 49  1  0
 15 50  1  0
 16 51  1  0
 17 18  1  0
 18 19  1  0
 18 52  1  1
 19 20  1  1
 19 21  1  0
 19 38  1  0
 20 53  1  0
 20 54  1  0
 20 55  1  0
 21 22  1  0
 21 56  1  0
 21 57  1  0
 22 23  1  1
 22 24  1  0
 23 58  1  0
 23 59  1  0
 23 60  1  0
 24 37  1  0
 24 25  1  0
 24 61  1  1
 25 26  1  0
 25 62  1  0
 25 63  1  0
 26 27  1  0
 26 64  1  0
 26 65  1  0
 27 35  1  0
 27 28  1  0
 27 66  1  6
 28 29  1  0
 28 30  1  0
 28 31  1  0
 29 67  1  0
 29 68  1  0
 29 69  1  0
 30 70  1  0
 30 71  1  0
 30 72  1  0
 31 32  2  0
 31 33  1  0
 33 34  1  0
 33 73  1  0
 33 74  1  0
 34 35  1  0
 34 75  1  0
 34 76  1  0
 35 36  1  1
 35 37  1  0
 36 77  1  0
 36 78  1  0
 36 79  1  0
 37 80  1  1
 38 39  2  0
M  CHG  1  11  -1
M  END
>  <i_m_ct_stereo_status>  (331) 
1

>  <s_m_source_file>  (331) 
/var/tmp/pbs.5076255.sched01/tmp7rmqr72f/92ch8atech.sdf

>  <i_m_source_file_index>  (331) 
35

>  <i_lp_mmshare_version>  (331) 
48012

>  <i_f3d_flags>  (331) 
0

>  <s_epik_input>  (331) 
Tz1DMUMoW0NIM10pPUMoW0NIXT1bQ0hdMilbQ0BAXShPMykoQyg9TylbT0hdKVtDQEBIXShbQ0BIXShPNClbQ0BIXShbQ0gzXSlbT0hdKVtDQEBIXTRbQ0BdMShbQ0gzXSlbQ0gyXVtDQEBdKFtDQEBdMjM1KShbQ0gzXSlbQ0BASF02W0NASF01W0NAQF03KFtDSDNdKVtDQEBIXShbQ0gyXVtDSDJdNilDKFtDSDNdKShbQ0gzXSlDKD1PKVtDSDJdW0NIMl03

>  <s_epik_cmdline>  (331) 
J2VwaWtfcHl0aG9uJywgJy1waHQnLCAnMi4wJywgJy1waCcsICc3LjAnLCAnLXRuJywgJzgnLCAnLW1hJywgJzIwMCcsICctaW1hZScsICc8aW5maWxlLm1hZT4nLCAnLW9tYWUnLCAnPG91dGZpbGUubWFlPic=

>  <r_lp_tautomer_probability>  (331) 
1

>  <r_epik_Ionization_Penalty>  (331) 
6.75068e-06

>  <r_epik_Ionization_Penalty_Charging>  (331) 
6.70784e-06

>  <r_epik_Ionization_Penalty_Neutral>  (331) 
4.28376e-08

>  <r_epik_State_Penalty>  (331) 
-0

>  <r_epik_Charging_Adjusted_Penalty>  (331) 
6.70784e-06

>  <i_epik_Tot_Q>  (331) 
-1

>  <i_epik_Tot_abs_Q>  (331) 
1

>  <s_lp_Force_Field>  (331) 
OPLS3e

>  <r_lp_Energy>  (331) 
148.933

>  <b_lp_Chiralities_Consistent>  (331) 
1

>  <s_lp_Variant>  (331) 
87:0-1

>  <s_i_glide_gridfile>  (331) 
pfpi4k_grid

>  <i_i_glide_lignum>  (331) 
35

>  <i_i_glide_rotatable_bonds>  (331) 
3

>  <r_i_docking_score>  (331) 
-1.52606

>  <r_i_glide_ligand_efficiency>  (331) 
-0.0391298

>  <r_i_glide_ligand_efficiency_sa>  (331) 
-0.132697

>  <r_i_glide_ligand_efficiency_ln>  (331) 
-0.327231

>  <r_i_glide_gscore>  (331) 
-1.52606

>  <r_i_glide_lipo>  (331) 
-0.255264

>  <r_i_glide_hbond>  (331) 
-0.00411649

>  <r_i_glide_metal>  (331) 
-0

>  <r_i_glide_rewards>  (331) 
0

>  <r_i_glide_evdw>  (331) 
-21.7378

>  <r_i_glide_ecoul>  (331) 
-1.18028

>  <r_i_glide_erotb>  (331) 
0.0714601

>  <r_i_glide_esite>  (331) 
-0.0742096

>  <r_i_glide_emodel>  (331) 
-23.4144

>  <r_i_glide_energy>  (331) 
-22.9181

>  <r_i_glide_einternal>  (331) 
2.54145

>  <r_i_glide_intrahb_reward>  (331) 
-0

>  <i_i_glide_confnum>  (331) 
5

>  <i_i_glide_posenum>  (331) 
40

>  <r_i_glide_eff_state_penalty>  (331) 
0

>  <ligand_id>  (331) 
87

>  <original_smiles>  (331) 
CC1=C2C=CC34OC2(C(=O)O)C2C(C(C)O)OC2C(C)(CC3(C)C2CCC3C(C)(C)C(=O)CCC3(C)C24)C1=O

>  <smiles>  (331) 
[H]OC([H])(C([H])([H])[H])C1([H])OC2([H])C1([H])C1(C(=O)[O-])OC34C([H])=C([H])C1=C(C([H])([H])[H])C(=O)C2(C([H])([H])[H])C([H])([H])C3(C([H])([H])[H])C1([H])C([H])([H])C([H])([H])C2([H])C(C([H])([H])[H])(C([H])([H])[H])C(=O)C([H])([H])C([H])([H])C2(C([H])([H])[H])C41[H]

$$$$
88:0:0
     RDKit          3D

 57 61  0  0  1  0  0  0  0  0999 V2000
    8.3707   -2.9349   -1.1269 C   0  0  0  0  0  0  0  0  0  0  0  0
    7.2419   -3.5510   -0.3292 C   0  0  0  0  0  0  0  0  0  0  0  0
    5.8924   -3.2215   -0.5936 C   0  0  0  0  0  0  0  0  0  0  0  0
    4.8719   -3.8236    0.1596 C   0  0  0  0  0  0  0  0  0  0  0  0
    5.1634   -4.7642    1.1839 C   0  0  0  0  0  0  0  0  0  0  0  0
    4.0948   -5.2624    1.9029 O   0  0  0  0  0  0  0  0  0  0  0  0
    4.2260   -6.3826    2.7459 C   0  0  2  0  0  0  0  0  0  0  0  0
    3.4945   -7.4731    2.1909 O   0  0  0  0  0  0  0  0  0  0  0  0
    3.2521   -8.4700    3.1371 C   0  0  2  0  0  0  0  0  0  0  0  0
    3.0908   -9.7539    2.6647 O   0  0  0  0  0  0  0  0  0  0  0  0
    2.5933  -10.6111    3.6921 C   0  0  2  0  0  0  0  0  0  0  0  0
    3.3600  -11.9391    3.6274 C   0  0  0  0  0  0  0  0  0  0  0  0
    1.1240  -10.8501    3.3218 C   0  0  0  0  0  0  0  0  0  0  0  0
    0.4386   -9.5741    2.8448 C   0  0  0  0  0  0  0  0  0  0  0  0
    0.6213   -8.4779    3.8966 C   0  0  2  0  0  0  0  0  0  0  0  0
   -0.4075   -7.3189    3.8566 C   0  0  1  0  0  0  0  0  0  0  0  0
   -1.8607   -7.8305    3.8863 C   0  0  0  0  0  0  0  0  0  0  0  0
   -0.1890   -6.3414    5.0449 C   0  0  0  0  0  0  0  0  0  0  0  0
    1.2768   -5.8940    5.2583 C   0  0  0  0  0  0  0  0  0  0  0  0
    2.1953   -6.4651    4.1787 C   0  0  1  0  0  0  0  0  0  0  0  0
    3.6386   -5.9611    4.1482 C   0  0  1  0  0  0  0  0  0  0  0  0
    4.5303   -6.4263    5.3290 C   0  0  0  0  0  0  0  0  0  0  0  0
    2.1160   -8.0187    4.1118 C   0  0  2  0  0  0  0  0  0  0  0  0
    2.4775   -8.6558    5.3178 O   0  0  0  0  0  0  0  0  0  0  0  0
    2.7916  -10.1511    5.0598 O   0  0  0  0  0  0  0  0  0  0  0  0
    6.5240   -5.0898    1.4239 C   0  0  0  0  0  0  0  0  0  0  0  0
    7.5389   -4.4844    0.6669 C   0  0  0  0  0  0  0  0  0  0  0  0
    8.0130   -2.2572   -1.8944 H   0  0  0  0  0  0  0  0  0  0  0  0
    8.9475   -3.7111   -1.6290 H   0  0  0  0  0  0  0  0  0  0  0  0
    9.0514   -2.3869   -0.4746 H   0  0  0  0  0  0  0  0  0  0  0  0
    5.6523   -2.5118   -1.3693 H   0  0  0  0  0  0  0  0  0  0  0  0
    3.8438   -3.5576   -0.0584 H   0  0  0  0  0  0  0  0  0  0  0  0
    5.2494   -6.7332    2.8620 H   0  0  0  0  0  0  0  0  0  0  0  0
    4.2058   -8.5921    3.6661 H   0  0  0  0  0  0  0  0  0  0  0  0
    4.4139  -11.8115    3.8701 H   0  0  0  0  0  0  0  0  0  0  0  0
    3.2968  -12.3793    2.6320 H   0  0  0  0  0  0  0  0  0  0  0  0
    2.9450  -12.6573    4.3373 H   0  0  0  0  0  0  0  0  0  0  0  0
    1.0517  -11.5603    2.4998 H   0  0  0  0  0  0  0  0  0  0  0  0
    0.5882  -11.2899    4.1656 H   0  0  0  0  0  0  0  0  0  0  0  0
    0.8305   -9.2347    1.8818 H   0  0  0  0  0  0  0  0  0  0  0  0
   -0.6040   -9.8455    2.6881 H   0  0  0  0  0  0  0  0  0  0  0  0
    0.3281   -8.9716    4.8247 H   0  0  0  0  0  0  0  0  0  0  0  0
   -0.2741   -6.7685    2.9253 H   0  0  0  0  0  0  0  0  0  0  0  0
   -1.9956   -8.5632    4.6825 H   0  0  0  0  0  0  0  0  0  0  0  0
   -2.1464   -8.3177    2.9545 H   0  0  0  0  0  0  0  0  0  0  0  0
   -2.5826   -7.0352    4.0652 H   0  0  0  0  0  0  0  0  0  0  0  0
   -0.8061   -5.4547    4.8967 H   0  0  0  0  0  0  0  0  0  0  0  0
   -0.5426   -6.7972    5.9728 H   0  0  0  0  0  0  0  0  0  0  0  0
    1.3265   -4.8012    5.2725 H   0  0  0  0  0  0  0  0  0  0  0  0
    1.6140   -6.2233    6.2419 H   0  0  0  0  0  0  0  0  0  0  0  0
    1.7745   -6.0695    3.2518 H   0  0  0  0  0  0  0  0  0  0  0  0
    3.6120   -4.8769    4.1608 H   0  0  0  0  0  0  0  0  0  0  0  0
    4.6292   -7.5145    5.4193 H   0  0  0  0  0  0  0  0  0  0  0  0
    4.1375   -6.0568    6.2819 H   0  0  0  0  0  0  0  0  0  0  0  0
    5.5436   -6.0249    5.2499 H   0  0  0  0  0  0  0  0  0  0  0  0
    6.8170   -5.7825    2.1855 H   0  0  0  0  0  0  0  0  0  0  0  0
    8.5583   -4.7507    0.8742 H   0  0  0  0  0  0  0  0  0  0  0  0
  1  2  1  0
  1 28  1  0
  1 29  1  0
  1 30  1  0
  2 27  2  0
  2  3  1  0
  3  4  2  0
  3 31  1  0
  4  5  1  0
  4 32  1  0
  5  6  1  0
  5 26  2  0
  6  7  1  0
  7 21  1  0
  7  8  1  0
  7 33  1  1
  8  9  1  0
  9 23  1  0
  9 10  1  0
  9 34  1  1
 10 11  1  0
 11 25  1  0
 11 12  1  1
 11 13  1  0
 12 35  1  0
 12 36  1  0
 12 37  1  0
 13 14  1  0
 13 38  1  0
 13 39  1  0
 14 15  1  0
 14 40  1  0
 14 41  1  0
 15 23  1  0
 15 16  1  0
 15 42  1  1
 16 17  1  0
 16 18  1  0
 16 43  1  6
 17 44  1  0
 17 45  1  0
 17 46  1  0
 18 19  1  0
 18 47  1  0
 18 48  1  0
 19 20  1  0
 19 49  1  0
 19 50  1  0
 20 21  1  0
 20 23  1  0
 20 51  1  6
 21 22  1  0
 21 52  1  6
 22 53  1  0
 22 54  1  0
 22 55  1  0
 23 24  1  1
 24 25  1  0
 26 27  1  0
 26 56  1  0
 27 57  1  0
M  END
>  <i_m_ct_stereo_status>  (332) 
1

>  <s_m_source_file>  (332) 
/var/tmp/pbs.5076255.sched01/tmp7rmqr72f/92ch8atech.sdf

>  <i_m_source_file_index>  (332) 
36

>  <i_lp_mmshare_version>  (332) 
48012

>  <i_f3d_flags>  (332) 
0

>  <s_epik_input>  (332) 
W0NIM11jMVtjSF1bY0hdYyhbY0hdW2NIXTEpT1tDQEhdKE9bQ0BIXTJbQ0BdMzQ1KVtDQEhdKFtDSDNdKVtDQEBIXTRbQ0gyXVtDSDJdW0NASF0oW0NIM10pW0NASF0zW0NIMl1bQ0gyXVtDQF0oTzIpKFtDSDNdKU9PNQ==

>  <s_epik_cmdline>  (332) 
J2VwaWtfcHl0aG9uJywgJy1waHQnLCAnMi4wJywgJy1waCcsICc3LjAnLCAnLXRuJywgJzgnLCAnLW1hJywgJzIwMCcsICctaW1hZScsICc8aW5maWxlLm1hZT4nLCAnLW9tYWUnLCAnPG91dGZpbGUubWFlPic=

>  <r_lp_tautomer_probability>  (332) 
1

>  <r_epik_Ionization_Penalty>  (332) 
1.18402e-15

>  <r_epik_Ionization_Penalty_Charging>  (332) 
0

>  <r_epik_Ionization_Penalty_Neutral>  (332) 
1.18402e-15

>  <r_epik_State_Penalty>  (332) 
-0

>  <r_epik_Charging_Adjusted_Penalty>  (332) 
0

>  <i_epik_Tot_Q>  (332) 
0

>  <i_epik_Tot_abs_Q>  (332) 
0

>  <s_epik_Chemistry_Notes>  (332) 
This compound contains an acetal/aminal-like group ( X-CH(R)-Y where X, Y are N, S, or O) that may be acid/base labile, releasing an aldehyde.

>  <s_lp_Force_Field>  (332) 
OPLS3e

>  <r_lp_Energy>  (332) 
75.5154

>  <b_lp_Chiralities_Consistent>  (332) 
1

>  <s_lp_Variant>  (332) 
88:0-1

>  <s_i_glide_gridfile>  (332) 
pfpi4k_grid

>  <i_i_glide_lignum>  (332) 
36

>  <i_i_glide_rotatable_bonds>  (332) 
2

>  <r_i_docking_score>  (332) 
-2.49486

>  <r_i_glide_ligand_efficiency>  (332) 
-0.0924021

>  <r_i_glide_ligand_efficiency_sa>  (332) 
-0.277206

>  <r_i_glide_ligand_efficiency_ln>  (332) 
-0.580761

>  <r_i_glide_gscore>  (332) 
-2.49486

>  <r_i_glide_lipo>  (332) 
-0.731379

>  <r_i_glide_hbond>  (332) 
0

>  <r_i_glide_metal>  (332) 
-0

>  <r_i_glide_rewards>  (332) 
-0.855882

>  <r_i_glide_evdw>  (332) 
-23.2202

>  <r_i_glide_ecoul>  (332) 
-0.0889207

>  <r_i_glide_erotb>  (332) 
0.275784

>  <r_i_glide_esite>  (332) 
-0.00902874

>  <r_i_glide_emodel>  (332) 
-26.1221

>  <r_i_glide_energy>  (332) 
-23.3092

>  <r_i_glide_einternal>  (332) 
2.48342

>  <r_i_glide_intrahb_reward>  (332) 
-0

>  <i_i_glide_confnum>  (332) 
1

>  <i_i_glide_posenum>  (332) 
3

>  <r_i_glide_eff_state_penalty>  (332) 
0

>  <ligand_id>  (332) 
88

>  <original_smiles>  (332) 
Cc1ccc(OC2OC3OC4(C)CCC5C(C)CCC(C2C)C35OO4)cc1

>  <smiles>  (332) 
[H]c1c([H])c(C([H])([H])[H])c([H])c([H])c1OC1([H])OC2([H])OC3(C([H])([H])[H])OOC24C([H])(C([H])([H])C([H])([H])C([H])(C([H])([H])[H])C4([H])C([H])([H])C3([H])[H])C1([H])C([H])([H])[H]

$$$$
88:0:1
     RDKit          3D

 57 61  0  0  1  0  0  0  0  0999 V2000
    0.6658  -10.6776    2.8441 C   0  0  0  0  0  0  0  0  0  0  0  0
    0.3520   -9.3362    3.4656 C   0  0  0  0  0  0  0  0  0  0  0  0
   -0.8975   -8.7199    3.2570 C   0  0  0  0  0  0  0  0  0  0  0  0
   -1.1737   -7.4754    3.8470 C   0  0  0  0  0  0  0  0  0  0  0  0
   -0.2141   -6.8196    4.6494 C   0  0  0  0  0  0  0  0  0  0  0  0
   -0.5680   -5.5894    5.1638 O   0  0  0  0  0  0  0  0  0  0  0  0
    0.3236   -4.8493    5.9477 C   0  0  2  0  0  0  0  0  0  0  0  0
   -0.4173   -3.8096    6.5801 O   0  0  0  0  0  0  0  0  0  0  0  0
    0.3808   -2.7558    7.0244 C   0  0  2  0  0  0  0  0  0  0  0  0
   -0.1422   -1.9818    8.0376 O   0  0  0  0  0  0  0  0  0  0  0  0
    0.6387   -0.8033    8.2372 C   0  0  2  0  0  0  0  0  0  0  0  0
    0.8092   -0.5888    9.7468 C   0  0  0  0  0  0  0  0  0  0  0  0
   -0.2052    0.3391    7.6640 C   0  0  0  0  0  0  0  0  0  0  0  0
   -0.8600   -0.0385    6.3370 C   0  0  0  0  0  0  0  0  0  0  0  0
    0.2074   -0.5540    5.3748 C   0  0  2  0  0  0  0  0  0  0  0  0
   -0.1583   -0.4813    3.8675 C   0  0  1  0  0  0  0  0  0  0  0  0
   -0.6221    0.9262    3.4447 C   0  0  0  0  0  0  0  0  0  0  0  0
    1.0365   -0.9120    2.9753 C   0  0  0  0  0  0  0  0  0  0  0  0
    1.7327   -2.2201    3.4173 C   0  0  0  0  0  0  0  0  0  0  0  0
    1.0125   -2.8665    4.6094 C   0  0  1  0  0  0  0  0  0  0  0  0
    1.4723   -4.2594    5.0328 C   0  0  1  0  0  0  0  0  0  0  0  0
    2.8673   -4.3032    5.7078 C   0  0  0  0  0  0  0  0  0  0  0  0
    0.9080   -1.9009    5.8177 C   0  0  2  0  0  0  0  0  0  0  0  0
    2.1531   -1.4481    6.3006 O   0  0  0  0  0  0  0  0  0  0  0  0
    1.9992   -0.8492    7.7212 O   0  0  0  0  0  0  0  0  0  0  0  0
    1.0371   -7.4568    4.8613 C   0  0  0  0  0  0  0  0  0  0  0  0
    1.3145   -8.7038    4.2655 C   0  0  0  0  0  0  0  0  0  0  0  0
   -0.1670  -11.0522    2.2508 H   0  0  0  0  0  0  0  0  0  0  0  0
    0.8910  -11.4109    3.6175 H   0  0  0  0  0  0  0  0  0  0  0  0
    1.5321  -10.5936    2.1901 H   0  0  0  0  0  0  0  0  0  0  0  0
   -1.6459   -9.2090    2.6525 H   0  0  0  0  0  0  0  0  0  0  0  0
   -2.1386   -7.0189    3.6891 H   0  0  0  0  0  0  0  0  0  0  0  0
    0.7157   -5.4900    6.7389 H   0  0  0  0  0  0  0  0  0  0  0  0
    1.2082   -3.2452    7.5425 H   0  0  0  0  0  0  0  0  0  0  0  0
    1.3939   -1.3867   10.2047 H   0  0  0  0  0  0  0  0  0  0  0  0
   -0.1561   -0.5479   10.2535 H   0  0  0  0  0  0  0  0  0  0  0  0
    1.3247    0.3533    9.9475 H   0  0  0  0  0  0  0  0  0  0  0  0
   -1.0029    0.5985    8.3598 H   0  0  0  0  0  0  0  0  0  0  0  0
    0.4077    1.2346    7.5528 H   0  0  0  0  0  0  0  0  0  0  0  0
   -1.6392   -0.7935    6.4532 H   0  0  0  0  0  0  0  0  0  0  0  0
   -1.3500    0.8639    5.9775 H   0  0  0  0  0  0  0  0  0  0  0  0
    0.9828    0.2132    5.4216 H   0  0  0  0  0  0  0  0  0  0  0  0
   -0.9897   -1.1586    3.6844 H   0  0  0  0  0  0  0  0  0  0  0  0
    0.0808    1.6872    3.7888 H   0  0  0  0  0  0  0  0  0  0  0  0
   -1.6029    1.1739    3.8525 H   0  0  0  0  0  0  0  0  0  0  0  0
   -0.6992    1.0259    2.3611 H   0  0  0  0  0  0  0  0  0  0  0  0
    0.6978   -1.0170    1.9408 H   0  0  0  0  0  0  0  0  0  0  0  0
    1.7850   -0.1175    2.9576 H   0  0  0  0  0  0  0  0  0  0  0  0
    1.7770   -2.9117    2.5725 H   0  0  0  0  0  0  0  0  0  0  0  0
    2.7679   -2.0085    3.6850 H   0  0  0  0  0  0  0  0  0  0  0  0
    0.0020   -3.0450    4.2347 H   0  0  0  0  0  0  0  0  0  0  0  0
    1.5366   -4.8616    4.1340 H   0  0  0  0  0  0  0  0  0  0  0  0
    2.9482   -3.6909    6.6046 H   0  0  0  0  0  0  0  0  0  0  0  0
    3.6392   -3.9658    5.0110 H   0  0  0  0  0  0  0  0  0  0  0  0
    3.1529   -5.3116    5.9976 H   0  0  0  0  0  0  0  0  0  0  0  0
    1.8039   -7.0114    5.4686 H   0  0  0  0  0  0  0  0  0  0  0  0
    2.2728   -9.1664    4.4300 H   0  0  0  0  0  0  0  0  0  0  0  0
  1  2  1  0
  1 28  1  0
  1 29  1  0
  1 30  1  0
  2 27  2  0
  2  3  1  0
  3  4  2  0
  3 31  1  0
  4  5  1  0
  4 32  1  0
  5  6  1  0
  5 26  2  0
  6  7  1  0
  7 21  1  0
  7  8  1  0
  7 33  1  1
  8  9  1  0
  9 23  1  0
  9 10  1  0
  9 34  1  1
 10 11  1  0
 11 25  1  0
 11 12  1  1
 11 13  1  0
 12 35  1  0
 12 36  1  0
 12 37  1  0
 13 14  1  0
 13 38  1  0
 13 39  1  0
 14 15  1  0
 14 40  1  0
 14 41  1  0
 15 23  1  0
 15 16  1  0
 15 42  1  6
 16 17  1  0
 16 18  1  0
 16 43  1  1
 17 44  1  0
 17 45  1  0
 17 46  1  0
 18 19  1  0
 18 47  1  0
 18 48  1  0
 19 20  1  0
 19 49  1  0
 19 50  1  0
 20 21  1  0
 20 23  1  0
 20 51  1  6
 21 22  1  0
 21 52  1  6
 22 53  1  0
 22 54  1  0
 22 55  1  0
 23 24  1  1
 24 25  1  0
 26 27  1  0
 26 56  1  0
 27 57  1  0
M  END
>  <i_m_ct_stereo_status>  (333) 
1

>  <s_m_source_file>  (333) 
/var/tmp/pbs.5076255.sched01/tmp7rmqr72f/92ch8atech.sdf

>  <i_m_source_file_index>  (333) 
36

>  <i_lp_mmshare_version>  (333) 
48012

>  <i_f3d_flags>  (333) 
0

>  <s_epik_input>  (333) 
W0NIM11jMVtjSF1bY0hdYyhbY0hdW2NIXTEpT1tDQEhdKE9bQ0BIXTJbQ0BdMzQ1KVtDQEhdKFtDSDNdKVtDQEBIXTRbQ0gyXVtDSDJdW0NASF0oW0NIM10pW0NASF0zW0NIMl1bQ0gyXVtDQF0oTzIpKFtDSDNdKU9PNQ==

>  <s_epik_cmdline>  (333) 
J2VwaWtfcHl0aG9uJywgJy1waHQnLCAnMi4wJywgJy1waCcsICc3LjAnLCAnLXRuJywgJzgnLCAnLW1hJywgJzIwMCcsICctaW1hZScsICc8aW5maWxlLm1hZT4nLCAnLW9tYWUnLCAnPG91dGZpbGUubWFlPic=

>  <r_lp_tautomer_probability>  (333) 
1

>  <r_epik_Ionization_Penalty>  (333) 
1.18402e-15

>  <r_epik_Ionization_Penalty_Charging>  (333) 
0

>  <r_epik_Ionization_Penalty_Neutral>  (333) 
1.18402e-15

>  <r_epik_State_Penalty>  (333) 
-0

>  <r_epik_Charging_Adjusted_Penalty>  (333) 
0

>  <i_epik_Tot_Q>  (333) 
0

>  <i_epik_Tot_abs_Q>  (333) 
0

>  <s_epik_Chemistry_Notes>  (333) 
This compound contains an acetal/aminal-like group ( X-CH(R)-Y where X, Y are N, S, or O) that may be acid/base labile, releasing an aldehyde.

>  <s_lp_Force_Field>  (333) 
OPLS3e

>  <r_lp_Energy>  (333) 
75.5154

>  <b_lp_Chiralities_Consistent>  (333) 
1

>  <s_lp_Variant>  (333) 
88:0-1

>  <s_i_glide_gridfile>  (333) 
pfpi4k_grid

>  <i_i_glide_lignum>  (333) 
36

>  <i_i_glide_rotatable_bonds>  (333) 
2

>  <r_i_docking_score>  (333) 
-2.19558

>  <r_i_glide_ligand_efficiency>  (333) 
-0.0813176

>  <r_i_glide_ligand_efficiency_sa>  (333) 
-0.243953

>  <r_i_glide_ligand_efficiency_ln>  (333) 
-0.511094

>  <r_i_glide_gscore>  (333) 
-2.19558

>  <r_i_glide_lipo>  (333) 
-0.148488

>  <r_i_glide_hbond>  (333) 
-0.106444

>  <r_i_glide_metal>  (333) 
-0

>  <r_i_glide_rewards>  (333) 
-0.855882

>  <r_i_glide_evdw>  (333) 
-19.048

>  <r_i_glide_ecoul>  (333) 
-2.31927

>  <r_i_glide_erotb>  (333) 
0.275784

>  <r_i_glide_esite>  (333) 
-0.0602577

>  <r_i_glide_emodel>  (333) 
-24.6825

>  <r_i_glide_energy>  (333) 
-21.3672

>  <r_i_glide_einternal>  (333) 
0.632814

>  <r_i_glide_intrahb_reward>  (333) 
-0

>  <i_i_glide_confnum>  (333) 
4

>  <i_i_glide_posenum>  (333) 
24

>  <r_i_glide_eff_state_penalty>  (333) 
0

>  <ligand_id>  (333) 
88

>  <original_smiles>  (333) 
Cc1ccc(OC2OC3OC4(C)CCC5C(C)CCC(C2C)C35OO4)cc1

>  <smiles>  (333) 
[H]c1c([H])c(C([H])([H])[H])c([H])c([H])c1OC1([H])OC2([H])OC3(C([H])([H])[H])OOC24C([H])(C([H])([H])C([H])([H])C([H])(C([H])([H])[H])C4([H])C([H])([H])C3([H])[H])C1([H])C([H])([H])[H]

$$$$
88:0:2
     RDKit          3D

 57 61  0  0  1  0  0  0  0  0999 V2000
    0.9864  -11.7319    4.2078 C   0  0  0  0  0  0  0  0  0  0  0  0
    1.0980  -10.2560    3.8757 C   0  0  0  0  0  0  0  0  0  0  0  0
    0.2890   -9.6743    2.8811 C   0  0  0  0  0  0  0  0  0  0  0  0
    0.4165   -8.3041    2.5801 C   0  0  0  0  0  0  0  0  0  0  0  0
    1.3496   -7.4907    3.2574 C   0  0  0  0  0  0  0  0  0  0  0  0
    1.4156   -6.1624    2.8688 O   0  0  0  0  0  0  0  0  0  0  0  0
    2.3118   -5.2861    3.4962 C   0  0  2  0  0  0  0  0  0  0  0  0
    1.8635   -3.9614    3.2387 O   0  0  0  0  0  0  0  0  0  0  0  0
    2.8635   -2.9990    3.3961 C   0  0  2  0  0  0  0  0  0  0  0  0
    2.4506   -1.7134    3.6710 O   0  0  0  0  0  0  0  0  0  0  0  0
    3.5307   -0.7884    3.5549 C   0  0  2  0  0  0  0  0  0  0  0  0
    3.4445    0.1928    4.7306 C   0  0  0  0  0  0  0  0  0  0  0  0
    3.2751   -0.0295    2.2504 C   0  0  0  0  0  0  0  0  0  0  0  0
    2.8249   -0.9587    1.1312 C   0  0  0  0  0  0  0  0  0  0  0  0
    3.8201   -2.1054    0.9788 C   0  0  2  0  0  0  0  0  0  0  0  0
    3.8277   -2.8183   -0.4032 C   0  0  1  0  0  0  0  0  0  0  0  0
    3.9862   -1.8226   -1.5702 C   0  0  0  0  0  0  0  0  0  0  0  0
    4.9590   -3.8789   -0.4802 C   0  0  0  0  0  0  0  0  0  0  0  0
    5.0508   -4.8200    0.7444 C   0  0  0  0  0  0  0  0  0  0  0  0
    3.9177   -4.5502    1.7432 C   0  0  1  0  0  0  0  0  0  0  0  0
    3.7586   -5.5282    2.9102 C   0  0  1  0  0  0  0  0  0  0  0  0
    4.8818   -5.4539    3.9799 C   0  0  0  0  0  0  0  0  0  0  0  0
    3.9024   -3.0744    2.2235 C   0  0  2  0  0  0  0  0  0  0  0  0
    5.0976   -2.6603    2.8503 O   0  0  0  0  0  0  0  0  0  0  0  0
    4.8679   -1.3569    3.6536 O   0  0  0  0  0  0  0  0  0  0  0  0
    2.1521   -8.0866    4.2689 C   0  0  0  0  0  0  0  0  0  0  0  0
    2.0229   -9.4611    4.5680 C   0  0  0  0  0  0  0  0  0  0  0  0
    0.2311  -12.2204    3.6002 H   0  0  0  0  0  0  0  0  0  0  0  0
    0.7105  -11.8604    5.2517 H   0  0  0  0  0  0  0  0  0  0  0  0
    1.9377  -12.2338    4.0415 H   0  0  0  0  0  0  0  0  0  0  0  0
   -0.4244  -10.2766    2.3388 H   0  0  0  0  0  0  0  0  0  0  0  0
   -0.2052   -7.8809    1.8045 H   0  0  0  0  0  0  0  0  0  0  0  0
    2.2710   -5.4148    4.5786 H   0  0  0  0  0  0  0  0  0  0  0  0
    3.3209   -3.2498    4.3549 H   0  0  0  0  0  0  0  0  0  0  0  0
    3.6031   -0.3081    5.6854 H   0  0  0  0  0  0  0  0  0  0  0  0
    2.4671    0.6755    4.7621 H   0  0  0  0  0  0  0  0  0  0  0  0
    4.1984    0.9767    4.6336 H   0  0  0  0  0  0  0  0  0  0  0  0
    2.4774    0.7006    2.3897 H   0  0  0  0  0  0  0  0  0  0  0  0
    4.1639    0.5312    1.9596 H   0  0  0  0  0  0  0  0  0  0  0  0
    1.8191   -1.3503    1.3004 H   0  0  0  0  0  0  0  0  0  0  0  0
    2.7622   -0.3336    0.2461 H   0  0  0  0  0  0  0  0  0  0  0  0
    4.7858   -1.5970    0.9380 H   0  0  0  0  0  0  0  0  0  0  0  0
    2.8707   -3.3218   -0.5411 H   0  0  0  0  0  0  0  0  0  0  0  0
    4.8170   -1.1385   -1.3902 H   0  0  0  0  0  0  0  0  0  0  0  0
    3.0877   -1.2200   -1.7117 H   0  0  0  0  0  0  0  0  0  0  0  0
    4.1752   -2.3298   -2.5164 H   0  0  0  0  0  0  0  0  0  0  0  0
    4.8268   -4.4807   -1.3836 H   0  0  0  0  0  0  0  0  0  0  0  0
    5.9224   -3.3789   -0.5961 H   0  0  0  0  0  0  0  0  0  0  0  0
    5.0287   -5.8589    0.4049 H   0  0  0  0  0  0  0  0  0  0  0  0
    6.0148   -4.6858    1.2363 H   0  0  0  0  0  0  0  0  0  0  0  0
    3.0116   -4.7209    1.1563 H   0  0  0  0  0  0  0  0  0  0  0  0
    3.7814   -6.5340    2.5015 H   0  0  0  0  0  0  0  0  0  0  0  0
    5.0005   -4.4778    4.4477 H   0  0  0  0  0  0  0  0  0  0  0  0
    5.8466   -5.7049    3.5342 H   0  0  0  0  0  0  0  0  0  0  0  0
    4.7228   -6.1628    4.7899 H   0  0  0  0  0  0  0  0  0  0  0  0
    2.8824   -7.5196    4.8217 H   0  0  0  0  0  0  0  0  0  0  0  0
    2.6514   -9.8976    5.3307 H   0  0  0  0  0  0  0  0  0  0  0  0
  1  2  1  0
  1 28  1  0
  1 29  1  0
  1 30  1  0
  2 27  2  0
  2  3  1  0
  3  4  2  0
  3 31  1  0
  4  5  1  0
  4 32  1  0
  5  6  1  0
  5 26  2  0
  6  7  1  0
  7 21  1  0
  7  8  1  0
  7 33  1  1
  8  9  1  0
  9 23  1  0
  9 10  1  0
  9 34  1  1
 10 11  1  0
 11 25  1  0
 11 12  1  1
 11 13  1  0
 12 35  1  0
 12 36  1  0
 12 37  1  0
 13 14  1  0
 13 38  1  0
 13 39  1  0
 14 15  1  0
 14 40  1  0
 14 41  1  0
 15 23  1  0
 15 16  1  0
 15 42  1  6
 16 17  1  0
 16 18  1  0
 16 43  1  6
 17 44  1  0
 17 45  1  0
 17 46  1  0
 18 19  1  0
 18 47  1  0
 18 48  1  0
 19 20  1  0
 19 49  1  0
 19 50  1  0
 20 21  1  0
 20 23  1  0
 20 51  1  6
 21 22  1  0
 21 52  1  6
 22 53  1  0
 22 54  1  0
 22 55  1  0
 23 24  1  1
 24 25  1  0
 26 27  1  0
 26 56  1  0
 27 57  1  0
M  END
>  <i_m_ct_stereo_status>  (334) 
1

>  <s_m_source_file>  (334) 
/var/tmp/pbs.5076255.sched01/tmp7rmqr72f/92ch8atech.sdf

>  <i_m_source_file_index>  (334) 
36

>  <i_lp_mmshare_version>  (334) 
48012

>  <i_f3d_flags>  (334) 
0

>  <s_epik_input>  (334) 
W0NIM11jMVtjSF1bY0hdYyhbY0hdW2NIXTEpT1tDQEhdKE9bQ0BIXTJbQ0BdMzQ1KVtDQEhdKFtDSDNdKVtDQEBIXTRbQ0gyXVtDSDJdW0NASF0oW0NIM10pW0NASF0zW0NIMl1bQ0gyXVtDQF0oTzIpKFtDSDNdKU9PNQ==

>  <s_epik_cmdline>  (334) 
J2VwaWtfcHl0aG9uJywgJy1waHQnLCAnMi4wJywgJy1waCcsICc3LjAnLCAnLXRuJywgJzgnLCAnLW1hJywgJzIwMCcsICctaW1hZScsICc8aW5maWxlLm1hZT4nLCAnLW9tYWUnLCAnPG91dGZpbGUubWFlPic=

>  <r_lp_tautomer_probability>  (334) 
1

>  <r_epik_Ionization_Penalty>  (334) 
1.18402e-15

>  <r_epik_Ionization_Penalty_Charging>  (334) 
0

>  <r_epik_Ionization_Penalty_Neutral>  (334) 
1.18402e-15

>  <r_epik_State_Penalty>  (334) 
-0

>  <r_epik_Charging_Adjusted_Penalty>  (334) 
0

>  <i_epik_Tot_Q>  (334) 
0

>  <i_epik_Tot_abs_Q>  (334) 
0

>  <s_epik_Chemistry_Notes>  (334) 
This compound contains an acetal/aminal-like group ( X-CH(R)-Y where X, Y are N, S, or O) that may be acid/base labile, releasing an aldehyde.

>  <s_lp_Force_Field>  (334) 
OPLS3e

>  <r_lp_Energy>  (334) 
75.5154

>  <b_lp_Chiralities_Consistent>  (334) 
1

>  <s_lp_Variant>  (334) 
88:0-1

>  <s_i_glide_gridfile>  (334) 
pfpi4k_grid

>  <i_i_glide_lignum>  (334) 
36

>  <i_i_glide_rotatable_bonds>  (334) 
2

>  <r_i_docking_score>  (334) 
-1.84326

>  <r_i_glide_ligand_efficiency>  (334) 
-0.0682688

>  <r_i_glide_ligand_efficiency_sa>  (334) 
-0.204806

>  <r_i_glide_ligand_efficiency_ln>  (334) 
-0.42908

>  <r_i_glide_gscore>  (334) 
-1.84326

>  <r_i_glide_lipo>  (334) 
-0.172546

>  <r_i_glide_hbond>  (334) 
0

>  <r_i_glide_metal>  (334) 
-0

>  <r_i_glide_rewards>  (334) 
-0.864714

>  <r_i_glide_evdw>  (334) 
-21.6135

>  <r_i_glide_ecoul>  (334) 
-0.00735796

>  <r_i_glide_erotb>  (334) 
0.275784

>  <r_i_glide_esite>  (334) 
0

>  <r_i_glide_emodel>  (334) 
-24.4096

>  <r_i_glide_energy>  (334) 
-21.6209

>  <r_i_glide_einternal>  (334) 
0.469908

>  <r_i_glide_intrahb_reward>  (334) 
-0

>  <i_i_glide_confnum>  (334) 
4

>  <i_i_glide_posenum>  (334) 
10

>  <r_i_glide_eff_state_penalty>  (334) 
0

>  <ligand_id>  (334) 
88

>  <original_smiles>  (334) 
Cc1ccc(OC2OC3OC4(C)CCC5C(C)CCC(C2C)C35OO4)cc1

>  <smiles>  (334) 
[H]c1c([H])c(C([H])([H])[H])c([H])c([H])c1OC1([H])OC2([H])OC3(C([H])([H])[H])OOC24C([H])(C([H])([H])C([H])([H])C([H])(C([H])([H])[H])C4([H])C([H])([H])C3([H])[H])C1([H])C([H])([H])[H]

$$$$
89:2:0
     RDKit          3D

 73 78  0  0  1  0  0  0  0  0999 V2000
    0.1592   -7.1632    3.3345 C   0  0  0  0  0  0  0  0  0  0  0  0
    1.3703   -6.6802    2.4822 C   0  0  0  0  0  0  0  0  0  0  0  0
    0.8521   -6.6412    1.0271 C   0  0  0  0  0  0  0  0  0  0  0  0
    2.7573   -7.4630    2.6702 C   0  0  2  0  0  0  0  0  0  0  0  0
    2.4263   -8.8005    2.2751 O   0  0  0  0  0  0  0  0  0  0  0  0
    2.3565   -9.6495    3.3749 C   0  0  0  0  0  0  0  0  0  0  0  0
    0.9048  -10.0767    3.6537 C   0  0  0  0  0  0  0  0  0  0  0  0
    3.1922  -10.8956    3.0895 C   0  0  0  0  0  0  0  0  0  0  0  0
    2.8482   -8.9956    4.4863 O   0  0  0  0  0  0  0  0  0  0  0  0
    3.1812   -7.6433    4.1874 C   0  0  1  0  0  0  0  0  0  0  0  0
    4.5672   -7.3591    4.9204 C   0  0  1  0  0  0  0  0  0  0  0  0
    5.6150   -8.5149    5.0739 C   0  0  1  0  0  0  0  0  0  0  0  0
    5.2762   -9.5614    6.1697 C   0  0  0  0  0  0  0  0  0  0  0  0
    5.7860   -9.2298    3.8768 O   0  0  0  0  0  0  0  0  0  0  0  0
    6.9600   -7.8329    5.3854 C   0  0  0  0  0  0  0  0  0  0  0  0
    6.6189   -6.3751    5.6567 C   0  0  1  0  0  0  0  0  0  0  0  0
    7.7245   -5.5065    5.5161 O   0  0  0  0  0  0  0  0  0  0  0  0
    5.4046   -6.0394    4.7639 C   0  0  1  0  0  0  0  0  0  0  0  0
    5.8916   -5.9439    3.4372 O   0  0  0  0  0  0  0  0  0  0  0  0
    5.2853   -4.8840    2.7095 C   0  0  2  0  0  0  0  0  0  0  0  0
    4.9481   -3.8601    3.7955 C   0  0  1  0  0  0  0  0  0  0  0  0
    3.8274   -3.0554    3.4674 O   0  0  0  0  0  0  0  0  0  0  0  0
    4.8189   -4.6413    5.0987 C   0  0  1  0  0  0  0  0  0  0  0  0
    3.4616   -4.5714    5.8229 C   0  0  0  0  0  0  0  0  0  0  0  0
    4.1745   -5.4381    1.7562 C   0  0  2  0  0  0  0  0  0  0  0  0
    3.8403   -6.9528    1.6477 C   0  0  1  0  0  0  0  0  0  0  0  0
    5.0160   -7.7456    1.6201 O   0  0  0  0  0  0  0  0  0  0  0  0
    5.0455   -4.8253    0.6780 C   0  0  0  0  0  0  0  0  0  0  0  0
    4.6193   -3.8884   -0.1964 C   0  0  0  0  0  0  0  0  0  0  0  0
    3.3822   -3.7759   -0.6942 O   0  0  0  0  0  0  0  0  0  0  0  0
    5.4288   -2.6956    0.0381 C   0  0  0  0  0  0  0  0  0  0  0  0
    5.2609   -1.6000   -0.4808 O   0  0  0  0  0  0  0  0  0  0  0  0
    6.4297   -2.9593    1.1465 C   0  0  0  0  0  0  0  0  0  0  0  0
    6.2182   -4.4399    1.5431 C   0  0  1  0  0  0  0  0  0  0  0  0
    7.5151   -5.2326    1.3155 C   0  0  0  0  0  0  0  0  0  0  0  0
   -0.2222   -8.0879    2.9733 H   0  0  0  0  0  0  0  0  0  0  0  0
   -0.6729   -6.4390    3.3176 H   0  0  0  0  0  0  0  0  0  0  0  0
    0.4118   -7.2714    4.3846 H   0  0  0  0  0  0  0  0  0  0  0  0
    1.5282   -5.6461    2.7893 H   0  0  0  0  0  0  0  0  0  0  0  0
    0.8676   -7.6260    0.5456 H   0  0  0  0  0  0  0  0  0  0  0  0
    1.4242   -5.9569    0.3930 H   0  0  0  0  0  0  0  0  0  0  0  0
   -0.1887   -6.3186    0.9787 H   0  0  0  0  0  0  0  0  0  0  0  0
    0.3860   -9.3597    4.2552 H   0  0  0  0  0  0  0  0  0  0  0  0
    0.8811  -11.0502    4.1518 H   0  0  0  0  0  0  0  0  0  0  0  0
    0.3761  -10.1866    2.6985 H   0  0  0  0  0  0  0  0  0  0  0  0
    4.1576  -10.6631    2.6492 H   0  0  0  0  0  0  0  0  0  0  0  0
    2.6518  -11.5230    2.3767 H   0  0  0  0  0  0  0  0  0  0  0  0
    3.3144  -11.4754    4.0104 H   0  0  0  0  0  0  0  0  0  0  0  0
    2.4858   -7.0489    4.7751 H   0  0  0  0  0  0  0  0  0  0  0  0
    4.2303   -7.2606    5.9499 H   0  0  0  0  0  0  0  0  0  0  0  0
    5.1451   -9.0942    7.1432 H   0  0  0  0  0  0  0  0  0  0  0  0
    6.0737  -10.2979    6.2669 H   0  0  0  0  0  0  0  0  0  0  0  0
    4.3712  -10.1239    5.9562 H   0  0  0  0  0  0  0  0  0  0  0  0
    4.9942   -9.7283    3.7241 H   0  0  0  0  0  0  0  0  0  0  0  0
    7.4835   -8.2850    6.2275 H   0  0  0  0  0  0  0  0  0  0  0  0
    7.6399   -7.9009    4.5274 H   0  0  0  0  0  0  0  0  0  0  0  0
    6.3085   -6.3016    6.6987 H   0  0  0  0  0  0  0  0  0  0  0  0
    8.0954   -5.6329    4.6569 H   0  0  0  0  0  0  0  0  0  0  0  0
    5.7781   -3.1810    3.9080 H   0  0  0  0  0  0  0  0  0  0  0  0
    3.7951   -2.3348    4.0746 H   0  0  0  0  0  0  0  0  0  0  0  0
    5.5107   -4.1503    5.7864 H   0  0  0  0  0  0  0  0  0  0  0  0
    2.6377   -4.9224    5.2076 H   0  0  0  0  0  0  0  0  0  0  0  0
    3.2387   -3.5368    6.0897 H   0  0  0  0  0  0  0  0  0  0  0  0
    3.4872   -5.1316    6.7486 H   0  0  0  0  0  0  0  0  0  0  0  0
    3.2574   -4.8736    1.8859 H   0  0  0  0  0  0  0  0  0  0  0  0
    3.4340   -7.1034    0.6415 H   0  0  0  0  0  0  0  0  0  0  0  0
    5.4226   -7.7198    2.4769 H   0  0  0  0  0  0  0  0  0  0  0  0
    6.2964   -2.2636    1.9758 H   0  0  0  0  0  0  0  0  0  0  0  0
    7.4267   -2.7747    0.7339 H   0  0  0  0  0  0  0  0  0  0  0  0
    3.2859   -2.8882   -1.0276 H   0  0  0  0  0  0  0  0  0  0  0  0
    8.2385   -5.0003    2.0821 H   0  0  0  0  0  0  0  0  0  0  0  0
    7.9829   -5.0170    0.3581 H   0  0  0  0  0  0  0  0  0  0  0  0
    7.3513   -6.3175    1.3626 H   0  0  0  0  0  0  0  0  0  0  0  0
  1  2  1  0
  1 36  1  0
  1 37  1  0
  1 38  1  0
  2  3  1  0
  4  2  1  1
  2 39  1  0
  3 40  1  0
  3 41  1  0
  3 42  1  0
  4 10  1  0
  4 26  1  0
  4  5  1  0
  5  6  1  0
  6  7  1  0
  6  8  1  0
  6  9  1  0
  7 43  1  0
  7 44  1  0
  7 45  1  0
  8 46  1  0
  8 47  1  0
  8 48  1  0
  9 10  1  0
 10 11  1  0
 10 49  1  1
 11 18  1  0
 11 12  1  0
 11 50  1  1
 12 13  1  0
 12 14  1  6
 12 15  1  0
 13 51  1  0
 13 52  1  0
 13 53  1  0
 14 54  1  0
 15 16  1  0
 15 55  1  0
 15 56  1  0
 16 17  1  0
 16 18  1  0
 16 57  1  1
 17 58  1  0
 18 23  1  0
 18 19  1  6
 20 19  1  1
 20 21  1  0
 20 25  1  0
 20 34  1  0
 21 22  1  0
 21 23  1  0
 21 59  1  1
 22 60  1  0
 23 24  1  0
 23 61  1  1
 24 62  1  0
 24 63  1  0
 24 64  1  0
 25 26  1  0
 25 65  1  1
 25 28  1  0
 26 27  1  0
 26 66  1  6
 27 67  1  0
 28 34  1  0
 28 29  2  0
 29 31  1  0
 29 30  1  0
 30 70  1  0
 31 33  1  0
 31 32  2  0
 33 34  1  0
 33 69  1  0
 33 68  1  0
 34 35  1  6
 35 71  1  0
 35 72  1  0
 35 73  1  0
M  END
>  <i_m_ct_stereo_status>  (335) 
1

>  <s_m_source_file>  (335) 
/var/tmp/pbs.5076255.sched01/tmp7rmqr72f/92ch8atech.sdf

>  <i_m_source_file_index>  (335) 
39

>  <i_lp_mmshare_version>  (335) 
48012

>  <i_f3d_flags>  (335) 
0

>  <s_epik_input>  (335) 
W09IXVtDQEBIXTFbQ0gyXVtDQF0oW0NIM10pKFtPSF0pW0NAQEhdKFtDQEBdMTIzKVtDQEhdNFtDQF0oW0NIXShbQ0gzXSlbQ0gzXSkoT0MoTzQpKFtDSDNdKVtDSDNdKVtDQEhdKFtPSF0pW0NAQEhdNVtDQF0oTzIpKFtDQEBIXShbT0hdKVtDQEhdM1tDSDNdKVtDQEBdNihbQ0gzXSlbQ0BASF01Qyg9TylDKD1PKVtDSDJdNg==

>  <s_epik_cmdline>  (335) 
J2VwaWtfcHl0aG9uJywgJy1waHQnLCAnMi4wJywgJy1waCcsICc3LjAnLCAnLXRuJywgJzgnLCAnLW1hJywgJzIwMCcsICctaW1hZScsICc8aW5maWxlLm1hZT4nLCAnLW9tYWUnLCAnPG91dGZpbGUubWFlPic=

>  <r_lp_tautomer_probability>  (335) 
0.499803

>  <r_epik_Ionization_Penalty>  (335) 
0.000388947

>  <r_epik_Ionization_Penalty_Charging>  (335) 
0

>  <r_epik_Ionization_Penalty_Neutral>  (335) 
0.000388947

>  <r_epik_State_Penalty>  (335) 
0.41068

>  <r_epik_Charging_Adjusted_Penalty>  (335) 
0.41068

>  <i_epik_Tot_Q>  (335) 
0

>  <i_epik_Tot_abs_Q>  (335) 
0

>  <s_lp_Force_Field>  (335) 
OPLS3e

>  <r_lp_Energy>  (335) 
66.7707

>  <b_lp_Chiralities_Consistent>  (335) 
1

>  <s_lp_Variant>  (335) 
89:0-3

>  <s_i_glide_gridfile>  (335) 
pfpi4k_grid

>  <i_i_glide_lignum>  (335) 
39

>  <i_i_glide_rotatable_bonds>  (335) 
6

>  <r_i_docking_score>  (335) 
-2.74869

>  <r_i_glide_ligand_efficiency>  (335) 
-0.0785339

>  <r_i_glide_ligand_efficiency_sa>  (335) 
-0.25689

>  <r_i_glide_ligand_efficiency_ln>  (335) 
-0.603398

>  <r_i_glide_gscore>  (335) 
-2.74869

>  <r_i_glide_lipo>  (335) 
-0.457101

>  <r_i_glide_hbond>  (335) 
0

>  <r_i_glide_metal>  (335) 
-0

>  <r_i_glide_rewards>  (335) 
-1.06554

>  <r_i_glide_evdw>  (335) 
-23.8649

>  <r_i_glide_ecoul>  (335) 
-0.188834

>  <r_i_glide_erotb>  (335) 
0

>  <r_i_glide_esite>  (335) 
-0.00447163

>  <r_i_glide_emodel>  (335) 
-32.8741

>  <r_i_glide_energy>  (335) 
-24.0538

>  <r_i_glide_einternal>  (335) 
4.80268

>  <r_i_glide_intrahb_reward>  (335) 
-1

>  <i_i_glide_confnum>  (335) 
2

>  <i_i_glide_posenum>  (335) 
4

>  <r_i_glide_eff_state_penalty>  (335) 
0

>  <ligand_id>  (335) 
89

>  <original_smiles>  (335) 
CC(C)C12OC(C)(C)OC1C1C(C)(O)CC(O)C13OC1(C(O)C3C)C(C2O)C2C(=O)C(=O)CC21C

>  <smiles>  (335) 
[H]OC1=C2C3([H])C([H])(O[H])C4(C([H])(C([H])([H])[H])C([H])([H])[H])OC(C([H])([H])[H])(C([H])([H])[H])OC4([H])C4([H])C(O[H])(C([H])([H])[H])C([H])([H])C([H])(O[H])C45OC3(C([H])(O[H])C5([H])C([H])([H])[H])C2(C([H])([H])[H])C([H])([H])C1=O

$$$$
89:2:1
     RDKit          3D

 73 78  0  0  1  0  0  0  0  0999 V2000
    0.2084   -7.0998    3.3431 C   0  0  0  0  0  0  0  0  0  0  0  0
    1.3688   -6.6080    2.4341 C   0  0  0  0  0  0  0  0  0  0  0  0
    0.7957   -6.5738    1.0026 C   0  0  0  0  0  0  0  0  0  0  0  0
    2.7759   -7.3712    2.5655 C   0  0  2  0  0  0  0  0  0  0  0  0
    2.4744   -8.6995    2.1243 O   0  0  0  0  0  0  0  0  0  0  0  0
    2.4276   -9.5871    3.1958 C   0  0  0  0  0  0  0  0  0  0  0  0
    0.9820  -10.0310    3.4797 C   0  0  0  0  0  0  0  0  0  0  0  0
    3.2670  -10.8052    2.8568 C   0  0  0  0  0  0  0  0  0  0  0  0
    2.9182   -8.9602    4.3287 O   0  0  0  0  0  0  0  0  0  0  0  0
    3.2427   -7.6021    4.0627 C   0  0  1  0  0  0  0  0  0  0  0  0
    4.6444   -7.3286    4.7657 C   0  0  1  0  0  0  0  0  0  0  0  0
    5.7107   -8.4781    4.8489 C   0  0  1  0  0  0  0  0  0  0  0  0
    5.4089   -9.5573    5.9211 C   0  0  0  0  0  0  0  0  0  0  0  0
    5.8935   -9.1712    3.6392 O   0  0  0  0  0  0  0  0  0  0  0  0
    7.0497   -7.7821    5.1656 C   0  0  0  0  0  0  0  0  0  0  0  0
    6.6946   -6.3421    5.4997 C   0  0  1  0  0  0  0  0  0  0  0  0
    7.7946   -5.4794    5.3723 O   0  0  0  0  0  0  0  0  0  0  0  0
    5.4566   -5.9872    4.6446 C   0  0  1  0  0  0  0  0  0  0  0  0
    5.9188   -5.8213    3.3115 O   0  0  0  0  0  0  0  0  0  0  0  0
    5.2727   -4.7565    2.6383 C   0  0  2  0  0  0  0  0  0  0  0  0
    4.9452   -3.7736    3.7657 C   0  0  1  0  0  0  0  0  0  0  0  0
    3.8278   -2.9560    3.4998 O   0  0  0  0  0  0  0  0  0  0  0  0
    4.8568   -4.6094    5.0379 C   0  0  1  0  0  0  0  0  0  0  0  0
    3.5140   -4.5842    5.8006 C   0  0  0  0  0  0  0  0  0  0  0  0
    4.1453   -5.2952    1.6913 C   0  0  2  0  0  0  0  0  0  0  0  0
    3.8275   -6.8141    1.5332 C   0  0  1  0  0  0  0  0  0  0  0  0
    4.9920   -7.6094    1.4623 O   0  0  0  0  0  0  0  0  0  0  0  0
    4.9747   -4.6289    0.6101 C   0  0  0  0  0  0  0  0  0  0  0  0
    4.5173   -3.6694   -0.2124 C   0  0  0  0  0  0  0  0  0  0  0  0
    3.2685   -3.5601   -0.6925 O   0  0  0  0  0  0  0  0  0  0  0  0
    5.3117   -2.4667    0.0445 C   0  0  0  0  0  0  0  0  0  0  0  0
    5.1212   -1.3634   -0.4280 O   0  0  0  0  0  0  0  0  0  0  0  0
    6.3477   -2.7656    1.1161 C   0  0  0  0  0  0  0  0  0  0  0  0
    6.1668   -4.2549    1.4655 C   0  0  1  0  0  0  0  0  0  0  0  0
    7.4712   -5.0264    1.1812 C   0  0  0  0  0  0  0  0  0  0  0  0
   -0.2020   -8.0136    2.9735 H   0  0  0  0  0  0  0  0  0  0  0  0
   -0.6363   -6.3920    3.3554 H   0  0  0  0  0  0  0  0  0  0  0  0
    0.4925   -7.2210    4.3753 H   0  0  0  0  0  0  0  0  0  0  0  0
    1.5216   -5.5798    2.7346 H   0  0  0  0  0  0  0  0  0  0  0  0
    0.7977   -7.5558    0.5095 H   0  0  0  0  0  0  0  0  0  0  0  0
    1.3373   -5.8814    0.3464 H   0  0  0  0  0  0  0  0  0  0  0  0
   -0.2478   -6.2509    0.9951 H   0  0  0  0  0  0  0  0  0  0  0  0
    0.4865   -9.3633    4.1421 H   0  0  0  0  0  0  0  0  0  0  0  0
    0.9718  -11.0257    3.9640 H   0  0  0  0  0  0  0  0  0  0  0  0
    0.4326  -10.1128    2.5414 H   0  0  0  0  0  0  0  0  0  0  0  0
    4.2236  -10.5443    2.4166 H   0  0  0  0  0  0  0  0  0  0  0  0
    2.7265  -11.4119    2.1200 H   0  0  0  0  0  0  0  0  0  0  0  0
    3.4153  -11.4212    3.7500 H   0  0  0  0  0  0  0  0  0  0  0  0
    2.5636   -7.0341    4.6928 H   0  0  0  0  0  0  0  0  0  0  0  0
    4.3289   -7.2720    5.8074 H   0  0  0  0  0  0  0  0  0  0  0  0
    5.2922   -9.1254    6.9123 H   0  0  0  0  0  0  0  0  0  0  0  0
    6.2167  -10.2870    5.9749 H   0  0  0  0  0  0  0  0  0  0  0  0
    4.5064  -10.1224    5.7025 H   0  0  0  0  0  0  0  0  0  0  0  0
    6.0367   -8.5287    2.9429 H   0  0  0  0  0  0  0  0  0  0  0  0
    7.5969   -8.2535    5.9800 H   0  0  0  0  0  0  0  0  0  0  0  0
    7.7150   -7.8003    4.2937 H   0  0  0  0  0  0  0  0  0  0  0  0
    6.4051   -6.3077    6.5526 H   0  0  0  0  0  0  0  0  0  0  0  0
    8.1158   -5.5239    4.4789 H   0  0  0  0  0  0  0  0  0  0  0  0
    5.8005   -3.1093    3.8811 H   0  0  0  0  0  0  0  0  0  0  0  0
    3.0789   -3.5117    3.3215 H   0  0  0  0  0  0  0  0  0  0  0  0
    5.5564   -4.1313    5.7306 H   0  0  0  0  0  0  0  0  0  0  0  0
    2.6793   -4.9284    5.1966 H   0  0  0  0  0  0  0  0  0  0  0  0
    3.2860   -3.5624    6.1086 H   0  0  0  0  0  0  0  0  0  0  0  0
    3.5732   -5.1758    6.7055 H   0  0  0  0  0  0  0  0  0  0  0  0
    3.2257   -4.7526    1.8501 H   0  0  0  0  0  0  0  0  0  0  0  0
    3.3981   -6.9309    0.5325 H   0  0  0  0  0  0  0  0  0  0  0  0
    4.7163   -8.5048    1.3078 H   0  0  0  0  0  0  0  0  0  0  0  0
    6.2260   -2.1026    1.9783 H   0  0  0  0  0  0  0  0  0  0  0  0
    7.3327   -2.5483    0.6874 H   0  0  0  0  0  0  0  0  0  0  0  0
    3.1418   -2.6510   -0.9671 H   0  0  0  0  0  0  0  0  0  0  0  0
    8.2040   -4.8081    1.9411 H   0  0  0  0  0  0  0  0  0  0  0  0
    7.9161   -4.7688    0.2217 H   0  0  0  0  0  0  0  0  0  0  0  0
    7.3239   -6.1128    1.1932 H   0  0  0  0  0  0  0  0  0  0  0  0
  1  2  1  0
  1 36  1  0
  1 37  1  0
  1 38  1  0
  2  3  1  0
  4  2  1  1
  2 39  1  0
  3 40  1  0
  3 41  1  0
  3 42  1  0
  4 10  1  0
  4 26  1  0
  4  5  1  0
  5  6  1  0
  6  7  1  0
  6  8  1  0
  6  9  1  0
  7 43  1  0
  7 44  1  0
  7 45  1  0
  8 46  1  0
  8 47  1  0
  8 48  1  0
  9 10  1  0
 10 11  1  0
 10 49  1  1
 11 18  1  0
 11 12  1  0
 11 50  1  1
 12 13  1  0
 12 14  1  6
 12 15  1  0
 13 51  1  0
 13 52  1  0
 13 53  1  0
 14 54  1  0
 15 16  1  0
 15 55  1  0
 15 56  1  0
 16 17  1  0
 16 18  1  0
 16 57  1  1
 17 58  1  0
 18 23  1  0
 18 19  1  6
 20 19  1  1
 20 21  1  0
 20 25  1  0
 20 34  1  0
 21 22  1  0
 21 23  1  0
 21 59  1  1
 22 60  1  0
 23 24  1  0
 23 61  1  1
 24 62  1  0
 24 63  1  0
 24 64  1  0
 25 26  1  0
 25 65  1  1
 25 28  1  0
 26 27  1  0
 26 66  1  6
 27 67  1  0
 28 34  1  0
 28 29  2  0
 29 31  1  0
 29 30  1  0
 30 70  1  0
 31 33  1  0
 31 32  2  0
 33 34  1  0
 33 69  1  0
 33 68  1  0
 34 35  1  6
 35 71  1  0
 35 72  1  0
 35 73  1  0
M  END
>  <i_m_ct_stereo_status>  (336) 
1

>  <s_m_source_file>  (336) 
/var/tmp/pbs.5076255.sched01/tmp7rmqr72f/92ch8atech.sdf

>  <i_m_source_file_index>  (336) 
39

>  <i_lp_mmshare_version>  (336) 
48012

>  <i_f3d_flags>  (336) 
0

>  <s_epik_input>  (336) 
W09IXVtDQEBIXTFbQ0gyXVtDQF0oW0NIM10pKFtPSF0pW0NAQEhdKFtDQEBdMTIzKVtDQEhdNFtDQF0oW0NIXShbQ0gzXSlbQ0gzXSkoT0MoTzQpKFtDSDNdKVtDSDNdKVtDQEhdKFtPSF0pW0NAQEhdNVtDQF0oTzIpKFtDQEBIXShbT0hdKVtDQEhdM1tDSDNdKVtDQEBdNihbQ0gzXSlbQ0BASF01Qyg9TylDKD1PKVtDSDJdNg==

>  <s_epik_cmdline>  (336) 
J2VwaWtfcHl0aG9uJywgJy1waHQnLCAnMi4wJywgJy1waCcsICc3LjAnLCAnLXRuJywgJzgnLCAnLW1hJywgJzIwMCcsICctaW1hZScsICc8aW5maWxlLm1hZT4nLCAnLW9tYWUnLCAnPG91dGZpbGUubWFlPic=

>  <r_lp_tautomer_probability>  (336) 
0.499803

>  <r_epik_Ionization_Penalty>  (336) 
0.000388947

>  <r_epik_Ionization_Penalty_Charging>  (336) 
0

>  <r_epik_Ionization_Penalty_Neutral>  (336) 
0.000388947

>  <r_epik_State_Penalty>  (336) 
0.41068

>  <r_epik_Charging_Adjusted_Penalty>  (336) 
0.41068

>  <i_epik_Tot_Q>  (336) 
0

>  <i_epik_Tot_abs_Q>  (336) 
0

>  <s_lp_Force_Field>  (336) 
OPLS3e

>  <r_lp_Energy>  (336) 
66.7707

>  <b_lp_Chiralities_Consistent>  (336) 
1

>  <s_lp_Variant>  (336) 
89:0-3

>  <s_i_glide_gridfile>  (336) 
pfpi4k_grid

>  <i_i_glide_lignum>  (336) 
39

>  <i_i_glide_rotatable_bonds>  (336) 
6

>  <r_i_docking_score>  (336) 
-1.81017

>  <r_i_glide_ligand_efficiency>  (336) 
-0.0517192

>  <r_i_glide_ligand_efficiency_sa>  (336) 
-0.169177

>  <r_i_glide_ligand_efficiency_ln>  (336) 
-0.397373

>  <r_i_glide_gscore>  (336) 
-1.81017

>  <r_i_glide_lipo>  (336) 
-0.513955

>  <r_i_glide_hbond>  (336) 
0

>  <r_i_glide_metal>  (336) 
-0

>  <r_i_glide_rewards>  (336) 
-0.0495493

>  <r_i_glide_evdw>  (336) 
-24.0169

>  <r_i_glide_ecoul>  (336) 
-0.278321

>  <r_i_glide_erotb>  (336) 
0

>  <r_i_glide_esite>  (336) 
-0.0040742

>  <r_i_glide_emodel>  (336) 
-21.7531

>  <r_i_glide_energy>  (336) 
-24.2952

>  <r_i_glide_einternal>  (336) 
4.85591

>  <r_i_glide_intrahb_reward>  (336) 
-0

>  <i_i_glide_confnum>  (336) 
2

>  <i_i_glide_posenum>  (336) 
1

>  <r_i_glide_eff_state_penalty>  (336) 
0

>  <ligand_id>  (336) 
89

>  <original_smiles>  (336) 
CC(C)C12OC(C)(C)OC1C1C(C)(O)CC(O)C13OC1(C(O)C3C)C(C2O)C2C(=O)C(=O)CC21C

>  <smiles>  (336) 
[H]OC1=C2C3([H])C([H])(O[H])C4(C([H])(C([H])([H])[H])C([H])([H])[H])OC(C([H])([H])[H])(C([H])([H])[H])OC4([H])C4([H])C(O[H])(C([H])([H])[H])C([H])([H])C([H])(O[H])C45OC3(C([H])(O[H])C5([H])C([H])([H])[H])C2(C([H])([H])[H])C([H])([H])C1=O

$$$$
90:0:0
     RDKit          3D

 47 49  0  0  1  0  0  0  0  0999 V2000
    2.7189   -3.2391    1.8168 C   0  0  0  0  0  0  0  0  0  0  0  0
    3.2772   -4.6549    1.6996 C   0  0  0  0  0  0  0  0  0  0  0  0
    4.3650   -4.9753    0.9381 C   0  0  0  0  0  0  0  0  0  0  0  0
    5.0127   -3.9796    0.0479 C   0  0  0  0  0  0  0  0  0  0  0  0
    6.2030   -3.6875    0.0959 O   0  0  0  0  0  0  0  0  0  0  0  0
    4.1255   -3.4567   -0.8470 O   0  0  0  0  0  0  0  0  0  0  0  0
    4.5388   -2.5728   -1.8964 C   0  0  0  0  0  0  0  0  0  0  0  0
    5.0257   -1.2170   -1.3298 C   0  0  0  0  0  0  0  0  0  0  0  0
    3.2982   -2.3038   -2.7865 C   0  0  0  0  0  0  0  0  0  0  0  0
    5.6167   -3.2734   -2.7493 C   0  0  0  0  0  0  0  0  0  0  0  0
    4.9885   -6.3772    0.9709 C   0  0  1  0  0  0  0  0  0  0  0  0
    6.2262   -6.3561    1.8146 C   0  0  0  0  0  0  0  0  0  0  0  0
    6.3197   -6.1510    3.1658 C   0  0  0  0  0  0  0  0  0  0  0  0
    7.6507   -6.2261    3.6797 C   0  0  0  0  0  0  0  0  0  0  0  0
    8.5762   -6.4724    2.6900 C   0  0  0  0  0  0  0  0  0  0  0  0
    7.8045   -6.6027    1.1269 S   0  0  0  0  0  0  0  0  0  0  0  0
    3.9724   -7.4480    1.4424 C   0  0  1  0  0  0  0  0  0  0  0  0
    4.5546   -8.8418    1.8122 C   0  0  0  0  0  0  0  0  0  0  0  0
    5.7095   -9.1652    1.5462 O   0  0  0  0  0  0  0  0  0  0  0  0
    3.6116   -9.8492    2.4690 C   0  0  0  0  0  0  0  0  0  0  0  0
    2.2384   -9.2692    2.8295 C   0  0  0  0  0  0  0  0  0  0  0  0
    2.3371   -7.8579    3.4285 C   0  0  0  0  0  0  0  0  0  0  0  0
    2.9863   -6.8694    2.4781 C   0  0  0  0  0  0  0  0  0  0  0  0
    2.6857   -5.6217    2.5269 N   0  0  0  0  0  0  0  0  0  0  0  0
    2.9844   -2.5652    0.9954 H   0  0  0  0  0  0  0  0  0  0  0  0
    3.0676   -2.8015    2.7517 H   0  0  0  0  0  0  0  0  0  0  0  0
    1.6374   -3.2830    1.9036 H   0  0  0  0  0  0  0  0  0  0  0  0
    5.3679   -0.5534   -2.1247 H   0  0  0  0  0  0  0  0  0  0  0  0
    5.8487   -1.3164   -0.6253 H   0  0  0  0  0  0  0  0  0  0  0  0
    4.2237   -0.6900   -0.8124 H   0  0  0  0  0  0  0  0  0  0  0  0
    2.5219   -1.7572   -2.2426 H   0  0  0  0  0  0  0  0  0  0  0  0
    2.8503   -3.2338   -3.1481 H   0  0  0  0  0  0  0  0  0  0  0  0
    3.5503   -1.6968   -3.6632 H   0  0  0  0  0  0  0  0  0  0  0  0
    5.8653   -2.6644   -3.5979 H   0  0  0  0  0  0  0  0  0  0  0  0
    5.2355   -4.2131   -3.1515 H   0  0  0  0  0  0  0  0  0  0  0  0
    6.5518   -3.4526   -2.2107 H   0  0  0  0  0  0  0  0  0  0  0  0
    5.2795   -6.6528   -0.0513 H   0  0  0  0  0  0  0  0  0  0  0  0
    5.4757   -5.9727    3.8043 H   0  0  0  0  0  0  0  0  0  0  0  0
    7.8689   -6.1395    4.7316 H   0  0  0  0  0  0  0  0  0  0  0  0
    9.6451   -6.6158    2.7792 H   0  0  0  0  0  0  0  0  0  0  0  0
    3.3776   -7.6395    0.5637 H   0  0  0  0  0  0  0  0  0  0  0  0
    3.4744  -10.6738    1.7776 H   0  0  0  0  0  0  0  0  0  0  0  0
    4.1067  -10.2387    3.3594 H   0  0  0  0  0  0  0  0  0  0  0  0
    1.6041   -9.2534    1.9394 H   0  0  0  0  0  0  0  0  0  0  0  0
    1.7491   -9.9367    3.5411 H   0  0  0  0  0  0  0  0  0  0  0  0
    1.3414   -7.4974    3.6781 H   0  0  0  0  0  0  0  0  0  0  0  0
    2.9078   -7.8723    4.3564 H   0  0  0  0  0  0  0  0  0  0  0  0
  1  2  1  0
  1 25  1  0
  1 26  1  0
  1 27  1  0
  2 24  1  0
  2  3  2  0
  3  4  1  0
  3 11  1  0
  4  5  2  0
  4  6  1  0
  6  7  1  0
  7  8  1  0
  7  9  1  0
  7 10  1  0
  8 28  1  0
  8 29  1  0
  8 30  1  0
  9 31  1  0
  9 32  1  0
  9 33  1  0
 10 34  1  0
 10 35  1  0
 10 36  1  0
 11 12  1  0
 11 17  1  0
 11 37  1  6
 12 16  1  0
 12 13  2  0
 13 14  1  0
 13 38  1  0
 14 15  2  0
 14 39  1  0
 15 16  1  0
 15 40  1  0
 17 23  1  0
 17 18  1  0
 17 41  1  6
 18 19  2  0
 18 20  1  0
 20 21  1  0
 20 42  1  0
 20 43  1  0
 21 22  1  0
 21 44  1  0
 21 45  1  0
 22 23  1  0
 22 46  1  0
 22 47  1  0
 23 24  2  0
M  END
>  <i_m_ct_stereo_status>  (337) 
1

>  <s_m_source_file>  (337) 
/var/tmp/pbs.5076255.sched01/tmp7rmqr72f/92ch8atech.sdf

>  <i_m_source_file_index>  (337) 
40

>  <i_lp_mmshare_version>  (337) 
48012

>  <i_f3d_flags>  (337) 
0

>  <s_epik_input>  (337) 
Tz1DMVtDSDJdW0NIMl1bQ0gyXUMoW0NASF0xMik9TkMoW0NIM10pPUMoQyg9TylPQyhbQ0gzXSkoW0NIM10pW0NIM10pW0NASF0yYzNbY0hdW2NIXVtjSF1zMw==

>  <s_epik_cmdline>  (337) 
J2VwaWtfcHl0aG9uJywgJy1waHQnLCAnMi4wJywgJy1waCcsICc3LjAnLCAnLXRuJywgJzgnLCAnLW1hJywgJzIwMCcsICctaW1hZScsICc8aW5maWxlLm1hZT4nLCAnLW9tYWUnLCAnPG91dGZpbGUubWFlPic=

>  <r_lp_tautomer_probability>  (337) 
0.499981

>  <r_epik_Ionization_Penalty>  (337) 
3.41411e-10

>  <r_epik_Ionization_Penalty_Charging>  (337) 
0

>  <r_epik_Ionization_Penalty_Neutral>  (337) 
3.41411e-10

>  <r_epik_State_Penalty>  (337) 
0.41068

>  <r_epik_Charging_Adjusted_Penalty>  (337) 
0.41068

>  <i_epik_Tot_Q>  (337) 
0

>  <i_epik_Tot_abs_Q>  (337) 
0

>  <s_epik_Chemistry_Notes>  (337) 
This compound has an ester and may undergo hydrolysis at high or low pH. This compound has an imine and may undergo hydrolysis.

>  <s_lp_Force_Field>  (337) 
OPLS3e

>  <r_lp_Energy>  (337) 
21.2726

>  <b_lp_Chiralities_Consistent>  (337) 
1

>  <s_lp_Variant>  (337) 
90:0-1

>  <s_i_glide_gridfile>  (337) 
pfpi4k_grid

>  <i_i_glide_lignum>  (337) 
40

>  <i_i_glide_rotatable_bonds>  (337) 
4

>  <r_i_docking_score>  (337) 
-3.00849

>  <r_i_glide_ligand_efficiency>  (337) 
-0.125354

>  <r_i_glide_ligand_efficiency_sa>  (337) 
-0.361583

>  <r_i_glide_ligand_efficiency_ln>  (337) 
-0.72007

>  <r_i_glide_gscore>  (337) 
-3.00849

>  <r_i_glide_lipo>  (337) 
-0.555073

>  <r_i_glide_hbond>  (337) 
0

>  <r_i_glide_metal>  (337) 
-0

>  <r_i_glide_rewards>  (337) 
-1.11774

>  <r_i_glide_evdw>  (337) 
-29.6276

>  <r_i_glide_ecoul>  (337) 
-2.03372

>  <r_i_glide_erotb>  (337) 
0.477626

>  <r_i_glide_esite>  (337) 
-0.0268657

>  <r_i_glide_emodel>  (337) 
-35.4803

>  <r_i_glide_energy>  (337) 
-31.6613

>  <r_i_glide_einternal>  (337) 
3.28631

>  <r_i_glide_intrahb_reward>  (337) 
-0

>  <i_i_glide_confnum>  (337) 
1

>  <i_i_glide_posenum>  (337) 
4

>  <r_i_glide_eff_state_penalty>  (337) 
0

>  <ligand_id>  (337) 
90

>  <original_smiles>  (337) 
CC1=C(C(=O)OC(C)(C)C)C(c2cccs2)C2C(=O)CCCC2=N1

>  <smiles>  (337) 
[H]c1sc(C2([H])C(C(=O)OC(C([H])([H])[H])(C([H])([H])[H])C([H])([H])[H])=C(C([H])([H])[H])N=C3C([H])([H])C([H])([H])C([H])([H])C(=O)C32[H])c([H])c1[H]

$$$$
90:0:1
     RDKit          3D

 47 49  0  0  1  0  0  0  0  0999 V2000
    2.7433   -3.2683    1.7008 C   0  0  0  0  0  0  0  0  0  0  0  0
    3.3551   -4.6620    1.6275 C   0  0  0  0  0  0  0  0  0  0  0  0
    4.4135   -4.9845    0.8347 C   0  0  0  0  0  0  0  0  0  0  0  0
    4.9718   -4.0322   -0.1410 C   0  0  0  0  0  0  0  0  0  0  0  0
    6.1563   -3.7032   -0.1661 O   0  0  0  0  0  0  0  0  0  0  0  0
    4.0320   -3.5895   -1.0169 O   0  0  0  0  0  0  0  0  0  0  0  0
    4.3168   -2.7495   -2.1399 C   0  0  0  0  0  0  0  0  0  0  0  0
    2.9874   -2.5631   -2.9213 C   0  0  0  0  0  0  0  0  0  0  0  0
    5.3420   -3.4475   -3.0629 C   0  0  0  0  0  0  0  0  0  0  0  0
    4.8008   -1.3513   -1.6927 C   0  0  0  0  0  0  0  0  0  0  0  0
    5.0862   -6.3522    0.9027 C   0  0  1  0  0  0  0  0  0  0  0  0
    6.3603   -6.2573    1.6898 C   0  0  0  0  0  0  0  0  0  0  0  0
    7.6456   -6.3198    1.2308 C   0  0  0  0  0  0  0  0  0  0  0  0
    8.6237   -6.2099    2.2712 C   0  0  0  0  0  0  0  0  0  0  0  0
    8.0706   -6.0863    3.5091 C   0  0  0  0  0  0  0  0  0  0  0  0
    6.3306   -6.0055    3.4237 S   0  0  0  0  0  0  0  0  0  0  0  0
    4.1049   -7.4382    1.4312 C   0  0  1  0  0  0  0  0  0  0  0  0
    4.7572   -8.7861    1.8401 C   0  0  0  0  0  0  0  0  0  0  0  0
    5.9267   -9.0691    1.5607 O   0  0  0  0  0  0  0  0  0  0  0  0
    3.8951   -9.8089    2.5659 C   0  0  0  0  0  0  0  0  0  0  0  0
    2.5171   -9.2654    2.9642 C   0  0  0  0  0  0  0  0  0  0  0  0
    2.5757   -7.8266    3.5017 C   0  0  0  0  0  0  0  0  0  0  0  0
    3.1493   -6.8501    2.4885 C   0  0  0  0  0  0  0  0  0  0  0  0
    2.8215   -5.6112    2.5128 N   0  0  0  0  0  0  0  0  0  0  0  0
    2.9509   -2.6182    0.8471 H   0  0  0  0  0  0  0  0  0  0  0  0
    3.1005   -2.7682    2.6029 H   0  0  0  0  0  0  0  0  0  0  0  0
    1.6672   -3.3499    1.8138 H   0  0  0  0  0  0  0  0  0  0  0  0
    3.1165   -1.9135   -3.7930 H   0  0  0  0  0  0  0  0  0  0  0  0
    2.2210   -2.0979   -2.2992 H   0  0  0  0  0  0  0  0  0  0  0  0
    2.5912   -3.5177   -3.2689 H   0  0  0  0  0  0  0  0  0  0  0  0
    4.9538   -4.4184   -3.3648 H   0  0  0  0  0  0  0  0  0  0  0  0
    6.2982   -3.6123   -2.5640 H   0  0  0  0  0  0  0  0  0  0  0  0
    5.5265   -2.8557   -3.9241 H   0  0  0  0  0  0  0  0  0  0  0  0
    5.0023   -0.7048   -2.5401 H   0  0  0  0  0  0  0  0  0  0  0  0
    5.7176   -1.3844   -1.1101 H   0  0  0  0  0  0  0  0  0  0  0  0
    4.0589   -0.8321   -1.0877 H   0  0  0  0  0  0  0  0  0  0  0  0
    5.3400   -6.6355   -0.1244 H   0  0  0  0  0  0  0  0  0  0  0  0
    7.9304   -6.4425    0.1990 H   0  0  0  0  0  0  0  0  0  0  0  0
    9.6908   -6.2346    2.0756 H   0  0  0  0  0  0  0  0  0  0  0  0
    8.5580   -6.0108    4.4675 H   0  0  0  0  0  0  0  0  0  0  0  0
    3.4684   -7.6894    0.5925 H   0  0  0  0  0  0  0  0  0  0  0  0
    3.7790  -10.6708    1.9168 H   0  0  0  0  0  0  0  0  0  0  0  0
    4.4428  -10.1413    3.4482 H   0  0  0  0  0  0  0  0  0  0  0  0
    1.8494   -9.3076    2.1010 H   0  0  0  0  0  0  0  0  0  0  0  0
    2.0822   -9.9241    3.7192 H   0  0  0  0  0  0  0  0  0  0  0  0
    1.5744   -7.5029    3.7841 H   0  0  0  0  0  0  0  0  0  0  0  0
    3.1806   -7.7820    4.4074 H   0  0  0  0  0  0  0  0  0  0  0  0
  1  2  1  0
  1 25  1  0
  1 26  1  0
  1 27  1  0
  2 24  1  0
  2  3  2  0
  3  4  1  0
  3 11  1  0
  4  5  2  0
  4  6  1  0
  6  7  1  0
  7  8  1  0
  7  9  1  0
  7 10  1  0
  8 28  1  0
  8 29  1  0
  8 30  1  0
  9 31  1  0
  9 32  1  0
  9 33  1  0
 10 34  1  0
 10 35  1  0
 10 36  1  0
 11 12  1  0
 11 17  1  0
 11 37  1  6
 12 16  1  0
 12 13  2  0
 13 14  1  0
 13 38  1  0
 14 15  2  0
 14 39  1  0
 15 16  1  0
 15 40  1  0
 17 23  1  0
 17 18  1  0
 17 41  1  6
 18 19  2  0
 18 20  1  0
 20 21  1  0
 20 42  1  0
 20 43  1  0
 21 22  1  0
 21 44  1  0
 21 45  1  0
 22 23  1  0
 22 46  1  0
 22 47  1  0
 23 24  2  0
M  END
>  <i_m_ct_stereo_status>  (338) 
1

>  <s_m_source_file>  (338) 
/var/tmp/pbs.5076255.sched01/tmp7rmqr72f/92ch8atech.sdf

>  <i_m_source_file_index>  (338) 
40

>  <i_lp_mmshare_version>  (338) 
48012

>  <i_f3d_flags>  (338) 
0

>  <s_epik_input>  (338) 
Tz1DMVtDSDJdW0NIMl1bQ0gyXUMoW0NASF0xMik9TkMoW0NIM10pPUMoQyg9TylPQyhbQ0gzXSkoW0NIM10pW0NIM10pW0NASF0yYzNbY0hdW2NIXVtjSF1zMw==

>  <s_epik_cmdline>  (338) 
J2VwaWtfcHl0aG9uJywgJy1waHQnLCAnMi4wJywgJy1waCcsICc3LjAnLCAnLXRuJywgJzgnLCAnLW1hJywgJzIwMCcsICctaW1hZScsICc8aW5maWxlLm1hZT4nLCAnLW9tYWUnLCAnPG91dGZpbGUubWFlPic=

>  <r_lp_tautomer_probability>  (338) 
0.499981

>  <r_epik_Ionization_Penalty>  (338) 
3.41411e-10

>  <r_epik_Ionization_Penalty_Charging>  (338) 
0

>  <r_epik_Ionization_Penalty_Neutral>  (338) 
3.41411e-10

>  <r_epik_State_Penalty>  (338) 
0.41068

>  <r_epik_Charging_Adjusted_Penalty>  (338) 
0.41068

>  <i_epik_Tot_Q>  (338) 
0

>  <i_epik_Tot_abs_Q>  (338) 
0

>  <s_epik_Chemistry_Notes>  (338) 
This compound has an ester and may undergo hydrolysis at high or low pH. This compound has an imine and may undergo hydrolysis.

>  <s_lp_Force_Field>  (338) 
OPLS3e

>  <r_lp_Energy>  (338) 
21.2726

>  <b_lp_Chiralities_Consistent>  (338) 
1

>  <s_lp_Variant>  (338) 
90:0-1

>  <s_i_glide_gridfile>  (338) 
pfpi4k_grid

>  <i_i_glide_lignum>  (338) 
40

>  <i_i_glide_rotatable_bonds>  (338) 
4

>  <r_i_docking_score>  (338) 
-2.87981

>  <r_i_glide_ligand_efficiency>  (338) 
-0.119992

>  <r_i_glide_ligand_efficiency_sa>  (338) 
-0.346118

>  <r_i_glide_ligand_efficiency_ln>  (338) 
-0.689272

>  <r_i_glide_gscore>  (338) 
-2.87981

>  <r_i_glide_lipo>  (338) 
-0.531481

>  <r_i_glide_hbond>  (338) 
0

>  <r_i_glide_metal>  (338) 
-0

>  <r_i_glide_rewards>  (338) 
-1.11746

>  <r_i_glide_evdw>  (338) 
-28.8475

>  <r_i_glide_ecoul>  (338) 
-1.65156

>  <r_i_glide_erotb>  (338) 
0.477626

>  <r_i_glide_esite>  (338) 
-0.01839

>  <r_i_glide_emodel>  (338) 
-34.4616

>  <r_i_glide_energy>  (338) 
-30.499

>  <r_i_glide_einternal>  (338) 
2.82758

>  <r_i_glide_intrahb_reward>  (338) 
-0

>  <i_i_glide_confnum>  (338) 
3

>  <i_i_glide_posenum>  (338) 
19

>  <r_i_glide_eff_state_penalty>  (338) 
0

>  <ligand_id>  (338) 
90

>  <original_smiles>  (338) 
CC1=C(C(=O)OC(C)(C)C)C(c2cccs2)C2C(=O)CCCC2=N1

>  <smiles>  (338) 
[H]c1sc(C2([H])C(C(=O)OC(C([H])([H])[H])(C([H])([H])[H])C([H])([H])[H])=C(C([H])([H])[H])N=C3C([H])([H])C([H])([H])C([H])([H])C(=O)C32[H])c([H])c1[H]

$$$$
90:0:2
     RDKit          3D

 47 49  0  0  1  0  0  0  0  0999 V2000
    2.4990   -3.8589    2.1572 C   0  0  0  0  0  0  0  0  0  0  0  0
    3.1683   -5.2215    1.9593 C   0  0  0  0  0  0  0  0  0  0  0  0
    4.2681   -5.4323    1.2036 C   0  0  0  0  0  0  0  0  0  0  0  0
    4.8440   -4.4071    0.3142 C   0  0  0  0  0  0  0  0  0  0  0  0
    6.0147   -4.0276    0.3726 O   0  0  0  0  0  0  0  0  0  0  0  0
    3.9138   -3.9101   -0.5502 O   0  0  0  0  0  0  0  0  0  0  0  0
    4.1562   -2.8526   -1.5094 C   0  0  0  0  0  0  0  0  0  0  0  0
    5.3813   -3.1365   -2.3999 C   0  0  0  0  0  0  0  0  0  0  0  0
    4.2568   -1.4844   -0.8025 C   0  0  0  0  0  0  0  0  0  0  0  0
    2.8890   -2.8734   -2.3779 C   0  0  0  0  0  0  0  0  0  0  0  0
    4.9817   -6.7795    1.2065 C   0  0  1  0  0  0  0  0  0  0  0  0
    6.2530   -6.6426    2.0269 C   0  0  0  0  0  0  0  0  0  0  0  0
    6.3675   -6.3928    3.3751 C   0  0  0  0  0  0  0  0  0  0  0  0
    7.6893   -6.3694    3.8326 C   0  0  0  0  0  0  0  0  0  0  0  0
    8.5987   -6.5938    2.8317 C   0  0  0  0  0  0  0  0  0  0  0  0
    7.8223   -6.8131    1.2945 S   0  0  0  0  0  0  0  0  0  0  0  0
    4.0929   -7.9685    1.7042 C   0  0  1  0  0  0  0  0  0  0  0  0
    4.8146   -9.2818    2.1079 C   0  0  0  0  0  0  0  0  0  0  0  0
    5.9392   -9.5611    1.7108 O   0  0  0  0  0  0  0  0  0  0  0  0
    4.0401  -10.2997    2.9446 C   0  0  0  0  0  0  0  0  0  0  0  0
    3.3029   -9.6057    4.0931 C   0  0  0  0  0  0  0  0  0  0  0  0
    2.3477   -8.5190    3.5840 C   0  0  0  0  0  0  0  0  0  0  0  0
    3.0171   -7.4615    2.7001 C   0  0  0  0  0  0  0  0  0  0  0  0
    2.6357   -6.2342    2.7732 N   0  0  0  0  0  0  0  0  0  0  0  0
    2.6711   -3.1109    1.3798 H   0  0  0  0  0  0  0  0  0  0  0  0
    2.7910   -3.4346    3.1190 H   0  0  0  0  0  0  0  0  0  0  0  0
    1.4210   -4.0079    2.2493 H   0  0  0  0  0  0  0  0  0  0  0  0
    5.4341   -2.4443   -3.2386 H   0  0  0  0  0  0  0  0  0  0  0  0
    5.3256   -4.1506   -2.7888 H   0  0  0  0  0  0  0  0  0  0  0  0
    6.3166   -3.0382   -1.8598 H   0  0  0  0  0  0  0  0  0  0  0  0
    5.1380   -1.4007   -0.1703 H   0  0  0  0  0  0  0  0  0  0  0  0
    3.3823   -1.2729   -0.1882 H   0  0  0  0  0  0  0  0  0  0  0  0
    4.3089   -0.6893   -1.5349 H   0  0  0  0  0  0  0  0  0  0  0  0
    2.9298   -2.1253   -3.1673 H   0  0  0  0  0  0  0  0  0  0  0  0
    2.0022   -2.6612   -1.7813 H   0  0  0  0  0  0  0  0  0  0  0  0
    2.7381   -3.8495   -2.8420 H   0  0  0  0  0  0  0  0  0  0  0  0
    5.2462   -7.0222    0.1905 H   0  0  0  0  0  0  0  0  0  0  0  0
    5.5017   -6.2476    4.0149 H   0  0  0  0  0  0  0  0  0  0  0  0
    7.9290   -6.2322    4.8765 H   0  0  0  0  0  0  0  0  0  0  0  0
    9.6884   -6.6813    2.8837 H   0  0  0  0  0  0  0  0  0  0  0  0
    3.5017   -8.2514    0.8346 H   0  0  0  0  0  0  0  0  0  0  0  0
    3.3475  -10.8259    2.2891 H   0  0  0  0  0  0  0  0  0  0  0  0
    4.7394  -11.0259    3.3366 H   0  0  0  0  0  0  0  0  0  0  0  0
    2.7434  -10.3538    4.6572 H   0  0  0  0  0  0  0  0  0  0  0  0
    4.0174   -9.1745    4.7941 H   0  0  0  0  0  0  0  0  0  0  0  0
    1.5446   -8.9814    3.0144 H   0  0  0  0  0  0  0  0  0  0  0  0
    1.8758   -8.0267    4.4328 H   0  0  0  0  0  0  0  0  0  0  0  0
  1  2  1  0
  1 25  1  0
  1 26  1  0
  1 27  1  0
  2 24  1  0
  2  3  2  0
  3  4  1  0
  3 11  1  0
  4  5  2  0
  4  6  1  0
  6  7  1  0
  7  8  1  0
  7  9  1  0
  7 10  1  0
  8 28  1  0
  8 29  1  0
  8 30  1  0
  9 31  1  0
  9 32  1  0
  9 33  1  0
 10 34  1  0
 10 35  1  0
 10 36  1  0
 11 12  1  0
 11 17  1  0
 11 37  1  6
 12 16  1  0
 12 13  2  0
 13 14  1  0
 13 38  1  0
 14 15  2  0
 14 39  1  0
 15 16  1  0
 15 40  1  0
 17 23  1  0
 17 18  1  0
 17 41  1  6
 18 19  2  0
 18 20  1  0
 20 21  1  0
 20 42  1  0
 20 43  1  0
 21 22  1  0
 21 44  1  0
 21 45  1  0
 22 23  1  0
 22 46  1  0
 22 47  1  0
 23 24  2  0
M  END
>  <i_m_ct_stereo_status>  (339) 
1

>  <s_m_source_file>  (339) 
/var/tmp/pbs.5076255.sched01/tmp7rmqr72f/92ch8atech.sdf

>  <i_m_source_file_index>  (339) 
40

>  <i_lp_mmshare_version>  (339) 
48012

>  <i_f3d_flags>  (339) 
0

>  <s_epik_input>  (339) 
Tz1DMVtDSDJdW0NIMl1bQ0gyXUMoW0NASF0xMik9TkMoW0NIM10pPUMoQyg9TylPQyhbQ0gzXSkoW0NIM10pW0NIM10pW0NASF0yYzNbY0hdW2NIXVtjSF1zMw==

>  <s_epik_cmdline>  (339) 
J2VwaWtfcHl0aG9uJywgJy1waHQnLCAnMi4wJywgJy1waCcsICc3LjAnLCAnLXRuJywgJzgnLCAnLW1hJywgJzIwMCcsICctaW1hZScsICc8aW5maWxlLm1hZT4nLCAnLW9tYWUnLCAnPG91dGZpbGUubWFlPic=

>  <r_lp_tautomer_probability>  (339) 
0.499981

>  <r_epik_Ionization_Penalty>  (339) 
3.41411e-10

>  <r_epik_Ionization_Penalty_Charging>  (339) 
0

>  <r_epik_Ionization_Penalty_Neutral>  (339) 
3.41411e-10

>  <r_epik_State_Penalty>  (339) 
0.41068

>  <r_epik_Charging_Adjusted_Penalty>  (339) 
0.41068

>  <i_epik_Tot_Q>  (339) 
0

>  <i_epik_Tot_abs_Q>  (339) 
0

>  <s_epik_Chemistry_Notes>  (339) 
This compound has an ester and may undergo hydrolysis at high or low pH. This compound has an imine and may undergo hydrolysis.

>  <s_lp_Force_Field>  (339) 
OPLS3e

>  <r_lp_Energy>  (339) 
21.2726

>  <b_lp_Chiralities_Consistent>  (339) 
1

>  <s_lp_Variant>  (339) 
90:0-1

>  <s_i_glide_gridfile>  (339) 
pfpi4k_grid

>  <i_i_glide_lignum>  (339) 
40

>  <i_i_glide_rotatable_bonds>  (339) 
4

>  <r_i_docking_score>  (339) 
-2.85716

>  <r_i_glide_ligand_efficiency>  (339) 
-0.119048

>  <r_i_glide_ligand_efficiency_sa>  (339) 
-0.343395

>  <r_i_glide_ligand_efficiency_ln>  (339) 
-0.68385

>  <r_i_glide_gscore>  (339) 
-2.85716

>  <r_i_glide_lipo>  (339) 
-0.379592

>  <r_i_glide_hbond>  (339) 
0

>  <r_i_glide_metal>  (339) 
-0

>  <r_i_glide_rewards>  (339) 
-1.11575

>  <r_i_glide_evdw>  (339) 
-28.997

>  <r_i_glide_ecoul>  (339) 
-2.36846

>  <r_i_glide_erotb>  (339) 
0.477626

>  <r_i_glide_esite>  (339) 
-0.0343255

>  <r_i_glide_emodel>  (339) 
-35.6966

>  <r_i_glide_energy>  (339) 
-31.3654

>  <r_i_glide_einternal>  (339) 
1.93861

>  <r_i_glide_intrahb_reward>  (339) 
-0

>  <i_i_glide_confnum>  (339) 
2

>  <i_i_glide_posenum>  (339) 
33

>  <r_i_glide_eff_state_penalty>  (339) 
0

>  <ligand_id>  (339) 
90

>  <original_smiles>  (339) 
CC1=C(C(=O)OC(C)(C)C)C(c2cccs2)C2C(=O)CCCC2=N1

>  <smiles>  (339) 
[H]c1sc(C2([H])C(C(=O)OC(C([H])([H])[H])(C([H])([H])[H])C([H])([H])[H])=C(C([H])([H])[H])N=C3C([H])([H])C([H])([H])C([H])([H])C(=O)C32[H])c([H])c1[H]

$$$$
90:1:0
     RDKit          3D

 47 49  0  0  1  0  0  0  0  0999 V2000
   -1.2801   -0.8426    5.6927 C   0  0  0  0  0  0  0  0  0  0  0  0
   -1.0338    0.5211    6.3175 C   0  0  0  0  0  0  0  0  0  0  0  0
    0.4046    1.1007    6.2918 C   0  0  1  0  0  0  0  0  0  0  0  0
    1.1565    0.8706    4.9705 C   0  0  0  0  0  0  0  0  0  0  0  0
    2.3047    0.4341    4.9516 O   0  0  0  0  0  0  0  0  0  0  0  0
    0.4133    1.2170    3.8956 O   0  0  0  0  0  0  0  0  0  0  0  0
    0.8934    1.3302    2.5506 C   0  0  0  0  0  0  0  0  0  0  0  0
    1.5664    0.0427    2.0239 C   0  0  0  0  0  0  0  0  0  0  0  0
    1.8451    2.5354    2.4143 C   0  0  0  0  0  0  0  0  0  0  0  0
   -0.3850    1.6027    1.7374 C   0  0  0  0  0  0  0  0  0  0  0  0
    0.4676    2.5926    6.7668 C   0  0  1  0  0  0  0  0  0  0  0  0
    0.2569    3.6639    5.7058 C   0  0  0  0  0  0  0  0  0  0  0  0
    1.0439    4.7622    5.4439 C   0  0  0  0  0  0  0  0  0  0  0  0
    0.5971    5.5401    4.3432 C   0  0  0  0  0  0  0  0  0  0  0  0
   -0.5189    5.0068    3.7526 C   0  0  0  0  0  0  0  0  0  0  0  0
   -1.1311    3.6414    4.6432 S   0  0  0  0  0  0  0  0  0  0  0  0
   -0.4635    2.7589    7.9862 C   0  0  1  0  0  0  0  0  0  0  0  0
   -0.4480    4.1621    8.6403 C   0  0  0  0  0  0  0  0  0  0  0  0
    0.4783    4.9700    8.5001 O   0  0  0  0  0  0  0  0  0  0  0  0
   -1.6646    4.4913    9.4998 C   0  0  0  0  0  0  0  0  0  0  0  0
   -2.9911    4.2314    8.7543 C   0  0  0  0  0  0  0  0  0  0  0  0
   -2.9888    2.9398    7.9537 C   0  0  0  0  0  0  0  0  0  0  0  0
   -1.8674    2.2628    7.6212 C   0  0  0  0  0  0  0  0  0  0  0  0
   -2.0182    1.0806    6.8909 N   0  0  0  0  0  0  0  0  0  0  0  0
   -0.6189   -1.5956    6.1192 H   0  0  0  0  0  0  0  0  0  0  0  0
   -1.1478   -0.8220    4.6129 H   0  0  0  0  0  0  0  0  0  0  0  0
   -2.3097   -1.1634    5.8789 H   0  0  0  0  0  0  0  0  0  0  0  0
    1.8097    0.1287    0.9597 H   0  0  0  0  0  0  0  0  0  0  0  0
    0.9086   -0.8158    2.1400 H   0  0  0  0  0  0  0  0  0  0  0  0
    2.5014   -0.1796    2.5394 H   0  0  0  0  0  0  0  0  0  0  0  0
    2.8007    2.3890    2.9215 H   0  0  0  0  0  0  0  0  0  0  0  0
    1.3896    3.4405    2.8032 H   0  0  0  0  0  0  0  0  0  0  0  0
    2.0548    2.7258    1.3625 H   0  0  0  0  0  0  0  0  0  0  0  0
   -0.1706    1.7367    0.6739 H   0  0  0  0  0  0  0  0  0  0  0  0
   -0.8718    2.5105    2.0952 H   0  0  0  0  0  0  0  0  0  0  0  0
   -1.0965    0.7804    1.8265 H   0  0  0  0  0  0  0  0  0  0  0  0
    1.4917    2.7186    7.1235 H   0  0  0  0  0  0  0  0  0  0  0  0
    1.9439    5.0016    5.9854 H   0  0  0  0  0  0  0  0  0  0  0  0
    1.1327    6.4072    3.9820 H   0  0  0  0  0  0  0  0  0  0  0  0
   -0.9745    5.3259    2.8271 H   0  0  0  0  0  0  0  0  0  0  0  0
   -0.1048    2.0885    8.7628 H   0  0  0  0  0  0  0  0  0  0  0  0
   -1.6196    3.8495   10.3765 H   0  0  0  0  0  0  0  0  0  0  0  0
   -1.6187    5.5183    9.8453 H   0  0  0  0  0  0  0  0  0  0  0  0
   -3.8058    4.1740    9.4848 H   0  0  0  0  0  0  0  0  0  0  0  0
   -3.2199    5.0690    8.0865 H   0  0  0  0  0  0  0  0  0  0  0  0
   -3.9558    2.5669    7.6418 H   0  0  0  0  0  0  0  0  0  0  0  0
    0.9475    0.5107    7.0289 H   0  0  0  0  0  0  0  0  0  0  0  0
  1 25  1  0
  1 26  1  0
  1 27  1  0
  1  2  1  0
  2  3  1  0
  2 24  2  0
  3  4  1  0
  3 11  1  0
  3 47  1  1
  4  5  2  0
  4  6  1  0
  6  7  1  0
  7  8  1  0
  7  9  1  0
  7 10  1  0
  8 28  1  0
  8 29  1  0
  8 30  1  0
  9 31  1  0
  9 32  1  0
  9 33  1  0
 10 34  1  0
 10 35  1  0
 10 36  1  0
 11 12  1  0
 11 17  1  0
 11 37  1  1
 12 16  1  0
 12 13  2  0
 13 14  1  0
 13 38  1  0
 14 15  2  0
 14 39  1  0
 15 16  1  0
 15 40  1  0
 17 18  1  0
 17 41  1  1
 17 23  1  0
 18 19  2  0
 18 20  1  0
 20 21  1  0
 20 42  1  0
 20 43  1  0
 21 44  1  0
 21 45  1  0
 21 22  1  0
 22 23  2  0
 22 46  1  0
 23 24  1  0
M  END
>  <i_m_ct_stereo_status>  (340) 
1

>  <s_m_source_file>  (340) 
/var/tmp/pbs.5076255.sched01/tmp7rmqr72f/92ch8atech.sdf

>  <i_m_source_file_index>  (340) 
41

>  <i_lp_mmshare_version>  (340) 
48012

>  <i_f3d_flags>  (340) 
0

>  <s_epik_input>  (340) 
Tz1DMVtDSDJdW0NIMl1bQ0gyXUMoW0NASF0xMik9TkMoW0NIM10pPUMoQyg9TylPQyhbQ0gzXSkoW0NIM10pW0NIM10pW0NASF0yYzNbY0hdW2NIXVtjSF1zMw==

>  <s_epik_cmdline>  (340) 
J2VwaWtfcHl0aG9uJywgJy1waHQnLCAnMi4wJywgJy1waCcsICc3LjAnLCAnLXRuJywgJzgnLCAnLW1hJywgJzIwMCcsICctaW1hZScsICc8aW5maWxlLm1hZT4nLCAnLW9tYWUnLCAnPG91dGZpbGUubWFlPic=

>  <r_lp_tautomer_probability>  (340) 
0.499981

>  <r_epik_Ionization_Penalty>  (340) 
2.81918e-11

>  <r_epik_Ionization_Penalty_Charging>  (340) 
0

>  <r_epik_Ionization_Penalty_Neutral>  (340) 
2.81918e-11

>  <r_epik_State_Penalty>  (340) 
0.41068

>  <r_epik_Charging_Adjusted_Penalty>  (340) 
0.41068

>  <i_epik_Tot_Q>  (340) 
0

>  <i_epik_Tot_abs_Q>  (340) 
0

>  <s_epik_Chemistry_Notes>  (340) 
This compound has an ester and may undergo hydrolysis at high or low pH. This compound has an imine and may undergo hydrolysis.

>  <s_lp_Force_Field>  (340) 
OPLS3e

>  <r_lp_Energy>  (340) 
9.47798

>  <b_lp_Chiralities_Consistent>  (340) 
1

>  <s_lp_Variant>  (340) 
90:0-2

>  <s_i_glide_gridfile>  (340) 
pfpi4k_grid

>  <i_i_glide_lignum>  (340) 
41

>  <i_i_glide_rotatable_bonds>  (340) 
4

>  <r_i_docking_score>  (340) 
-2.59514

>  <r_i_glide_ligand_efficiency>  (340) 
-0.108131

>  <r_i_glide_ligand_efficiency_sa>  (340) 
-0.311903

>  <r_i_glide_ligand_efficiency_ln>  (340) 
-0.621136

>  <r_i_glide_gscore>  (340) 
-2.59514

>  <r_i_glide_lipo>  (340) 
-0.199342

>  <r_i_glide_hbond>  (340) 
-0.16

>  <r_i_glide_metal>  (340) 
-0

>  <r_i_glide_rewards>  (340) 
-1.0537

>  <r_i_glide_evdw>  (340) 
-22.8643

>  <r_i_glide_ecoul>  (340) 
-3.08467

>  <r_i_glide_erotb>  (340) 
0.477626

>  <r_i_glide_esite>  (340) 
-0.0538035

>  <r_i_glide_emodel>  (340) 
-28.7265

>  <r_i_glide_energy>  (340) 
-25.949

>  <r_i_glide_einternal>  (340) 
1.54069

>  <r_i_glide_intrahb_reward>  (340) 
-0

>  <i_i_glide_confnum>  (340) 
5

>  <i_i_glide_posenum>  (340) 
26

>  <r_i_glide_eff_state_penalty>  (340) 
0

>  <ligand_id>  (340) 
90

>  <original_smiles>  (340) 
CC1=C(C(=O)OC(C)(C)C)C(c2cccs2)C2C(=O)CCCC2=N1

>  <smiles>  (340) 
[H]C1=C2N=C(C([H])([H])[H])C([H])(C(=O)OC(C([H])([H])[H])(C([H])([H])[H])C([H])([H])[H])C([H])(c3sc([H])c([H])c3[H])C2([H])C(=O)C([H])([H])C1([H])[H]

$$$$
90:1:1
     RDKit          3D

 47 49  0  0  1  0  0  0  0  0999 V2000
    3.0968   -0.0911    1.5365 C   0  0  0  0  0  0  0  0  0  0  0  0
    1.9622   -0.0229    2.5492 C   0  0  0  0  0  0  0  0  0  0  0  0
    1.2431   -1.3438    2.9561 C   0  0  1  0  0  0  0  0  0  0  0  0
    2.1572   -2.5703    3.1976 C   0  0  0  0  0  0  0  0  0  0  0  0
    3.3756   -2.4828    3.3416 O   0  0  0  0  0  0  0  0  0  0  0  0
    1.4447   -3.7275    3.2726 O   0  0  0  0  0  0  0  0  0  0  0  0
    2.0310   -5.0158    3.5145 C   0  0  0  0  0  0  0  0  0  0  0  0
    2.7407   -5.0757    4.8858 C   0  0  0  0  0  0  0  0  0  0  0  0
    2.9840   -5.4251    2.3717 C   0  0  0  0  0  0  0  0  0  0  0  0
    0.8291   -5.9756    3.5336 C   0  0  0  0  0  0  0  0  0  0  0  0
    0.2228   -1.1334    4.1218 C   0  0  1  0  0  0  0  0  0  0  0  0
    0.7925   -1.3239    5.5099 C   0  0  0  0  0  0  0  0  0  0  0  0
    1.7712   -0.5923    6.1335 C   0  0  0  0  0  0  0  0  0  0  0  0
    2.0780   -1.0620    7.4414 C   0  0  0  0  0  0  0  0  0  0  0  0
    1.3326   -2.1506    7.8031 C   0  0  0  0  0  0  0  0  0  0  0  0
    0.2252   -2.6171    6.5407 S   0  0  0  0  0  0  0  0  0  0  0  0
   -0.5336    0.2005    3.9222 C   0  0  1  0  0  0  0  0  0  0  0  0
   -1.6162    0.5349    4.9701 C   0  0  0  0  0  0  0  0  0  0  0  0
   -2.1567   -0.3188    5.6793 O   0  0  0  0  0  0  0  0  0  0  0  0
   -2.0457    2.0010    5.0347 C   0  0  0  0  0  0  0  0  0  0  0  0
   -0.8362    2.9391    5.1944 C   0  0  0  0  0  0  0  0  0  0  0  0
    0.3348    2.5468    4.3136 C   0  0  0  0  0  0  0  0  0  0  0  0
    0.4748    1.3373    3.7364 C   0  0  0  0  0  0  0  0  0  0  0  0
    1.6063    1.1291    2.9515 N   0  0  0  0  0  0  0  0  0  0  0  0
    2.7779   -0.6031    0.6301 H   0  0  0  0  0  0  0  0  0  0  0  0
    3.9784   -0.5770    1.9431 H   0  0  0  0  0  0  0  0  0  0  0  0
    3.4042    0.9179    1.2583 H   0  0  0  0  0  0  0  0  0  0  0  0
    3.0893   -6.0852    5.1013 H   0  0  0  0  0  0  0  0  0  0  0  0
    2.0736   -4.7831    5.6954 H   0  0  0  0  0  0  0  0  0  0  0  0
    3.6171   -4.4304    4.9312 H   0  0  0  0  0  0  0  0  0  0  0  0
    3.8882   -4.8187    2.3535 H   0  0  0  0  0  0  0  0  0  0  0  0
    2.5036   -5.3342    1.3984 H   0  0  0  0  0  0  0  0  0  0  0  0
    3.3041   -6.4605    2.4852 H   0  0  0  0  0  0  0  0  0  0  0  0
    1.1469   -7.0040    3.7135 H   0  0  0  0  0  0  0  0  0  0  0  0
    0.2970   -5.9606    2.5821 H   0  0  0  0  0  0  0  0  0  0  0  0
    0.1217   -5.7069    4.3205 H   0  0  0  0  0  0  0  0  0  0  0  0
   -0.5267   -1.9158    4.0011 H   0  0  0  0  0  0  0  0  0  0  0  0
    2.2809    0.2574    5.7027 H   0  0  0  0  0  0  0  0  0  0  0  0
    2.8288   -0.5950    8.0616 H   0  0  0  0  0  0  0  0  0  0  0  0
    1.3760   -2.7068    8.7304 H   0  0  0  0  0  0  0  0  0  0  0  0
   -1.0637    0.1417    2.9732 H   0  0  0  0  0  0  0  0  0  0  0  0
   -2.5563    2.2284    4.0988 H   0  0  0  0  0  0  0  0  0  0  0  0
   -2.7581    2.1592    5.8417 H   0  0  0  0  0  0  0  0  0  0  0  0
   -1.1268    3.9598    4.9371 H   0  0  0  0  0  0  0  0  0  0  0  0
   -0.4981    2.9507    6.2328 H   0  0  0  0  0  0  0  0  0  0  0  0
    1.0986    3.3017    4.1718 H   0  0  0  0  0  0  0  0  0  0  0  0
    0.6463   -1.5976    2.0824 H   0  0  0  0  0  0  0  0  0  0  0  0
  1 25  1  0
  1 26  1  0
  1 27  1  0
  1  2  1  0
  2  3  1  0
  2 24  2  0
  3  4  1  0
  3 11  1  0
  3 47  1  6
  4  5  2  0
  4  6  1  0
  6  7  1  0
  7  8  1  0
  7  9  1  0
  7 10  1  0
  8 28  1  0
  8 29  1  0
  8 30  1  0
  9 31  1  0
  9 32  1  0
  9 33  1  0
 10 34  1  0
 10 35  1  0
 10 36  1  0
 11 12  1  0
 11 17  1  0
 11 37  1  6
 12 16  1  0
 12 13  2  0
 13 14  1  0
 13 38  1  0
 14 15  2  0
 14 39  1  0
 15 16  1  0
 15 40  1  0
 17 18  1  0
 17 41  1  6
 17 23  1  0
 18 19  2  0
 18 20  1  0
 20 21  1  0
 20 42  1  0
 20 43  1  0
 21 44  1  0
 21 45  1  0
 21 22  1  0
 22 23  2  0
 22 46  1  0
 23 24  1  0
M  END
>  <i_m_ct_stereo_status>  (341) 
1

>  <s_m_source_file>  (341) 
/var/tmp/pbs.5076255.sched01/tmp7rmqr72f/92ch8atech.sdf

>  <i_m_source_file_index>  (341) 
41

>  <i_lp_mmshare_version>  (341) 
48012

>  <i_f3d_flags>  (341) 
0

>  <s_epik_input>  (341) 
Tz1DMVtDSDJdW0NIMl1bQ0gyXUMoW0NASF0xMik9TkMoW0NIM10pPUMoQyg9TylPQyhbQ0gzXSkoW0NIM10pW0NIM10pW0NASF0yYzNbY0hdW2NIXVtjSF1zMw==

>  <s_epik_cmdline>  (341) 
J2VwaWtfcHl0aG9uJywgJy1waHQnLCAnMi4wJywgJy1waCcsICc3LjAnLCAnLXRuJywgJzgnLCAnLW1hJywgJzIwMCcsICctaW1hZScsICc8aW5maWxlLm1hZT4nLCAnLW9tYWUnLCAnPG91dGZpbGUubWFlPic=

>  <r_lp_tautomer_probability>  (341) 
0.499981

>  <r_epik_Ionization_Penalty>  (341) 
2.81918e-11

>  <r_epik_Ionization_Penalty_Charging>  (341) 
0

>  <r_epik_Ionization_Penalty_Neutral>  (341) 
2.81918e-11

>  <r_epik_State_Penalty>  (341) 
0.41068

>  <r_epik_Charging_Adjusted_Penalty>  (341) 
0.41068

>  <i_epik_Tot_Q>  (341) 
0

>  <i_epik_Tot_abs_Q>  (341) 
0

>  <s_epik_Chemistry_Notes>  (341) 
This compound has an ester and may undergo hydrolysis at high or low pH. This compound has an imine and may undergo hydrolysis.

>  <s_lp_Force_Field>  (341) 
OPLS3e

>  <r_lp_Energy>  (341) 
9.47798

>  <b_lp_Chiralities_Consistent>  (341) 
1

>  <s_lp_Variant>  (341) 
90:0-2

>  <s_i_glide_gridfile>  (341) 
pfpi4k_grid

>  <i_i_glide_lignum>  (341) 
41

>  <i_i_glide_rotatable_bonds>  (341) 
4

>  <r_i_docking_score>  (341) 
-2.29002

>  <r_i_glide_ligand_efficiency>  (341) 
-0.0954177

>  <r_i_glide_ligand_efficiency_sa>  (341) 
-0.275232

>  <r_i_glide_ligand_efficiency_ln>  (341) 
-0.548108

>  <r_i_glide_gscore>  (341) 
-2.29002

>  <r_i_glide_lipo>  (341) 
0

>  <r_i_glide_hbond>  (341) 
-0.0815751

>  <r_i_glide_metal>  (341) 
-0

>  <r_i_glide_rewards>  (341) 
-1.0537

>  <r_i_glide_evdw>  (341) 
-20.0972

>  <r_i_glide_ecoul>  (341) 
-3.76335

>  <r_i_glide_erotb>  (341) 
0.477626

>  <r_i_glide_esite>  (341) 
-0.0630093

>  <r_i_glide_emodel>  (341) 
-26.7096

>  <r_i_glide_energy>  (341) 
-23.8605

>  <r_i_glide_einternal>  (341) 
1.78876

>  <r_i_glide_intrahb_reward>  (341) 
-0

>  <i_i_glide_confnum>  (341) 
5

>  <i_i_glide_posenum>  (341) 
22

>  <r_i_glide_eff_state_penalty>  (341) 
0

>  <ligand_id>  (341) 
90

>  <original_smiles>  (341) 
CC1=C(C(=O)OC(C)(C)C)C(c2cccs2)C2C(=O)CCCC2=N1

>  <smiles>  (341) 
[H]C1=C2N=C(C([H])([H])[H])C([H])(C(=O)OC(C([H])([H])[H])(C([H])([H])[H])C([H])([H])[H])C([H])(c3sc([H])c([H])c3[H])C2([H])C(=O)C([H])([H])C1([H])[H]

$$$$
90:1:2
     RDKit          3D

 47 49  0  0  1  0  0  0  0  0999 V2000
    3.0817   -0.0801    1.5328 C   0  0  0  0  0  0  0  0  0  0  0  0
    1.9359   -0.0078    2.5359 C   0  0  0  0  0  0  0  0  0  0  0  0
    1.2133   -1.3284    2.9551 C   0  0  1  0  0  0  0  0  0  0  0  0
    2.1280   -2.5480    3.2055 C   0  0  0  0  0  0  0  0  0  0  0  0
    3.3516   -2.4495    3.2859 O   0  0  0  0  0  0  0  0  0  0  0  0
    1.4349   -3.7186    3.3478 O   0  0  0  0  0  0  0  0  0  0  0  0
    2.0929   -4.9879    3.5105 C   0  0  0  0  0  0  0  0  0  0  0  0
    0.9724   -6.0346    3.6937 C   0  0  0  0  0  0  0  0  0  0  0  0
    2.9954   -5.0238    4.7727 C   0  0  0  0  0  0  0  0  0  0  0  0
    2.8791   -5.3448    2.2296 C   0  0  0  0  0  0  0  0  0  0  0  0
    0.2093   -1.1200    4.1354 C   0  0  1  0  0  0  0  0  0  0  0  0
    0.8013   -1.2893    5.5239 C   0  0  0  0  0  0  0  0  0  0  0  0
    0.5103   -2.2629    6.4498 C   0  0  0  0  0  0  0  0  0  0  0  0
    1.2430   -2.1307    7.6593 C   0  0  0  0  0  0  0  0  0  0  0  0
    2.1012   -1.0637    7.6490 C   0  0  0  0  0  0  0  0  0  0  0  0
    2.0430   -0.2148    6.1305 S   0  0  0  0  0  0  0  0  0  0  0  0
   -0.5506    0.2086    3.9183 C   0  0  1  0  0  0  0  0  0  0  0  0
   -1.6272    0.5365    4.9723 C   0  0  0  0  0  0  0  0  0  0  0  0
   -2.1521   -0.3203    5.6885 O   0  0  0  0  0  0  0  0  0  0  0  0
   -2.0546    1.9999    5.0413 C   0  0  0  0  0  0  0  0  0  0  0  0
   -0.8467    2.9397    5.1972 C   0  0  0  0  0  0  0  0  0  0  0  0
    0.3164    2.5579    4.3041 C   0  0  0  0  0  0  0  0  0  0  0  0
    0.4471    1.3514    3.7152 C   0  0  0  0  0  0  0  0  0  0  0  0
    1.5740    1.1468    2.9227 N   0  0  0  0  0  0  0  0  0  0  0  0
    2.7771   -0.6070    0.6302 H   0  0  0  0  0  0  0  0  0  0  0  0
    3.9759   -0.5441    1.9389 H   0  0  0  0  0  0  0  0  0  0  0  0
    3.3887    0.9263    1.2422 H   0  0  0  0  0  0  0  0  0  0  0  0
    1.3982   -7.0361    3.7980 H   0  0  0  0  0  0  0  0  0  0  0  0
    0.2885   -6.0664    2.8429 H   0  0  0  0  0  0  0  0  0  0  0  0
    0.3854   -5.8374    4.5928 H   0  0  0  0  0  0  0  0  0  0  0  0
    2.4041   -4.8413    5.6709 H   0  0  0  0  0  0  0  0  0  0  0  0
    3.8082   -4.2960    4.7644 H   0  0  0  0  0  0  0  0  0  0  0  0
    3.4730   -5.9992    4.8769 H   0  0  0  0  0  0  0  0  0  0  0  0
    3.3333   -6.3296    2.3052 H   0  0  0  0  0  0  0  0  0  0  0  0
    3.6897   -4.6506    2.0207 H   0  0  0  0  0  0  0  0  0  0  0  0
    2.2323   -5.3580    1.3545 H   0  0  0  0  0  0  0  0  0  0  0  0
   -0.5307   -1.9190    4.0328 H   0  0  0  0  0  0  0  0  0  0  0  0
   -0.2047   -3.0569    6.2934 H   0  0  0  0  0  0  0  0  0  0  0  0
    1.1275   -2.8122    8.4894 H   0  0  0  0  0  0  0  0  0  0  0  0
    2.7760   -0.7290    8.4265 H   0  0  0  0  0  0  0  0  0  0  0  0
   -1.0785    0.1356    2.9727 H   0  0  0  0  0  0  0  0  0  0  0  0
   -2.5636    2.2243    4.1037 H   0  0  0  0  0  0  0  0  0  0  0  0
   -2.7638    2.1578    5.8511 H   0  0  0  0  0  0  0  0  0  0  0  0
   -1.1384    3.9614    4.9425 H   0  0  0  0  0  0  0  0  0  0  0  0
   -0.4995    2.9452    6.2320 H   0  0  0  0  0  0  0  0  0  0  0  0
    1.0805    3.3152    4.1662 H   0  0  0  0  0  0  0  0  0  0  0  0
    0.6129   -1.5807    2.0829 H   0  0  0  0  0  0  0  0  0  0  0  0
  1 25  1  0
  1 26  1  0
  1 27  1  0
  1  2  1  0
  2  3  1  0
  2 24  2  0
  3  4  1  0
  3 11  1  0
  3 47  1  6
  4  5  2  0
  4  6  1  0
  6  7  1  0
  7  8  1  0
  7  9  1  0
  7 10  1  0
  8 28  1  0
  8 29  1  0
  8 30  1  0
  9 31  1  0
  9 32  1  0
  9 33  1  0
 10 34  1  0
 10 35  1  0
 10 36  1  0
 11 12  1  0
 11 17  1  0
 11 37  1  6
 12 16  1  0
 12 13  2  0
 13 14  1  0
 13 38  1  0
 14 15  2  0
 14 39  1  0
 15 16  1  0
 15 40  1  0
 17 18  1  0
 17 41  1  6
 17 23  1  0
 18 19  2  0
 18 20  1  0
 20 21  1  0
 20 42  1  0
 20 43  1  0
 21 44  1  0
 21 45  1  0
 21 22  1  0
 22 23  2  0
 22 46  1  0
 23 24  1  0
M  END
>  <i_m_ct_stereo_status>  (342) 
1

>  <s_m_source_file>  (342) 
/var/tmp/pbs.5076255.sched01/tmp7rmqr72f/92ch8atech.sdf

>  <i_m_source_file_index>  (342) 
41

>  <i_lp_mmshare_version>  (342) 
48012

>  <i_f3d_flags>  (342) 
0

>  <s_epik_input>  (342) 
Tz1DMVtDSDJdW0NIMl1bQ0gyXUMoW0NASF0xMik9TkMoW0NIM10pPUMoQyg9TylPQyhbQ0gzXSkoW0NIM10pW0NIM10pW0NASF0yYzNbY0hdW2NIXVtjSF1zMw==

>  <s_epik_cmdline>  (342) 
J2VwaWtfcHl0aG9uJywgJy1waHQnLCAnMi4wJywgJy1waCcsICc3LjAnLCAnLXRuJywgJzgnLCAnLW1hJywgJzIwMCcsICctaW1hZScsICc8aW5maWxlLm1hZT4nLCAnLW9tYWUnLCAnPG91dGZpbGUubWFlPic=

>  <r_lp_tautomer_probability>  (342) 
0.499981

>  <r_epik_Ionization_Penalty>  (342) 
2.81918e-11

>  <r_epik_Ionization_Penalty_Charging>  (342) 
0

>  <r_epik_Ionization_Penalty_Neutral>  (342) 
2.81918e-11

>  <r_epik_State_Penalty>  (342) 
0.41068

>  <r_epik_Charging_Adjusted_Penalty>  (342) 
0.41068

>  <i_epik_Tot_Q>  (342) 
0

>  <i_epik_Tot_abs_Q>  (342) 
0

>  <s_epik_Chemistry_Notes>  (342) 
This compound has an ester and may undergo hydrolysis at high or low pH. This compound has an imine and may undergo hydrolysis.

>  <s_lp_Force_Field>  (342) 
OPLS3e

>  <r_lp_Energy>  (342) 
9.47798

>  <b_lp_Chiralities_Consistent>  (342) 
1

>  <s_lp_Variant>  (342) 
90:0-2

>  <s_i_glide_gridfile>  (342) 
pfpi4k_grid

>  <i_i_glide_lignum>  (342) 
41

>  <i_i_glide_rotatable_bonds>  (342) 
4

>  <r_i_docking_score>  (342) 
-2.24442

>  <r_i_glide_ligand_efficiency>  (342) 
-0.0935175

>  <r_i_glide_ligand_efficiency_sa>  (342) 
-0.269751

>  <r_i_glide_ligand_efficiency_ln>  (342) 
-0.537193

>  <r_i_glide_gscore>  (342) 
-2.24442

>  <r_i_glide_lipo>  (342) 
0

>  <r_i_glide_hbond>  (342) 
-0.0843535

>  <r_i_glide_metal>  (342) 
-0

>  <r_i_glide_rewards>  (342) 
-1.0537

>  <r_i_glide_evdw>  (342) 
-19.5381

>  <r_i_glide_ecoul>  (342) 
-3.62101

>  <r_i_glide_erotb>  (342) 
0.477626

>  <r_i_glide_esite>  (342) 
-0.0639292

>  <r_i_glide_emodel>  (342) 
-25.7975

>  <r_i_glide_energy>  (342) 
-23.1592

>  <r_i_glide_einternal>  (342) 
0.981851

>  <r_i_glide_intrahb_reward>  (342) 
-0

>  <i_i_glide_confnum>  (342) 
1

>  <i_i_glide_posenum>  (342) 
21

>  <r_i_glide_eff_state_penalty>  (342) 
0

>  <ligand_id>  (342) 
90

>  <original_smiles>  (342) 
CC1=C(C(=O)OC(C)(C)C)C(c2cccs2)C2C(=O)CCCC2=N1

>  <smiles>  (342) 
[H]C1=C2N=C(C([H])([H])[H])C([H])(C(=O)OC(C([H])([H])[H])(C([H])([H])[H])C([H])([H])[H])C([H])(c3sc([H])c([H])c3[H])C2([H])C(=O)C([H])([H])C1([H])[H]

$$$$
91:0:0
     RDKit          3D

 35 36  0  0  1  0  0  0  0  0999 V2000
    6.4936   -2.0217   -0.8075 C   0  0  0  0  0  0  0  0  0  0  0  0
    5.3050   -2.7119   -0.2453 N   0  0  2  0  0  0  0  0  0  0  0  0
    5.6057   -3.8633    0.6934 C   0  0  1  0  0  0  0  0  0  0  0  0
    7.1150   -4.1726    0.8433 C   0  0  0  0  0  0  0  0  0  0  0  0
    5.0173   -3.5298    2.1067 C   0  0  0  0  0  0  0  0  0  0  0  0
    3.4713   -3.6765    2.2483 C   0  0  0  0  0  0  0  0  0  0  0  0
    2.9251   -4.8926    1.4636 C   0  0  0  0  0  0  0  0  0  0  0  0
    3.5150   -4.8205    0.1357 N   0  0  0  0  0  0  0  0  0  0  0  0
    4.9237   -5.1446    0.1898 C   0  0  0  0  0  0  0  0  0  0  0  0
    3.1043   -3.8515   -0.7144 C   0  0  0  0  0  0  0  0  0  0  0  0
    1.9200   -3.7059   -0.9956 O   0  0  0  0  0  0  0  0  0  0  0  0
    4.1738   -2.8642   -1.2357 C   0  0  0  0  0  0  0  0  0  0  0  0
    3.4935   -1.4807   -1.3815 C   0  0  0  0  0  0  0  0  0  0  0  0
    4.6511   -3.3423   -2.6328 C   0  0  0  0  0  0  0  0  0  0  0  0
    7.0697   -2.6660   -1.4708 H   0  0  0  0  0  0  0  0  0  0  0  0
    7.1445   -1.6457   -0.0232 H   0  0  0  0  0  0  0  0  0  0  0  0
    6.1834   -1.1600   -1.3819 H   0  0  0  0  0  0  0  0  0  0  0  0
    7.2627   -5.0281    1.5014 H   0  0  0  0  0  0  0  0  0  0  0  0
    7.6718   -3.3441    1.2804 H   0  0  0  0  0  0  0  0  0  0  0  0
    7.5822   -4.4295   -0.1064 H   0  0  0  0  0  0  0  0  0  0  0  0
    5.4653   -4.2050    2.8341 H   0  0  0  0  0  0  0  0  0  0  0  0
    5.3139   -2.5263    2.4194 H   0  0  0  0  0  0  0  0  0  0  0  0
    3.1864   -3.7517    3.2997 H   0  0  0  0  0  0  0  0  0  0  0  0
    2.9848   -2.7701    1.8795 H   0  0  0  0  0  0  0  0  0  0  0  0
    3.2024   -5.8259    1.9618 H   0  0  0  0  0  0  0  0  0  0  0  0
    1.8370   -4.8682    1.4245 H   0  0  0  0  0  0  0  0  0  0  0  0
    5.2771   -5.4423   -0.7923 H   0  0  0  0  0  0  0  0  0  0  0  0
    5.1211   -6.0007    0.8403 H   0  0  0  0  0  0  0  0  0  0  0  0
    2.6405   -1.5226   -2.0565 H   0  0  0  0  0  0  0  0  0  0  0  0
    4.1486   -0.7063   -1.7755 H   0  0  0  0  0  0  0  0  0  0  0  0
    3.1226   -1.1264   -0.4185 H   0  0  0  0  0  0  0  0  0  0  0  0
    3.8037   -3.6130   -3.2640 H   0  0  0  0  0  0  0  0  0  0  0  0
    5.2836   -4.2247   -2.5736 H   0  0  0  0  0  0  0  0  0  0  0  0
    5.2241   -2.5790   -3.1615 H   0  0  0  0  0  0  0  0  0  0  0  0
    4.9062   -2.0291    0.3881 H   0  0  0  0  0  0  0  0  0  0  0  0
  1  2  1  0
  1 15  1  0
  1 16  1  0
  1 17  1  0
  2 12  1  0
  2  3  1  0
  2 35  1  1
  3  9  1  0
  3  4  1  1
  3  5  1  0
  4 18  1  0
  4 19  1  0
  4 20  1  0
  5  6  1  0
  5 21  1  0
  5 22  1  0
  6  7  1  0
  6 23  1  0
  6 24  1  0
  7  8  1  0
  7 25  1  0
  7 26  1  0
  8  9  1  0
  8 10  1  0
  9 27  1  0
  9 28  1  0
 10 11  2  0
 10 12  1  0
 12 13  1  0
 12 14  1  0
 13 29  1  0
 13 30  1  0
 13 31  1  0
 14 32  1  0
 14 33  1  0
 14 34  1  0
M  CHG  1   2   1
M  END
>  <i_m_ct_stereo_status>  (343) 
1

>  <s_m_source_file>  (343) 
/var/tmp/pbs.5076255.sched01/tmp7rmqr72f/92ch8atech.sdf

>  <i_m_source_file_index>  (343) 
42

>  <i_lp_mmshare_version>  (343) 
48012

>  <i_f3d_flags>  (343) 
0

>  <s_epik_input>  (343) 
W0NIM11bQ0BdMTJOKFtDSDNdKUMoW0NIM10pKFtDSDNdKUMoPU8pTihbQ0gyXTIpW0NIMl1bQ0gyXVtDSDJdMQ==

>  <s_epik_cmdline>  (343) 
J2VwaWtfcHl0aG9uJywgJy1waHQnLCAnMi4wJywgJy1waCcsICc3LjAnLCAnLXRuJywgJzgnLCAnLW1hJywgJzIwMCcsICctaW1hZScsICc8aW5maWxlLm1hZT4nLCAnLW9tYWUnLCAnPG91dGZpbGUubWFlPic=

>  <r_epik_Ionization_Penalty>  (343) 
0.240554

>  <r_epik_Ionization_Penalty_Charging>  (343) 
0.240554

>  <r_epik_Ionization_Penalty_Neutral>  (343) 
3.11793e-14

>  <r_epik_State_Penalty>  (343) 
0.231523

>  <r_epik_Charging_Adjusted_Penalty>  (343) 
0.472077

>  <i_epik_Tot_Q>  (343) 
1

>  <i_epik_Tot_abs_Q>  (343) 
1

>  <s_lp_Force_Field>  (343) 
OPLS3e

>  <r_lp_Energy>  (343) 
32.8301

>  <b_lp_Chiralities_Consistent>  (343) 
1

>  <s_lp_Variant>  (343) 
91:0-1

>  <s_i_glide_gridfile>  (343) 
pfpi4k_grid

>  <i_i_glide_lignum>  (343) 
42

>  <i_i_glide_rotatable_bonds>  (343) 
0

>  <r_i_docking_score>  (343) 
-3.22986

>  <r_i_glide_ligand_efficiency>  (343) 
-0.230704

>  <r_i_glide_ligand_efficiency_sa>  (343) 
-0.55603

>  <r_i_glide_ligand_efficiency_ln>  (343) 
-0.887554

>  <r_i_glide_gscore>  (343) 
-3.22986

>  <r_i_glide_lipo>  (343) 
-0.32936

>  <r_i_glide_hbond>  (343) 
-0.012978

>  <r_i_glide_metal>  (343) 
-0

>  <r_i_glide_rewards>  (343) 
-2.06388

>  <r_i_glide_evdw>  (343) 
-13.7587

>  <r_i_glide_ecoul>  (343) 
-0.705932

>  <r_i_glide_erotb>  (343) 
0

>  <r_i_glide_esite>  (343) 
-0.0298159

>  <r_i_glide_emodel>  (343) 
-16.96

>  <r_i_glide_energy>  (343) 
-14.4646

>  <r_i_glide_einternal>  (343) 
0

>  <r_i_glide_intrahb_reward>  (343) 
-0

>  <i_i_glide_confnum>  (343) 
1

>  <i_i_glide_posenum>  (343) 
22

>  <r_i_glide_eff_state_penalty>  (343) 
0

>  <ligand_id>  (343) 
91

>  <original_smiles>  (343) 
CN1C2(C)CCCN(C2)C(=O)C1(C)C

>  <smiles>  (343) 
[H]C([H])([H])C1(C([H])([H])[H])C(=O)N2C([H])([H])C([H])([H])C([H])([H])C(C([H])([H])[H])(C2([H])[H])[N+]1([H])C([H])([H])[H]

$$$$
91:0:1
     RDKit          3D

 35 36  0  0  1  0  0  0  0  0999 V2000
    2.6186   -1.4628   -3.3625 C   0  0  0  0  0  0  0  0  0  0  0  0
    3.3010   -1.9244   -2.1097 N   0  0  2  0  0  0  0  0  0  0  0  0
    4.4693   -1.0917   -1.6611 C   0  0  1  0  0  0  0  0  0  0  0  0
    4.7609    0.0203   -2.6694 C   0  0  0  0  0  0  0  0  0  0  0  0
    4.1803   -0.5729   -0.2016 C   0  0  0  0  0  0  0  0  0  0  0  0
    4.3785   -1.5642    0.9505 C   0  0  0  0  0  0  0  0  0  0  0  0
    5.5808   -2.4900    0.7167 C   0  0  0  0  0  0  0  0  0  0  0  0
    5.4589   -2.9991   -0.6579 N   0  0  0  0  0  0  0  0  0  0  0  0
    5.7479   -1.9396   -1.5994 C   0  0  0  0  0  0  0  0  0  0  0  0
    4.4863   -3.8456   -0.9777 C   0  0  0  0  0  0  0  0  0  0  0  0
    4.2850   -4.8732   -0.3031 O   0  0  0  0  0  0  0  0  0  0  0  0
    3.4554   -3.4345   -2.0617 C   0  0  0  0  0  0  0  0  0  0  0  0
    2.0230   -3.8998   -1.5815 C   0  0  0  0  0  0  0  0  0  0  0  0
    3.9672   -3.9519   -3.4723 C   0  0  0  0  0  0  0  0  0  0  0  0
    3.2632   -1.4965   -4.2540 H   0  0  0  0  0  0  0  0  0  0  0  0
    2.2616   -0.4428   -3.2469 H   0  0  0  0  0  0  0  0  0  0  0  0
    1.8089   -2.1218   -3.6155 H   0  0  0  0  0  0  0  0  0  0  0  0
    5.6813    0.5090   -2.3119 H   0  0  0  0  0  0  0  0  0  0  0  0
    4.0394    0.8089   -2.7735 H   0  0  0  0  0  0  0  0  0  0  0  0
    4.9138   -0.4235   -3.6373 H   0  0  0  0  0  0  0  0  0  0  0  0
    4.8058    0.2809    0.0483 H   0  0  0  0  0  0  0  0  0  0  0  0
    3.1370   -0.2972   -0.0832 H   0  0  0  0  0  0  0  0  0  0  0  0
    4.4595   -1.0029    1.8822 H   0  0  0  0  0  0  0  0  0  0  0  0
    3.4540   -2.1333    1.0202 H   0  0  0  0  0  0  0  0  0  0  0  0
    6.5051   -1.9236    0.8678 H   0  0  0  0  0  0  0  0  0  0  0  0
    5.5508   -3.2909    1.4521 H   0  0  0  0  0  0  0  0  0  0  0  0
    6.0392   -2.3452   -2.5644 H   0  0  0  0  0  0  0  0  0  0  0  0
    6.5955   -1.3608   -1.2589 H   0  0  0  0  0  0  0  0  0  0  0  0
    1.8496   -4.9300   -1.2578 H   0  0  0  0  0  0  0  0  0  0  0  0
    1.2767   -3.7076   -2.3430 H   0  0  0  0  0  0  0  0  0  0  0  0
    1.7429   -3.3731   -0.6731 H   0  0  0  0  0  0  0  0  0  0  0  0
    4.4219   -4.9367   -3.5174 H   0  0  0  0  0  0  0  0  0  0  0  0
    4.7956   -3.3644   -3.8874 H   0  0  0  0  0  0  0  0  0  0  0  0
    3.1525   -3.9401   -4.2008 H   0  0  0  0  0  0  0  0  0  0  0  0
    2.5909   -1.7363   -1.4058 H   0  0  0  0  0  0  0  0  0  0  0  0
  1  2  1  0
  1 15  1  0
  1 16  1  0
  1 17  1  0
  2 12  1  0
  2  3  1  0
  2 35  1  1
  3  9  1  0
  3  4  1  6
  3  5  1  0
  4 18  1  0
  4 19  1  0
  4 20  1  0
  5  6  1  0
  5 21  1  0
  5 22  1  0
  6  7  1  0
  6 23  1  0
  6 24  1  0
  7  8  1  0
  7 25  1  0
  7 26  1  0
  8  9  1  0
  8 10  1  0
  9 27  1  0
  9 28  1  0
 10 11  2  0
 10 12  1  0
 12 13  1  0
 12 14  1  0
 13 29  1  0
 13 30  1  0
 13 31  1  0
 14 32  1  0
 14 33  1  0
 14 34  1  0
M  CHG  1   2   1
M  END
>  <i_m_ct_stereo_status>  (344) 
1

>  <s_m_source_file>  (344) 
/var/tmp/pbs.5076255.sched01/tmp7rmqr72f/92ch8atech.sdf

>  <i_m_source_file_index>  (344) 
42

>  <i_lp_mmshare_version>  (344) 
48012

>  <i_f3d_flags>  (344) 
0

>  <s_epik_input>  (344) 
W0NIM11bQ0BdMTJOKFtDSDNdKUMoW0NIM10pKFtDSDNdKUMoPU8pTihbQ0gyXTIpW0NIMl1bQ0gyXVtDSDJdMQ==

>  <s_epik_cmdline>  (344) 
J2VwaWtfcHl0aG9uJywgJy1waHQnLCAnMi4wJywgJy1waCcsICc3LjAnLCAnLXRuJywgJzgnLCAnLW1hJywgJzIwMCcsICctaW1hZScsICc8aW5maWxlLm1hZT4nLCAnLW9tYWUnLCAnPG91dGZpbGUubWFlPic=

>  <r_epik_Ionization_Penalty>  (344) 
0.240554

>  <r_epik_Ionization_Penalty_Charging>  (344) 
0.240554

>  <r_epik_Ionization_Penalty_Neutral>  (344) 
3.11793e-14

>  <r_epik_State_Penalty>  (344) 
0.231523

>  <r_epik_Charging_Adjusted_Penalty>  (344) 
0.472077

>  <i_epik_Tot_Q>  (344) 
1

>  <i_epik_Tot_abs_Q>  (344) 
1

>  <s_lp_Force_Field>  (344) 
OPLS3e

>  <r_lp_Energy>  (344) 
32.8301

>  <b_lp_Chiralities_Consistent>  (344) 
1

>  <s_lp_Variant>  (344) 
91:0-1

>  <s_i_glide_gridfile>  (344) 
pfpi4k_grid

>  <i_i_glide_lignum>  (344) 
42

>  <i_i_glide_rotatable_bonds>  (344) 
0

>  <r_i_docking_score>  (344) 
-3.05784

>  <r_i_glide_ligand_efficiency>  (344) 
-0.218417

>  <r_i_glide_ligand_efficiency_sa>  (344) 
-0.526416

>  <r_i_glide_ligand_efficiency_ln>  (344) 
-0.840282

>  <r_i_glide_gscore>  (344) 
-3.05784

>  <r_i_glide_lipo>  (344) 
-0.0918979

>  <r_i_glide_hbond>  (344) 
-0.173857

>  <r_i_glide_metal>  (344) 
-0

>  <r_i_glide_rewards>  (344) 
-2.09566

>  <r_i_glide_evdw>  (344) 
-2.72281

>  <r_i_glide_ecoul>  (344) 
-3.24595

>  <r_i_glide_erotb>  (344) 
0

>  <r_i_glide_esite>  (344) 
-0.0733882

>  <r_i_glide_emodel>  (344) 
-5.21198

>  <r_i_glide_energy>  (344) 
-5.96877

>  <r_i_glide_einternal>  (344) 
0

>  <r_i_glide_intrahb_reward>  (344) 
-0

>  <i_i_glide_confnum>  (344) 
1

>  <i_i_glide_posenum>  (344) 
40

>  <r_i_glide_eff_state_penalty>  (344) 
0

>  <ligand_id>  (344) 
91

>  <original_smiles>  (344) 
CN1C2(C)CCCN(C2)C(=O)C1(C)C

>  <smiles>  (344) 
[H]C([H])([H])C1(C([H])([H])[H])C(=O)N2C([H])([H])C([H])([H])C([H])([H])C(C([H])([H])[H])(C2([H])[H])[N+]1([H])C([H])([H])[H]

$$$$
91:0:2
     RDKit          3D

 35 36  0  0  1  0  0  0  0  0999 V2000
    5.7380   -0.8709   -1.5046 C   0  0  0  0  0  0  0  0  0  0  0  0
    4.6398   -1.6888   -1.0236 N   0  0  2  0  0  0  0  0  0  0  0  0
    4.9643   -2.5256    0.1953 C   0  0  1  0  0  0  0  0  0  0  0  0
    6.4306   -2.3935    0.6934 C   0  0  0  0  0  0  0  0  0  0  0  0
    4.0153   -2.1021    1.3730 C   0  0  0  0  0  0  0  0  0  0  0  0
    2.5529   -2.6407    1.2688 C   0  0  0  0  0  0  0  0  0  0  0  0
    2.5104   -4.0884    0.6960 C   0  0  0  0  0  0  0  0  0  0  0  0
    3.3447   -4.0847   -0.4834 N   0  0  0  0  0  0  0  0  0  0  0  0
    4.7299   -4.0142   -0.0983 C   0  0  0  0  0  0  0  0  0  0  0  0
    2.9176   -3.4259   -1.5833 C   0  0  0  0  0  0  0  0  0  0  0  0
    1.7767   -3.5255   -2.0073 O   0  0  0  0  0  0  0  0  0  0  0  0
    3.8457   -2.3221   -2.1386 C   0  0  0  0  0  0  0  0  0  0  0  0
    2.9759   -1.2126   -2.7793 C   0  0  0  0  0  0  0  0  0  0  0  0
    4.7222   -2.9225   -3.2712 C   0  0  0  0  0  0  0  0  0  0  0  0
    6.5457   -1.4931   -1.8879 H   0  0  0  0  0  0  0  0  0  0  0  0
    6.1096   -0.2518   -0.6912 H   0  0  0  0  0  0  0  0  0  0  0  0
    5.4170   -0.1969   -2.2963 H   0  0  0  0  0  0  0  0  0  0  0  0
    6.5988   -3.0502    1.5478 H   0  0  0  0  0  0  0  0  0  0  0  0
    6.6755   -1.3844    1.0310 H   0  0  0  0  0  0  0  0  0  0  0  0
    7.1495   -2.6943   -0.0706 H   0  0  0  0  0  0  0  0  0  0  0  0
    4.4224   -2.4847    2.3095 H   0  0  0  0  0  0  0  0  0  0  0  0
    3.9956   -1.0111    1.4722 H   0  0  0  0  0  0  0  0  0  0  0  0
    2.0429   -2.5744    2.2319 H   0  0  0  0  0  0  0  0  0  0  0  0
    2.0032   -1.9682    0.6130 H   0  0  0  0  0  0  0  0  0  0  0  0
    2.8514   -4.7947    1.4537 H   0  0  0  0  0  0  0  0  0  0  0  0
    1.5301   -4.4348    0.3874 H   0  0  0  0  0  0  0  0  0  0  0  0
    5.3592   -4.3865   -0.9061 H   0  0  0  0  0  0  0  0  0  0  0  0
    4.9461   -4.6474    0.7664 H   0  0  0  0  0  0  0  0  0  0  0  0
    2.2895   -1.6050   -3.5253 H   0  0  0  0  0  0  0  0  0  0  0  0
    3.5238   -0.3964   -3.2451 H   0  0  0  0  0  0  0  0  0  0  0  0
    2.3876   -0.7326   -2.0128 H   0  0  0  0  0  0  0  0  0  0  0  0
    4.1152   -3.5096   -3.9639 H   0  0  0  0  0  0  0  0  0  0  0  0
    5.5136   -3.5778   -2.8951 H   0  0  0  0  0  0  0  0  0  0  0  0
    5.2005   -2.1353   -3.8577 H   0  0  0  0  0  0  0  0  0  0  0  0
    3.9569   -1.0283   -0.6580 H   0  0  0  0  0  0  0  0  0  0  0  0
  1  2  1  0
  1 15  1  0
  1 16  1  0
  1 17  1  0
  2 12  1  0
  2  3  1  0
  2 35  1  1
  3  9  1  0
  3  4  1  1
  3  5  1  0
  4 18  1  0
  4 19  1  0
  4 20  1  0
  5  6  1  0
  5 21  1  0
  5 22  1  0
  6  7  1  0
  6 23  1  0
  6 24  1  0
  7  8  1  0
  7 25  1  0
  7 26  1  0
  8  9  1  0
  8 10  1  0
  9 27  1  0
  9 28  1  0
 10 11  2  0
 10 12  1  0
 12 13  1  0
 12 14  1  0
 13 29  1  0
 13 30  1  0
 13 31  1  0
 14 32  1  0
 14 33  1  0
 14 34  1  0
M  CHG  1   2   1
M  END
>  <i_m_ct_stereo_status>  (345) 
1

>  <s_m_source_file>  (345) 
/var/tmp/pbs.5076255.sched01/tmp7rmqr72f/92ch8atech.sdf

>  <i_m_source_file_index>  (345) 
42

>  <i_lp_mmshare_version>  (345) 
48012

>  <i_f3d_flags>  (345) 
0

>  <s_epik_input>  (345) 
W0NIM11bQ0BdMTJOKFtDSDNdKUMoW0NIM10pKFtDSDNdKUMoPU8pTihbQ0gyXTIpW0NIMl1bQ0gyXVtDSDJdMQ==

>  <s_epik_cmdline>  (345) 
J2VwaWtfcHl0aG9uJywgJy1waHQnLCAnMi4wJywgJy1waCcsICc3LjAnLCAnLXRuJywgJzgnLCAnLW1hJywgJzIwMCcsICctaW1hZScsICc8aW5maWxlLm1hZT4nLCAnLW9tYWUnLCAnPG91dGZpbGUubWFlPic=

>  <r_epik_Ionization_Penalty>  (345) 
0.240554

>  <r_epik_Ionization_Penalty_Charging>  (345) 
0.240554

>  <r_epik_Ionization_Penalty_Neutral>  (345) 
3.11793e-14

>  <r_epik_State_Penalty>  (345) 
0.231523

>  <r_epik_Charging_Adjusted_Penalty>  (345) 
0.472077

>  <i_epik_Tot_Q>  (345) 
1

>  <i_epik_Tot_abs_Q>  (345) 
1

>  <s_lp_Force_Field>  (345) 
OPLS3e

>  <r_lp_Energy>  (345) 
32.8301

>  <b_lp_Chiralities_Consistent>  (345) 
1

>  <s_lp_Variant>  (345) 
91:0-1

>  <s_i_glide_gridfile>  (345) 
pfpi4k_grid

>  <i_i_glide_lignum>  (345) 
42

>  <i_i_glide_rotatable_bonds>  (345) 
0

>  <r_i_docking_score>  (345) 
-2.99892

>  <r_i_glide_ligand_efficiency>  (345) 
-0.214209

>  <r_i_glide_ligand_efficiency_sa>  (345) 
-0.516273

>  <r_i_glide_ligand_efficiency_ln>  (345) 
-0.824093

>  <r_i_glide_gscore>  (345) 
-2.99892

>  <r_i_glide_lipo>  (345) 
-0.268891

>  <r_i_glide_hbond>  (345) 
0

>  <r_i_glide_metal>  (345) 
-0

>  <r_i_glide_rewards>  (345) 
-2.22644

>  <r_i_glide_evdw>  (345) 
-9.18107

>  <r_i_glide_ecoul>  (345) 
0.0986409

>  <r_i_glide_erotb>  (345) 
0

>  <r_i_glide_esite>  (345) 
-0.059333

>  <r_i_glide_emodel>  (345) 
-11.2304

>  <r_i_glide_energy>  (345) 
-9.08243

>  <r_i_glide_einternal>  (345) 
0

>  <r_i_glide_intrahb_reward>  (345) 
-0

>  <i_i_glide_confnum>  (345) 
1

>  <i_i_glide_posenum>  (345) 
9

>  <r_i_glide_eff_state_penalty>  (345) 
0

>  <ligand_id>  (345) 
91

>  <original_smiles>  (345) 
CN1C2(C)CCCN(C2)C(=O)C1(C)C

>  <smiles>  (345) 
[H]C([H])([H])C1(C([H])([H])[H])C(=O)N2C([H])([H])C([H])([H])C([H])([H])C(C([H])([H])[H])(C2([H])[H])[N+]1([H])C([H])([H])[H]

$$$$
91:1:0
     RDKit          3D

 34 35  0  0  1  0  0  0  0  0999 V2000
    4.8555   -1.2072   -3.1042 C   0  0  0  0  0  0  0  0  0  0  0  0
    4.4135   -2.2382   -2.2044 N   0  0  0  0  0  0  0  0  0  0  0  0
    5.4152   -2.8014   -1.2467 C   0  0  1  0  0  0  0  0  0  0  0  0
    6.8393   -2.8740   -1.8240 C   0  0  0  0  0  0  0  0  0  0  0  0
    5.3541   -1.9254    0.0379 C   0  0  0  0  0  0  0  0  0  0  0  0
    4.0088   -2.0442    0.8067 C   0  0  0  0  0  0  0  0  0  0  0  0
    3.5002   -3.5021    0.9258 C   0  0  0  0  0  0  0  0  0  0  0  0
    3.6117   -4.1188   -0.3889 N   0  0  0  0  0  0  0  0  0  0  0  0
    4.9894   -4.2224   -0.8284 C   0  0  0  0  0  0  0  0  0  0  0  0
    2.6957   -3.7914   -1.3493 C   0  0  0  0  0  0  0  0  0  0  0  0
    1.4902   -3.9442   -1.1519 O   0  0  0  0  0  0  0  0  0  0  0  0
    3.2581   -3.0612   -2.6205 C   0  0  0  0  0  0  0  0  0  0  0  0
    2.1641   -2.1424   -3.1312 C   0  0  0  0  0  0  0  0  0  0  0  0
    3.5642   -3.9533   -3.8308 C   0  0  0  0  0  0  0  0  0  0  0  0
    5.5453   -0.5483   -2.5869 H   0  0  0  0  0  0  0  0  0  0  0  0
    4.0734   -0.5411   -3.4931 H   0  0  0  0  0  0  0  0  0  0  0  0
    5.3093   -1.7332   -3.9432 H   0  0  0  0  0  0  0  0  0  0  0  0
    7.5041   -3.3866   -1.1319 H   0  0  0  0  0  0  0  0  0  0  0  0
    7.2692   -1.8893   -1.9971 H   0  0  0  0  0  0  0  0  0  0  0  0
    6.8674   -3.4253   -2.7655 H   0  0  0  0  0  0  0  0  0  0  0  0
    6.1461   -2.2659    0.7063 H   0  0  0  0  0  0  0  0  0  0  0  0
    5.5757   -0.8772   -0.1915 H   0  0  0  0  0  0  0  0  0  0  0  0
    4.0972   -1.6040    1.7986 H   0  0  0  0  0  0  0  0  0  0  0  0
    3.2515   -1.4571    0.2859 H   0  0  0  0  0  0  0  0  0  0  0  0
    4.1026   -4.0785    1.6320 H   0  0  0  0  0  0  0  0  0  0  0  0
    2.4738   -3.5241    1.2770 H   0  0  0  0  0  0  0  0  0  0  0  0
    5.0662   -4.9511   -1.6312 H   0  0  0  0  0  0  0  0  0  0  0  0
    5.6156   -4.6038   -0.0135 H   0  0  0  0  0  0  0  0  0  0  0  0
    1.2721   -2.7357   -3.3112 H   0  0  0  0  0  0  0  0  0  0  0  0
    2.3917   -1.6588   -4.0797 H   0  0  0  0  0  0  0  0  0  0  0  0
    2.0221   -1.4062   -2.3627 H   0  0  0  0  0  0  0  0  0  0  0  0
    2.7028   -4.5923   -4.0804 H   0  0  0  0  0  0  0  0  0  0  0  0
    4.4061   -4.6083   -3.6611 H   0  0  0  0  0  0  0  0  0  0  0  0
    3.7942   -3.3367   -4.7086 H   0  0  0  0  0  0  0  0  0  0  0  0
  1  2  1  0
  1 15  1  0
  1 16  1  0
  1 17  1  0
  2 12  1  0
  2  3  1  0
  3  9  1  0
  3  4  1  6
  3  5  1  0
  4 18  1  0
  4 19  1  0
  4 20  1  0
  5  6  1  0
  5 21  1  0
  5 22  1  0
  6  7  1  0
  6 23  1  0
  6 24  1  0
  7  8  1  0
  7 25  1  0
  7 26  1  0
  8  9  1  0
  8 10  1  0
  9 27  1  0
  9 28  1  0
 10 11  2  0
 10 12  1  0
 12 13  1  0
 12 14  1  0
 13 29  1  0
 13 30  1  0
 13 31  1  0
 14 32  1  0
 14 33  1  0
 14 34  1  0
M  END
>  <i_m_ct_stereo_status>  (346) 
1

>  <s_m_source_file>  (346) 
/var/tmp/pbs.5076255.sched01/tmp7rmqr72f/92ch8atech.sdf

>  <i_m_source_file_index>  (346) 
43

>  <i_lp_mmshare_version>  (346) 
48012

>  <i_f3d_flags>  (346) 
0

>  <s_epik_input>  (346) 
W0NIM11bQ0BdMTJOKFtDSDNdKUMoW0NIM10pKFtDSDNdKUMoPU8pTihbQ0gyXTIpW0NIMl1bQ0gyXVtDSDJdMQ==

>  <s_epik_cmdline>  (346) 
J2VwaWtfcHl0aG9uJywgJy1waHQnLCAnMi4wJywgJy1waCcsICc3LjAnLCAnLXRuJywgJzgnLCAnLW1hJywgJzIwMCcsICctaW1hZScsICc8aW5maWxlLm1hZT4nLCAnLW9tYWUnLCAnPG91dGZpbGUubWFlPic=

>  <r_epik_Ionization_Penalty>  (346) 
0.65027

>  <r_epik_Ionization_Penalty_Charging>  (346) 
0

>  <r_epik_Ionization_Penalty_Neutral>  (346) 
0.65027

>  <r_epik_State_Penalty>  (346) 
0.668724

>  <r_epik_Charging_Adjusted_Penalty>  (346) 
0.668724

>  <i_epik_Tot_Q>  (346) 
0

>  <i_epik_Tot_abs_Q>  (346) 
0

>  <s_lp_Force_Field>  (346) 
OPLS3e

>  <r_lp_Energy>  (346) 
48.1868

>  <b_lp_Chiralities_Consistent>  (346) 
1

>  <s_lp_Variant>  (346) 
91:0-2

>  <s_i_glide_gridfile>  (346) 
pfpi4k_grid

>  <i_i_glide_lignum>  (346) 
43

>  <i_i_glide_rotatable_bonds>  (346) 
0

>  <r_i_docking_score>  (346) 
-2.42538

>  <r_i_glide_ligand_efficiency>  (346) 
-0.173242

>  <r_i_glide_ligand_efficiency_sa>  (346) 
-0.417537

>  <r_i_glide_ligand_efficiency_ln>  (346) 
-0.666487

>  <r_i_glide_gscore>  (346) 
-2.42538

>  <r_i_glide_lipo>  (346) 
-0.0297952

>  <r_i_glide_hbond>  (346) 
-0.019709

>  <r_i_glide_metal>  (346) 
-0

>  <r_i_glide_rewards>  (346) 
-2.07075

>  <r_i_glide_evdw>  (346) 
-3.66057

>  <r_i_glide_ecoul>  (346) 
-0.657706

>  <r_i_glide_erotb>  (346) 
0

>  <r_i_glide_esite>  (346) 
-0.0234408

>  <r_i_glide_emodel>  (346) 
-4.97138

>  <r_i_glide_energy>  (346) 
-4.31827

>  <r_i_glide_einternal>  (346) 
0

>  <r_i_glide_intrahb_reward>  (346) 
-0

>  <i_i_glide_confnum>  (346) 
1

>  <i_i_glide_posenum>  (346) 
1

>  <r_i_glide_eff_state_penalty>  (346) 
0

>  <ligand_id>  (346) 
91

>  <original_smiles>  (346) 
CN1C2(C)CCCN(C2)C(=O)C1(C)C

>  <smiles>  (346) 
[H]C([H])([H])N1C(C([H])([H])[H])(C([H])([H])[H])C(=O)N2C([H])([H])C([H])([H])C([H])([H])C1(C([H])([H])[H])C2([H])[H]

$$$$
94:0:0
     RDKit          3D

 62 68  0  0  1  0  0  0  0  0999 V2000
   -0.8186   -9.3337    2.5189 C   0  0  0  0  0  0  0  0  0  0  0  0
    0.4319   -9.1680    3.3656 C   0  0  0  0  0  0  0  0  0  0  0  0
    1.0405   -7.9889    3.5582 C   0  0  0  0  0  0  0  0  0  0  0  0
    0.5677   -6.8358    2.9668 O   0  0  0  0  0  0  0  0  0  0  0  0
    1.0554   -5.5992    3.5000 C   0  0  1  0  0  0  0  0  0  0  0  0
    1.0331   -5.7804    5.0227 C   0  0  0  0  0  0  0  0  0  0  0  0
    2.4061   -6.4430    5.1676 C   0  0  2  0  0  0  0  0  0  0  0  0
    3.3113   -5.3616    4.4988 C   0  0  1  0  0  0  0  0  0  0  0  0
    3.2946   -3.9900    5.2533 C   0  0  0  0  0  0  0  0  0  0  0  0
    4.8263   -5.7618    4.4741 C   0  0  0  0  0  0  0  0  0  0  0  0
    5.5460   -5.8271    3.1104 C   0  0  0  0  0  0  0  0  0  0  0  0
    4.7189   -5.3977    1.8781 C   0  0  2  0  0  0  0  0  0  0  0  0
    4.7518   -3.8983    1.5249 C   0  0  0  0  0  0  0  0  0  0  0  0
    5.2980   -2.9627    2.3346 C   0  0  0  0  0  0  0  0  0  0  0  0
    5.2397   -1.5245    2.0253 C   0  0  0  0  0  0  0  0  0  0  0  0
    5.7944   -0.6975    2.7420 O   0  0  0  0  0  0  0  0  0  0  0  0
    4.4797   -1.1103    0.8379 C   0  0  0  0  0  0  0  0  0  0  0  0
    3.9318   -2.0288    0.0239 C   0  0  0  0  0  0  0  0  0  0  0  0
    4.0476   -3.5456    0.1954 C   0  0  1  0  0  0  0  0  0  0  0  0
    4.8684   -4.0651   -1.0036 C   0  0  0  0  0  0  0  0  0  0  0  0
    2.6292   -4.1605    0.1849 C   0  0  0  0  0  0  0  0  0  0  0  0
    2.5832   -5.6448    0.6099 C   0  0  0  0  0  0  0  0  0  0  0  0
    3.2683   -5.9476    1.9688 C   0  0  1  0  0  0  0  0  0  0  0  0
    3.3376   -7.4996    2.1398 C   0  0  0  0  0  0  0  0  0  0  0  0
    3.4499   -7.9783    3.4959 O   0  0  0  0  0  0  0  0  0  0  0  0
    2.3259   -7.8339    4.3789 C   0  0  2  0  0  0  0  0  0  0  0  0
    2.3920   -9.0241    5.3889 C   0  0  1  0  0  0  0  0  0  0  0  0
    1.5180   -8.8357    6.4851 O   0  0  0  0  0  0  0  0  0  0  0  0
    2.1225  -10.2536    4.7545 O   0  0  0  0  0  0  0  0  0  0  0  0
    1.0274  -10.4045    3.9276 C   0  0  0  0  0  0  0  0  0  0  0  0
    0.6182  -11.5241    3.6308 O   0  0  0  0  0  0  0  0  0  0  0  0
    2.5462   -5.2227    3.1546 C   0  0  1  0  0  0  0  0  0  0  0  0
   -1.6455   -9.7151    3.1232 H   0  0  0  0  0  0  0  0  0  0  0  0
   -0.6355  -10.0376    1.7064 H   0  0  0  0  0  0  0  0  0  0  0  0
   -1.1271   -8.3888    2.0731 H   0  0  0  0  0  0  0  0  0  0  0  0
    0.3776   -4.8056    3.1976 H   0  0  0  0  0  0  0  0  0  0  0  0
    0.9356   -4.8412    5.5567 H   0  0  0  0  0  0  0  0  0  0  0  0
    0.2096   -6.3996    5.3818 H   0  0  0  0  0  0  0  0  0  0  0  0
    2.6894   -6.5716    6.2124 H   0  0  0  0  0  0  0  0  0  0  0  0
    4.0854   -3.3277    4.8999 H   0  0  0  0  0  0  0  0  0  0  0  0
    3.4504   -4.1181    6.3252 H   0  0  0  0  0  0  0  0  0  0  0  0
    2.3836   -3.4083    5.1154 H   0  0  0  0  0  0  0  0  0  0  0  0
    5.4109   -5.1077    5.1234 H   0  0  0  0  0  0  0  0  0  0  0  0
    4.9473   -6.7262    4.9701 H   0  0  0  0  0  0  0  0  0  0  0  0
    6.5073   -5.3155    3.1452 H   0  0  0  0  0  0  0  0  0  0  0  0
    5.8336   -6.8669    2.9589 H   0  0  0  0  0  0  0  0  0  0  0  0
    5.2138   -5.8838    1.0367 H   0  0  0  0  0  0  0  0  0  0  0  0
    5.7690   -3.2266    3.2688 H   0  0  0  0  0  0  0  0  0  0  0  0
    4.3766   -0.0489    0.6503 H   0  0  0  0  0  0  0  0  0  0  0  0
    3.3636   -1.6888   -0.8353 H   0  0  0  0  0  0  0  0  0  0  0  0
    5.8808   -3.6597   -0.9948 H   0  0  0  0  0  0  0  0  0  0  0  0
    4.4061   -3.7743   -1.9482 H   0  0  0  0  0  0  0  0  0  0  0  0
    4.9486   -5.1515   -1.0221 H   0  0  0  0  0  0  0  0  0  0  0  0
    1.9885   -3.5817    0.8476 H   0  0  0  0  0  0  0  0  0  0  0  0
    2.1906   -4.0595   -0.8094 H   0  0  0  0  0  0  0  0  0  0  0  0
    1.5518   -5.9967    0.6170 H   0  0  0  0  0  0  0  0  0  0  0  0
    3.0784   -6.2324   -0.1645 H   0  0  0  0  0  0  0  0  0  0  0  0
    2.5231   -7.9922    1.6121 H   0  0  0  0  0  0  0  0  0  0  0  0
    4.2081   -7.8806    1.6033 H   0  0  0  0  0  0  0  0  0  0  0  0
    3.3989   -9.1016    5.8063 H   0  0  0  0  0  0  0  0  0  0  0  0
    1.5304   -9.6404    6.9964 H   0  0  0  0  0  0  0  0  0  0  0  0
    2.5269   -4.1618    2.9183 H   0  0  0  0  0  0  0  0  0  0  0  0
  1  2  1  0
  1 33  1  0
  1 34  1  0
  1 35  1  0
  2 30  1  0
  2  3  2  0
  3 26  1  0
  3  4  1  0
  4  5  1  0
  5 32  1  0
  5  6  1  0
  5 36  1  1
  6  7  1  0
  6 37  1  0
  6 38  1  0
  7 26  1  0
  7  8  1  0
  7 39  1  1
  8 32  1  0
  8  9  1  1
  8 10  1  0
  9 40  1  0
  9 41  1  0
  9 42  1  0
 10 11  1  0
 10 43  1  0
 10 44  1  0
 11 12  1  0
 11 45  1  0
 11 46  1  0
 12 23  1  0
 12 13  1  0
 12 47  1  6
 13 19  1  0
 13 14  2  0
 14 15  1  0
 14 48  1  0
 15 16  2  0
 15 17  1  0
 17 18  2  0
 17 49  1  0
 18 19  1  0
 18 50  1  0
 19 20  1  6
 19 21  1  0
 20 51  1  0
 20 52  1  0
 20 53  1  0
 21 22  1  0
 21 54  1  0
 21 55  1  0
 23 22  1  6
 22 56  1  0
 22 57  1  0
 23 24  1  0
 23 32  1  0
 24 25  1  0
 24 58  1  0
 24 59  1  0
 26 25  1  6
 26 27  1  0
 27 28  1  0
 27 29  1  0
 27 60  1  1
 28 61  1  0
 29 30  1  0
 30 31  2  0
 32 62  1  6
M  END
>  <i_m_ct_stereo_status>  (347) 
1

>  <s_m_source_file>  (347) 
/var/tmp/pbs.5076255.sched01/tmp7rmqr72f/92ch8atech.sdf

>  <i_m_source_file_index>  (347) 
46

>  <i_lp_mmshare_version>  (347) 
48012

>  <i_f3d_flags>  (347) 
0

>  <s_epik_input>  (347) 
W09IXVtDQEhdMU9DKD1PKUMoW0NIM10pPUMoT1tDQEBIXShbQ0gyXTIpW0NAQEhdMzQpW0NAQF0xKE9bQ0gyXTUpW0NASF0yW0NAQF0zKFtDSDNdKVtDSDJdW0NIMl1bQ0BASF0oW0NAXTQ1NilDPTdbQ0BAXShbQ0gzXSkoW0NIMl1bQ0gyXTYpW0NIXT1bQ0hdQyg9TylbQ0hdNw==

>  <s_epik_cmdline>  (347) 
J2VwaWtfcHl0aG9uJywgJy1waHQnLCAnMi4wJywgJy1waCcsICc3LjAnLCAnLXRuJywgJzgnLCAnLW1hJywgJzIwMCcsICctaW1hZScsICc8aW5maWxlLm1hZT4nLCAnLW9tYWUnLCAnPG91dGZpbGUubWFlPic=

>  <r_lp_tautomer_probability>  (347) 
1

>  <r_epik_Ionization_Penalty>  (347) 
0.00281322

>  <r_epik_Ionization_Penalty_Charging>  (347) 
0

>  <r_epik_Ionization_Penalty_Neutral>  (347) 
0.00281322

>  <r_epik_State_Penalty>  (347) 
0.00196664

>  <r_epik_Charging_Adjusted_Penalty>  (347) 
0.00196664

>  <i_epik_Tot_Q>  (347) 
0

>  <i_epik_Tot_abs_Q>  (347) 
0

>  <s_epik_Chemistry_Notes>  (347) 
This compound has an ester and may undergo hydrolysis at high or low pH. This compound contains an acetal/aminal-like group ( X-CH(R)-Y where X, Y are N, S, or O) that may be acid/base labile, releasing an aldehyde.

>  <s_lp_Force_Field>  (347) 
OPLS3e

>  <r_lp_Energy>  (347) 
103.9

>  <b_lp_Chiralities_Consistent>  (347) 
1

>  <s_lp_Variant>  (347) 
94:0-1

>  <s_i_glide_gridfile>  (347) 
pfpi4k_grid

>  <i_i_glide_lignum>  (347) 
46

>  <i_i_glide_rotatable_bonds>  (347) 
1

>  <r_i_docking_score>  (347) 
-2.78857

>  <r_i_glide_ligand_efficiency>  (347) 
-0.0871429

>  <r_i_glide_ligand_efficiency_sa>  (347) 
-0.276661

>  <r_i_glide_ligand_efficiency_ln>  (347) 
-0.624437

>  <r_i_glide_gscore>  (347) 
-2.78857

>  <r_i_glide_lipo>  (347) 
-0.33703

>  <r_i_glide_hbond>  (347) 
0

>  <r_i_glide_metal>  (347) 
-0

>  <r_i_glide_rewards>  (347) 
-0.553207

>  <r_i_glide_evdw>  (347) 
-30.7834

>  <r_i_glide_ecoul>  (347) 
-2.26429

>  <r_i_glide_erotb>  (347) 
0

>  <r_i_glide_esite>  (347) 
-0.0195235

>  <r_i_glide_emodel>  (347) 
-38.3067

>  <r_i_glide_energy>  (347) 
-33.0476

>  <r_i_glide_einternal>  (347) 
0.596656

>  <r_i_glide_intrahb_reward>  (347) 
-0

>  <i_i_glide_confnum>  (347) 
2

>  <i_i_glide_posenum>  (347) 
1

>  <r_i_glide_eff_state_penalty>  (347) 
0

>  <ligand_id>  (347) 
94

>  <original_smiles>  (347) 
CC1=C2OC3CC4C5(C)CCC6C7=CC(=O)C=CC7(C)CCC6(COC24C(O)OC1=O)C35

>  <smiles>  (347) 
[H]OC1([H])OC(=O)C(C([H])([H])[H])=C2OC3([H])C([H])([H])C4([H])C21OC([H])([H])C12C([H])([H])C([H])([H])C5(C([H])([H])[H])C([H])=C([H])C(=O)C([H])=C5C1([H])C([H])([H])C([H])([H])C4(C([H])([H])[H])C32[H]

$$$$
94:0:1
     RDKit          3D

 62 68  0  0  1  0  0  0  0  0999 V2000
    4.6747   -3.5440   -2.9985 C   0  0  0  0  0  0  0  0  0  0  0  0
    4.8197   -2.9084   -1.6310 C   0  0  0  0  0  0  0  0  0  0  0  0
    4.8902   -3.6128   -0.4918 C   0  0  0  0  0  0  0  0  0  0  0  0
    4.8041   -4.9892   -0.4946 O   0  0  0  0  0  0  0  0  0  0  0  0
    5.2249   -5.6691    0.6942 C   0  0  1  0  0  0  0  0  0  0  0  0
    6.5123   -4.9528    1.1228 C   0  0  0  0  0  0  0  0  0  0  0  0
    5.8603   -3.8241    1.9262 C   0  0  2  0  0  0  0  0  0  0  0  0
    5.0265   -4.6576    2.9513 C   0  0  1  0  0  0  0  0  0  0  0  0
    5.8988   -5.5592    3.8911 C   0  0  0  0  0  0  0  0  0  0  0  0
    4.2050   -3.7610    3.9420 C   0  0  0  0  0  0  0  0  0  0  0  0
    2.6729   -3.9425    4.0001 C   0  0  0  0  0  0  0  0  0  0  0  0
    2.0882   -5.0744    3.1265 C   0  0  2  0  0  0  0  0  0  0  0  0
    2.0129   -6.4683    3.7801 C   0  0  0  0  0  0  0  0  0  0  0  0
    2.5955   -6.7556    4.9631 C   0  0  0  0  0  0  0  0  0  0  0  0
    2.5947   -8.1133    5.5292 C   0  0  0  0  0  0  0  0  0  0  0  0
    3.0705   -8.3299    6.6386 O   0  0  0  0  0  0  0  0  0  0  0  0
    2.0159   -9.1944    4.7178 C   0  0  0  0  0  0  0  0  0  0  0  0
    1.4317   -8.9228    3.5394 C   0  0  0  0  0  0  0  0  0  0  0  0
    1.2759   -7.5278    2.9342 C   0  0  1  0  0  0  0  0  0  0  0  0
   -0.2371   -7.2318    2.8926 C   0  0  0  0  0  0  0  0  0  0  0  0
    1.8613   -7.5374    1.5082 C   0  0  0  0  0  0  0  0  0  0  0  0
    2.0025   -6.1367    0.8757 C   0  0  0  0  0  0  0  0  0  0  0  0
    2.7860   -5.1149    1.7388 C   0  0  1  0  0  0  0  0  0  0  0  0
    2.6691   -3.7059    1.0749 C   0  0  0  0  0  0  0  0  0  0  0  0
    3.6890   -2.7490    1.3985 O   0  0  0  0  0  0  0  0  0  0  0  0
    5.0027   -2.9655    0.8856 C   0  0  2  0  0  0  0  0  0  0  0  0
    5.6357   -1.5494    0.7032 C   0  0  1  0  0  0  0  0  0  0  0  0
    7.0350   -1.6165    0.5135 O   0  0  0  0  0  0  0  0  0  0  0  0
    5.0281   -0.8394   -0.3558 O   0  0  0  0  0  0  0  0  0  0  0  0
    4.8211   -1.4305   -1.5836 C   0  0  0  0  0  0  0  0  0  0  0  0
    4.6146   -0.7468   -2.5850 O   0  0  0  0  0  0  0  0  0  0  0  0
    4.2690   -5.5636    1.9443 C   0  0  1  0  0  0  0  0  0  0  0  0
    5.5232   -3.2897   -3.6351 H   0  0  0  0  0  0  0  0  0  0  0  0
    3.7513   -3.2109   -3.4757 H   0  0  0  0  0  0  0  0  0  0  0  0
    4.6292   -4.6309   -2.9232 H   0  0  0  0  0  0  0  0  0  0  0  0
    5.4154   -6.7091    0.4351 H   0  0  0  0  0  0  0  0  0  0  0  0
    7.1743   -5.5843    1.7068 H   0  0  0  0  0  0  0  0  0  0  0  0
    7.1199   -4.5985    0.2891 H   0  0  0  0  0  0  0  0  0  0  0  0
    6.5929   -3.2092    2.4488 H   0  0  0  0  0  0  0  0  0  0  0  0
    5.3154   -5.9609    4.7198 H   0  0  0  0  0  0  0  0  0  0  0  0
    6.7234   -5.0157    4.3449 H   0  0  0  0  0  0  0  0  0  0  0  0
    6.3217   -6.4383    3.4070 H   0  0  0  0  0  0  0  0  0  0  0  0
    4.5847   -3.8602    4.9610 H   0  0  0  0  0  0  0  0  0  0  0  0
    4.4146   -2.7105    3.7319 H   0  0  0  0  0  0  0  0  0  0  0  0
    2.3206   -4.0091    5.0292 H   0  0  0  0  0  0  0  0  0  0  0  0
    2.2338   -3.0065    3.6537 H   0  0  0  0  0  0  0  0  0  0  0  0
    1.0479   -4.7881    2.9766 H   0  0  0  0  0  0  0  0  0  0  0  0
    3.1256   -6.0088    5.5328 H   0  0  0  0  0  0  0  0  0  0  0  0
    2.0738  -10.2049    5.1030 H   0  0  0  0  0  0  0  0  0  0  0  0
    1.0146   -9.7418    2.9633 H   0  0  0  0  0  0  0  0  0  0  0  0
   -0.6554   -7.1939    3.9004 H   0  0  0  0  0  0  0  0  0  0  0  0
   -0.7786   -8.0062    2.3464 H   0  0  0  0  0  0  0  0  0  0  0  0
   -0.4619   -6.2885    2.4033 H   0  0  0  0  0  0  0  0  0  0  0  0
    2.8359   -8.0259    1.4999 H   0  0  0  0  0  0  0  0  0  0  0  0
    1.2311   -8.1585    0.8739 H   0  0  0  0  0  0  0  0  0  0  0  0
    2.4632   -6.2193   -0.1085 H   0  0  0  0  0  0  0  0  0  0  0  0
    1.0040   -5.7552    0.6805 H   0  0  0  0  0  0  0  0  0  0  0  0
    2.4993   -3.7836    0.0008 H   0  0  0  0  0  0  0  0  0  0  0  0
    1.7695   -3.2190    1.4250 H   0  0  0  0  0  0  0  0  0  0  0  0
    5.4848   -0.9636    1.6139 H   0  0  0  0  0  0  0  0  0  0  0  0
    7.4143   -0.8267    0.8881 H   0  0  0  0  0  0  0  0  0  0  0  0
    4.2486   -6.5610    2.3770 H   0  0  0  0  0  0  0  0  0  0  0  0
  1  2  1  0
  1 33  1  0
  1 34  1  0
  1 35  1  0
  2 30  1  0
  2  3  2  0
  3 26  1  0
  3  4  1  0
  4  5  1  0
  5 32  1  0
  5  6  1  0
  5 36  1  6
  6  7  1  0
  6 37  1  0
  6 38  1  0
  7 26  1  0
  7  8  1  0
  7 39  1  1
  8 32  1  0
  8  9  1  1
  8 10  1  0
  9 40  1  0
  9 41  1  0
  9 42  1  0
 10 11  1  0
 10 43  1  0
 10 44  1  0
 11 12  1  0
 11 45  1  0
 11 46  1  0
 12 23  1  0
 12 13  1  0
 12 47  1  6
 13 19  1  0
 13 14  2  0
 14 15  1  0
 14 48  1  0
 15 16  2  0
 15 17  1  0
 17 18  2  0
 17 49  1  0
 18 19  1  0
 18 50  1  0
 19 20  1  6
 19 21  1  0
 20 51  1  0
 20 52  1  0
 20 53  1  0
 21 22  1  0
 21 54  1  0
 21 55  1  0
 23 22  1  6
 22 56  1  0
 22 57  1  0
 23 24  1  0
 23 32  1  0
 24 25  1  0
 24 58  1  0
 24 59  1  0
 26 25  1  1
 26 27  1  0
 27 28  1  0
 27 29  1  0
 27 60  1  1
 28 61  1  0
 29 30  1  0
 30 31  2  0
 32 62  1  1
M  END
>  <i_m_ct_stereo_status>  (348) 
1

>  <s_m_source_file>  (348) 
/var/tmp/pbs.5076255.sched01/tmp7rmqr72f/92ch8atech.sdf

>  <i_m_source_file_index>  (348) 
46

>  <i_lp_mmshare_version>  (348) 
48012

>  <i_f3d_flags>  (348) 
0

>  <s_epik_input>  (348) 
W09IXVtDQEhdMU9DKD1PKUMoW0NIM10pPUMoT1tDQEBIXShbQ0gyXTIpW0NAQEhdMzQpW0NAQF0xKE9bQ0gyXTUpW0NASF0yW0NAQF0zKFtDSDNdKVtDSDJdW0NIMl1bQ0BASF0oW0NAXTQ1NilDPTdbQ0BAXShbQ0gzXSkoW0NIMl1bQ0gyXTYpW0NIXT1bQ0hdQyg9TylbQ0hdNw==

>  <s_epik_cmdline>  (348) 
J2VwaWtfcHl0aG9uJywgJy1waHQnLCAnMi4wJywgJy1waCcsICc3LjAnLCAnLXRuJywgJzgnLCAnLW1hJywgJzIwMCcsICctaW1hZScsICc8aW5maWxlLm1hZT4nLCAnLW9tYWUnLCAnPG91dGZpbGUubWFlPic=

>  <r_lp_tautomer_probability>  (348) 
1

>  <r_epik_Ionization_Penalty>  (348) 
0.00281322

>  <r_epik_Ionization_Penalty_Charging>  (348) 
0

>  <r_epik_Ionization_Penalty_Neutral>  (348) 
0.00281322

>  <r_epik_State_Penalty>  (348) 
0.00196664

>  <r_epik_Charging_Adjusted_Penalty>  (348) 
0.00196664

>  <i_epik_Tot_Q>  (348) 
0

>  <i_epik_Tot_abs_Q>  (348) 
0

>  <s_epik_Chemistry_Notes>  (348) 
This compound has an ester and may undergo hydrolysis at high or low pH. This compound contains an acetal/aminal-like group ( X-CH(R)-Y where X, Y are N, S, or O) that may be acid/base labile, releasing an aldehyde.

>  <s_lp_Force_Field>  (348) 
OPLS3e

>  <r_lp_Energy>  (348) 
103.9

>  <b_lp_Chiralities_Consistent>  (348) 
1

>  <s_lp_Variant>  (348) 
94:0-1

>  <s_i_glide_gridfile>  (348) 
pfpi4k_grid

>  <i_i_glide_lignum>  (348) 
46

>  <i_i_glide_rotatable_bonds>  (348) 
1

>  <r_i_docking_score>  (348) 
-2.73826

>  <r_i_glide_ligand_efficiency>  (348) 
-0.0855706

>  <r_i_glide_ligand_efficiency_sa>  (348) 
-0.27167

>  <r_i_glide_ligand_efficiency_ln>  (348) 
-0.613171

>  <r_i_glide_gscore>  (348) 
-2.73826

>  <r_i_glide_lipo>  (348) 
-0.426788

>  <r_i_glide_hbond>  (348) 
0

>  <r_i_glide_metal>  (348) 
-0

>  <r_i_glide_rewards>  (348) 
-0.554353

>  <r_i_glide_evdw>  (348) 
-31.8559

>  <r_i_glide_ecoul>  (348) 
-0.762653

>  <r_i_glide_erotb>  (348) 
0

>  <r_i_glide_esite>  (348) 
-0.0499229

>  <r_i_glide_emodel>  (348) 
-37.3876

>  <r_i_glide_energy>  (348) 
-32.6186

>  <r_i_glide_einternal>  (348) 
0.872903

>  <r_i_glide_intrahb_reward>  (348) 
-0

>  <i_i_glide_confnum>  (348) 
1

>  <i_i_glide_posenum>  (348) 
2

>  <r_i_glide_eff_state_penalty>  (348) 
0

>  <ligand_id>  (348) 
94

>  <original_smiles>  (348) 
CC1=C2OC3CC4C5(C)CCC6C7=CC(=O)C=CC7(C)CCC6(COC24C(O)OC1=O)C35

>  <smiles>  (348) 
[H]OC1([H])OC(=O)C(C([H])([H])[H])=C2OC3([H])C([H])([H])C4([H])C21OC([H])([H])C12C([H])([H])C([H])([H])C5(C([H])([H])[H])C([H])=C([H])C(=O)C([H])=C5C1([H])C([H])([H])C([H])([H])C4(C([H])([H])[H])C32[H]

$$$$
94:0:2
     RDKit          3D

 62 68  0  0  1  0  0  0  0  0999 V2000
   -0.8167   -9.2993    2.5256 C   0  0  0  0  0  0  0  0  0  0  0  0
    0.4361   -9.1395    3.3673 C   0  0  0  0  0  0  0  0  0  0  0  0
    1.0459   -7.9581    3.5559 C   0  0  0  0  0  0  0  0  0  0  0  0
    0.5684   -6.8027    2.9676 O   0  0  0  0  0  0  0  0  0  0  0  0
    1.0645   -5.5656    3.4948 C   0  0  1  0  0  0  0  0  0  0  0  0
    1.0409   -5.7424    5.0160 C   0  0  0  0  0  0  0  0  0  0  0  0
    2.4130   -6.4072    5.1627 C   0  0  2  0  0  0  0  0  0  0  0  0
    3.3193   -5.3305    4.4900 C   0  0  1  0  0  0  0  0  0  0  0  0
    3.3062   -3.9557    5.2397 C   0  0  0  0  0  0  0  0  0  0  0  0
    4.8334   -5.7332    4.4686 C   0  0  0  0  0  0  0  0  0  0  0  0
    5.5531   -5.8074    3.1048 C   0  0  0  0  0  0  0  0  0  0  0  0
    4.7270   -5.3817    1.8702 C   0  0  2  0  0  0  0  0  0  0  0  0
    4.7639   -3.8829    1.5106 C   0  0  0  0  0  0  0  0  0  0  0  0
    5.3118   -2.9467    2.3164 C   0  0  0  0  0  0  0  0  0  0  0  0
    5.2526   -1.5098    2.0029 C   0  0  0  0  0  0  0  0  0  0  0  0
    5.8030   -0.6801    2.7204 O   0  0  0  0  0  0  0  0  0  0  0  0
    4.4975   -1.0990    0.8120 C   0  0  0  0  0  0  0  0  0  0  0  0
    3.9480   -2.0195    0.0021 C   0  0  0  0  0  0  0  0  0  0  0  0
    4.0603   -3.5349    0.1806 C   0  0  1  0  0  0  0  0  0  0  0  0
    4.8804   -4.0607   -1.0147 C   0  0  0  0  0  0  0  0  0  0  0  0
    2.6409   -4.1461    0.1722 C   0  0  0  0  0  0  0  0  0  0  0  0
    2.5901   -5.6277    0.6042 C   0  0  0  0  0  0  0  0  0  0  0  0
    3.2752   -5.9277    1.9630 C   0  0  1  0  0  0  0  0  0  0  0  0
    3.3418   -7.4783    2.1379 C   0  0  0  0  0  0  0  0  0  0  0  0
    3.4567   -7.9514    3.4946 O   0  0  0  0  0  0  0  0  0  0  0  0
    2.3305   -7.7995    4.3720 C   0  0  2  0  0  0  0  0  0  0  0  0
    2.3909   -8.9790    5.3880 C   0  0  1  0  0  0  0  0  0  0  0  0
    1.5215   -8.7648    6.4852 O   0  0  0  0  0  0  0  0  0  0  0  0
    2.1250  -10.2166    4.7650 O   0  0  0  0  0  0  0  0  0  0  0  0
    1.0365  -10.3762    3.9298 C   0  0  0  0  0  0  0  0  0  0  0  0
    0.6271  -11.4958    3.6357 O   0  0  0  0  0  0  0  0  0  0  0  0
    2.5556   -5.1961    3.1464 C   0  0  1  0  0  0  0  0  0  0  0  0
   -1.6449   -9.6848    3.1238 H   0  0  0  0  0  0  0  0  0  0  0  0
   -0.6348  -10.0048    1.7133 H   0  0  0  0  0  0  0  0  0  0  0  0
   -1.1268   -8.3534    2.0771 H   0  0  0  0  0  0  0  0  0  0  0  0
    0.3896   -4.7726    3.1894 H   0  0  0  0  0  0  0  0  0  0  0  0
    0.9461   -4.8010    5.5474 H   0  0  0  0  0  0  0  0  0  0  0  0
    0.2145   -6.3559    5.3778 H   0  0  0  0  0  0  0  0  0  0  0  0
    2.6978   -6.5331    6.2080 H   0  0  0  0  0  0  0  0  0  0  0  0
    4.0972   -3.2956    4.8817 H   0  0  0  0  0  0  0  0  0  0  0  0
    3.4631   -4.0796    6.3116 H   0  0  0  0  0  0  0  0  0  0  0  0
    2.3958   -3.3741    5.1010 H   0  0  0  0  0  0  0  0  0  0  0  0
    5.4205   -5.0756    5.1134 H   0  0  0  0  0  0  0  0  0  0  0  0
    4.9539   -6.6953    4.9702 H   0  0  0  0  0  0  0  0  0  0  0  0
    6.5156   -5.2986    3.1378 H   0  0  0  0  0  0  0  0  0  0  0  0
    5.8393   -6.8489    2.9583 H   0  0  0  0  0  0  0  0  0  0  0  0
    5.2197   -5.8738    1.0323 H   0  0  0  0  0  0  0  0  0  0  0  0
    5.7854   -3.2085    3.2502 H   0  0  0  0  0  0  0  0  0  0  0  0
    4.3974   -0.0378    0.6193 H   0  0  0  0  0  0  0  0  0  0  0  0
    3.3804   -1.6821   -0.8588 H   0  0  0  0  0  0  0  0  0  0  0  0
    5.8946   -3.6582   -1.0050 H   0  0  0  0  0  0  0  0  0  0  0  0
    4.4224   -3.7723   -1.9618 H   0  0  0  0  0  0  0  0  0  0  0  0
    4.9599   -5.1468   -1.0310 H   0  0  0  0  0  0  0  0  0  0  0  0
    1.9990   -3.5629    0.8304 H   0  0  0  0  0  0  0  0  0  0  0  0
    2.2006   -4.0486   -0.8216 H   0  0  0  0  0  0  0  0  0  0  0  0
    1.5575   -5.9774    0.6146 H   0  0  0  0  0  0  0  0  0  0  0  0
    3.0822   -6.2205   -0.1676 H   0  0  0  0  0  0  0  0  0  0  0  0
    2.5254   -7.9711    1.6135 H   0  0  0  0  0  0  0  0  0  0  0  0
    4.2114   -7.8644    1.6054 H   0  0  0  0  0  0  0  0  0  0  0  0
    3.3929   -9.0578    5.8166 H   0  0  0  0  0  0  0  0  0  0  0  0
    0.6307   -8.7673    6.1608 H   0  0  0  0  0  0  0  0  0  0  0  0
    2.5384   -4.1370    2.9068 H   0  0  0  0  0  0  0  0  0  0  0  0
  1  2  1  0
  1 33  1  0
  1 34  1  0
  1 35  1  0
  2 30  1  0
  2  3  2  0
  3 26  1  0
  3  4  1  0
  4  5  1  0
  5 32  1  0
  5  6  1  0
  5 36  1  1
  6  7  1  0
  6 37  1  0
  6 38  1  0
  7 26  1  0
  7  8  1  0
  7 39  1  1
  8 32  1  0
  8  9  1  1
  8 10  1  0
  9 40  1  0
  9 41  1  0
  9 42  1  0
 10 11  1  0
 10 43  1  0
 10 44  1  0
 11 12  1  0
 11 45  1  0
 11 46  1  0
 12 23  1  0
 12 13  1  0
 12 47  1  6
 13 19  1  0
 13 14  2  0
 14 15  1  0
 14 48  1  0
 15 16  2  0
 15 17  1  0
 17 18  2  0
 17 49  1  0
 18 19  1  0
 18 50  1  0
 19 20  1  6
 19 21  1  0
 20 51  1  0
 20 52  1  0
 20 53  1  0
 21 22  1  0
 21 54  1  0
 21 55  1  0
 23 22  1  6
 22 56  1  0
 22 57  1  0
 23 24  1  0
 23 32  1  0
 24 25  1  0
 24 58  1  0
 24 59  1  0
 26 25  1  6
 26 27  1  0
 27 28  1  0
 27 29  1  0
 27 60  1  1
 28 61  1  0
 29 30  1  0
 30 31  2  0
 32 62  1  6
M  END
>  <i_m_ct_stereo_status>  (349) 
1

>  <s_m_source_file>  (349) 
/var/tmp/pbs.5076255.sched01/tmp7rmqr72f/92ch8atech.sdf

>  <i_m_source_file_index>  (349) 
46

>  <i_lp_mmshare_version>  (349) 
48012

>  <i_f3d_flags>  (349) 
0

>  <s_epik_input>  (349) 
W09IXVtDQEhdMU9DKD1PKUMoW0NIM10pPUMoT1tDQEBIXShbQ0gyXTIpW0NAQEhdMzQpW0NAQF0xKE9bQ0gyXTUpW0NASF0yW0NAQF0zKFtDSDNdKVtDSDJdW0NIMl1bQ0BASF0oW0NAXTQ1NilDPTdbQ0BAXShbQ0gzXSkoW0NIMl1bQ0gyXTYpW0NIXT1bQ0hdQyg9TylbQ0hdNw==

>  <s_epik_cmdline>  (349) 
J2VwaWtfcHl0aG9uJywgJy1waHQnLCAnMi4wJywgJy1waCcsICc3LjAnLCAnLXRuJywgJzgnLCAnLW1hJywgJzIwMCcsICctaW1hZScsICc8aW5maWxlLm1hZT4nLCAnLW9tYWUnLCAnPG91dGZpbGUubWFlPic=

>  <r_lp_tautomer_probability>  (349) 
1

>  <r_epik_Ionization_Penalty>  (349) 
0.00281322

>  <r_epik_Ionization_Penalty_Charging>  (349) 
0

>  <r_epik_Ionization_Penalty_Neutral>  (349) 
0.00281322

>  <r_epik_State_Penalty>  (349) 
0.00196664

>  <r_epik_Charging_Adjusted_Penalty>  (349) 
0.00196664

>  <i_epik_Tot_Q>  (349) 
0

>  <i_epik_Tot_abs_Q>  (349) 
0

>  <s_epik_Chemistry_Notes>  (349) 
This compound has an ester and may undergo hydrolysis at high or low pH. This compound contains an acetal/aminal-like group ( X-CH(R)-Y where X, Y are N, S, or O) that may be acid/base labile, releasing an aldehyde.

>  <s_lp_Force_Field>  (349) 
OPLS3e

>  <r_lp_Energy>  (349) 
103.9

>  <b_lp_Chiralities_Consistent>  (349) 
1

>  <s_lp_Variant>  (349) 
94:0-1

>  <s_i_glide_gridfile>  (349) 
pfpi4k_grid

>  <i_i_glide_lignum>  (349) 
46

>  <i_i_glide_rotatable_bonds>  (349) 
1

>  <r_i_docking_score>  (349) 
-2.60774

>  <r_i_glide_ligand_efficiency>  (349) 
-0.0814918

>  <r_i_glide_ligand_efficiency_sa>  (349) 
-0.25872

>  <r_i_glide_ligand_efficiency_ln>  (349) 
-0.583944

>  <r_i_glide_gscore>  (349) 
-2.60774

>  <r_i_glide_lipo>  (349) 
-0.326824

>  <r_i_glide_hbond>  (349) 
0

>  <r_i_glide_metal>  (349) 
-0

>  <r_i_glide_rewards>  (349) 
-0.555321

>  <r_i_glide_evdw>  (349) 
-30.8209

>  <r_i_glide_ecoul>  (349) 
-1.09737

>  <r_i_glide_erotb>  (349) 
0

>  <r_i_glide_esite>  (349) 
-0.0199431

>  <r_i_glide_emodel>  (349) 
-37.0478

>  <r_i_glide_energy>  (349) 
-31.9183

>  <r_i_glide_einternal>  (349) 
0.103413

>  <r_i_glide_intrahb_reward>  (349) 
-0

>  <i_i_glide_confnum>  (349) 
1

>  <i_i_glide_posenum>  (349) 
12

>  <r_i_glide_eff_state_penalty>  (349) 
0

>  <ligand_id>  (349) 
94

>  <original_smiles>  (349) 
CC1=C2OC3CC4C5(C)CCC6C7=CC(=O)C=CC7(C)CCC6(COC24C(O)OC1=O)C35

>  <smiles>  (349) 
[H]OC1([H])OC(=O)C(C([H])([H])[H])=C2OC3([H])C([H])([H])C4([H])C21OC([H])([H])C12C([H])([H])C([H])([H])C5(C([H])([H])[H])C([H])=C([H])C(=O)C([H])=C5C1([H])C([H])([H])C([H])([H])C4(C([H])([H])[H])C32[H]

$$$$
95:0:0
     RDKit          3D

 20 21  0  0  1  0  0  0  0  0999 V2000
    0.5348   -3.0694    4.9039 C   0  0  0  0  0  0  0  0  0  0  0  0
   -0.3234   -1.8616    5.0274 C   0  0  0  0  0  0  0  0  0  0  0  0
   -1.3670   -1.8339    5.8484 N   0  0  0  0  0  0  0  0  0  0  0  0
   -1.8823   -0.5403    5.6671 O   0  0  0  0  0  0  0  0  0  0  0  0
   -1.0728    0.0599    4.7561 C   0  0  0  0  0  0  0  0  0  0  0  0
   -1.3971    1.4312    4.3754 C   0  0  0  0  0  0  0  0  0  0  0  0
   -2.1049    2.3901    5.0653 C   0  0  0  0  0  0  0  0  0  0  0  0
   -2.1796    3.5610    4.3168 N   0  0  0  0  0  0  0  0  0  0  0  0
   -1.5212    3.2542    3.2035 C   0  0  0  0  0  0  0  0  0  0  0  0
   -1.0359    2.0068    3.1541 N   0  0  0  0  0  0  0  0  0  0  0  0
   -0.2985    1.4122    2.0511 C   0  0  0  0  0  0  0  0  0  0  0  0
   -0.1040   -0.7349    4.3033 N   0  0  0  0  0  0  0  0  0  0  0  0
    0.0792   -3.9334    5.3862 H   0  0  0  0  0  0  0  0  0  0  0  0
    1.4964   -2.8914    5.3822 H   0  0  0  0  0  0  0  0  0  0  0  0
    0.6933   -3.2912    3.8488 H   0  0  0  0  0  0  0  0  0  0  0  0
   -2.5604    2.3367    6.0425 H   0  0  0  0  0  0  0  0  0  0  0  0
   -1.3978    3.9582    2.3942 H   0  0  0  0  0  0  0  0  0  0  0  0
   -0.1858    2.1306    1.2407 H   0  0  0  0  0  0  0  0  0  0  0  0
   -0.8316    0.5439    1.6667 H   0  0  0  0  0  0  0  0  0  0  0  0
    0.6969    1.1070    2.3743 H   0  0  0  0  0  0  0  0  0  0  0  0
  1  2  1  0
  1 13  1  0
  1 14  1  0
  1 15  1  0
  2 12  1  0
  2  3  2  0
  3  4  1  0
  4  5  1  0
  5  6  1  0
  5 12  2  0
  6 10  1  0
  6  7  2  0
  7  8  1  0
  7 16  1  0
  8  9  2  0
  9 10  1  0
  9 17  1  0
 10 11  1  0
 11 18  1  0
 11 19  1  0
 11 20  1  0
M  END
>  <i_m_ct_stereo_status>  (350) 
1

>  <s_m_source_file>  (350) 
/var/tmp/pbs.5076255.sched01/tmp1cu33jom/138ve8n868x.sdf

>  <i_m_source_file_index>  (350) 
1

>  <i_lp_mmshare_version>  (350) 
48012

>  <i_f3d_flags>  (350) 
0

>  <s_epik_input>  (350) 
W0NIM11jMW5vYyhuMSktYzJbY0hdbltjSF1uMltDSDNd

>  <s_epik_cmdline>  (350) 
J2VwaWtfcHl0aG9uJywgJy1waHQnLCAnMi4wJywgJy1waCcsICc3LjAnLCAnLXRuJywgJzgnLCAnLW1hJywgJzIwMCcsICctaW1hZScsICc8aW5maWxlLm1hZT4nLCAnLW9tYWUnLCAnPG91dGZpbGUubWFlPic=

>  <r_lp_tautomer_probability>  (350) 
1

>  <r_epik_Ionization_Penalty>  (350) 
0.0543987

>  <r_epik_Ionization_Penalty_Charging>  (350) 
0.0543987

>  <r_epik_Ionization_Penalty_Neutral>  (350) 
8.6197e-13

>  <r_epik_State_Penalty>  (350) 
0.0467944

>  <r_epik_Charging_Adjusted_Penalty>  (350) 
0.101193

>  <i_epik_Tot_Q>  (350) 
0

>  <i_epik_Tot_abs_Q>  (350) 
0

>  <s_lp_Force_Field>  (350) 
OPLS3e

>  <r_lp_Energy>  (350) 
-2.92827

>  <b_lp_Chiralities_Consistent>  (350) 
1

>  <s_lp_Variant>  (350) 
95:0-1

>  <s_i_glide_gridfile>  (350) 
pfpi4k_grid

>  <i_i_glide_lignum>  (350) 
1

>  <i_i_glide_rotatable_bonds>  (350) 
1

>  <r_i_docking_score>  (350) 
-3.42179

>  <r_i_glide_ligand_efficiency>  (350) 
-0.285149

>  <r_i_glide_ligand_efficiency_sa>  (350) 
-0.652829

>  <r_i_glide_ligand_efficiency_ln>  (350) 
-0.981889

>  <r_i_glide_gscore>  (350) 
-3.42179

>  <r_i_glide_lipo>  (350) 
-0.0070175

>  <r_i_glide_hbond>  (350) 
0

>  <r_i_glide_metal>  (350) 
-0

>  <r_i_glide_rewards>  (350) 
-2.25

>  <r_i_glide_evdw>  (350) 
-15.6647

>  <r_i_glide_ecoul>  (350) 
-4.46826

>  <r_i_glide_erotb>  (350) 
0.564952

>  <r_i_glide_esite>  (350) 
-0.276249

>  <r_i_glide_emodel>  (350) 
-25.0478

>  <r_i_glide_energy>  (350) 
-20.133

>  <r_i_glide_einternal>  (350) 
0.617638

>  <r_i_glide_intrahb_reward>  (350) 
-0

>  <i_i_glide_confnum>  (350) 
2

>  <i_i_glide_posenum>  (350) 
21

>  <r_i_glide_eff_state_penalty>  (350) 
0

>  <ligand_id>  (350) 
95

>  <original_smiles>  (350) 
Cc1noc(-c2cncn2C)n1

>  <smiles>  (350) 
[H]c1nc([H])n(C([H])([H])[H])c1-c1nc(C([H])([H])[H])no1

$$$$
95:0:1
     RDKit          3D

 20 21  0  0  1  0  0  0  0  0999 V2000
    3.5466   -7.0774    1.7699 C   0  0  0  0  0  0  0  0  0  0  0  0
    3.2588   -5.9102    0.8886 C   0  0  0  0  0  0  0  0  0  0  0  0
    2.0233   -5.6016    0.5048 N   0  0  0  0  0  0  0  0  0  0  0  0
    2.2199   -4.4808   -0.3182 O   0  0  0  0  0  0  0  0  0  0  0  0
    3.5590   -4.2511   -0.3293 C   0  0  0  0  0  0  0  0  0  0  0  0
    4.0911   -3.1231   -1.0899 C   0  0  0  0  0  0  0  0  0  0  0  0
    5.2708   -2.4412   -0.8865 C   0  0  0  0  0  0  0  0  0  0  0  0
    5.4141   -1.4411   -1.8452 N   0  0  0  0  0  0  0  0  0  0  0  0
    4.3081   -1.5462   -2.5743 C   0  0  0  0  0  0  0  0  0  0  0  0
    3.4761   -2.5282   -2.1969 N   0  0  0  0  0  0  0  0  0  0  0  0
    2.2231   -2.8692   -2.8417 C   0  0  0  0  0  0  0  0  0  0  0  0
    4.2468   -5.0965    0.4339 N   0  0  0  0  0  0  0  0  0  0  0  0
    2.6778   -7.7276    1.8654 H   0  0  0  0  0  0  0  0  0  0  0  0
    3.8309   -6.7313    2.7627 H   0  0  0  0  0  0  0  0  0  0  0  0
    4.3721   -7.6562    1.3535 H   0  0  0  0  0  0  0  0  0  0  0  0
    6.0230   -2.5982   -0.1240 H   0  0  0  0  0  0  0  0  0  0  0  0
    4.1080   -0.9025   -3.4182 H   0  0  0  0  0  0  0  0  0  0  0  0
    2.0345   -2.2098   -3.6882 H   0  0  0  0  0  0  0  0  0  0  0  0
    1.4066   -2.7679   -2.1320 H   0  0  0  0  0  0  0  0  0  0  0  0
    2.2531   -3.8933   -3.2056 H   0  0  0  0  0  0  0  0  0  0  0  0
  1  2  1  0
  1 13  1  0
  1 14  1  0
  1 15  1  0
  2 12  1  0
  2  3  2  0
  3  4  1  0
  4  5  1  0
  5  6  1  0
  5 12  2  0
  6 10  1  0
  6  7  2  0
  7  8  1  0
  7 16  1  0
  8  9  2  0
  9 10  1  0
  9 17  1  0
 10 11  1  0
 11 18  1  0
 11 19  1  0
 11 20  1  0
M  END
>  <i_m_ct_stereo_status>  (351) 
1

>  <s_m_source_file>  (351) 
/var/tmp/pbs.5076255.sched01/tmp1cu33jom/138ve8n868x.sdf

>  <i_m_source_file_index>  (351) 
1

>  <i_lp_mmshare_version>  (351) 
48012

>  <i_f3d_flags>  (351) 
0

>  <s_epik_input>  (351) 
W0NIM11jMW5vYyhuMSktYzJbY0hdbltjSF1uMltDSDNd

>  <s_epik_cmdline>  (351) 
J2VwaWtfcHl0aG9uJywgJy1waHQnLCAnMi4wJywgJy1waCcsICc3LjAnLCAnLXRuJywgJzgnLCAnLW1hJywgJzIwMCcsICctaW1hZScsICc8aW5maWxlLm1hZT4nLCAnLW9tYWUnLCAnPG91dGZpbGUubWFlPic=

>  <r_lp_tautomer_probability>  (351) 
1

>  <r_epik_Ionization_Penalty>  (351) 
0.0543987

>  <r_epik_Ionization_Penalty_Charging>  (351) 
0.0543987

>  <r_epik_Ionization_Penalty_Neutral>  (351) 
8.6197e-13

>  <r_epik_State_Penalty>  (351) 
0.0467944

>  <r_epik_Charging_Adjusted_Penalty>  (351) 
0.101193

>  <i_epik_Tot_Q>  (351) 
0

>  <i_epik_Tot_abs_Q>  (351) 
0

>  <s_lp_Force_Field>  (351) 
OPLS3e

>  <r_lp_Energy>  (351) 
-2.92827

>  <b_lp_Chiralities_Consistent>  (351) 
1

>  <s_lp_Variant>  (351) 
95:0-1

>  <s_i_glide_gridfile>  (351) 
pfpi4k_grid

>  <i_i_glide_lignum>  (351) 
1

>  <i_i_glide_rotatable_bonds>  (351) 
1

>  <r_i_docking_score>  (351) 
-3.35308

>  <r_i_glide_ligand_efficiency>  (351) 
-0.279423

>  <r_i_glide_ligand_efficiency_sa>  (351) 
-0.63972

>  <r_i_glide_ligand_efficiency_ln>  (351) 
-0.962172

>  <r_i_glide_gscore>  (351) 
-3.35308

>  <r_i_glide_lipo>  (351) 
-0.120675

>  <r_i_glide_hbond>  (351) 
0

>  <r_i_glide_metal>  (351) 
-0

>  <r_i_glide_rewards>  (351) 
-2.25

>  <r_i_glide_evdw>  (351) 
-17.1333

>  <r_i_glide_ecoul>  (351) 
-3.32462

>  <r_i_glide_erotb>  (351) 
0.564952

>  <r_i_glide_esite>  (351) 
-0.191999

>  <r_i_glide_emodel>  (351) 
-25.0916

>  <r_i_glide_energy>  (351) 
-20.4579

>  <r_i_glide_einternal>  (351) 
0.918526

>  <r_i_glide_intrahb_reward>  (351) 
-0

>  <i_i_glide_confnum>  (351) 
4

>  <i_i_glide_posenum>  (351) 
6

>  <r_i_glide_eff_state_penalty>  (351) 
0

>  <ligand_id>  (351) 
95

>  <original_smiles>  (351) 
Cc1noc(-c2cncn2C)n1

>  <smiles>  (351) 
[H]c1nc([H])n(C([H])([H])[H])c1-c1nc(C([H])([H])[H])no1

$$$$
95:0:2
     RDKit          3D

 20 21  0  0  1  0  0  0  0  0999 V2000
   -3.1325    3.3702    8.3700 C   0  0  0  0  0  0  0  0  0  0  0  0
   -2.3587    2.4920    7.4490 C   0  0  0  0  0  0  0  0  0  0  0  0
   -1.7953    1.3593    7.8611 N   0  0  0  0  0  0  0  0  0  0  0  0
   -1.1903    0.8595    6.7006 O   0  0  0  0  0  0  0  0  0  0  0  0
   -1.4585    1.7589    5.7203 C   0  0  0  0  0  0  0  0  0  0  0  0
   -0.9195    1.4702    4.3976 C   0  0  0  0  0  0  0  0  0  0  0  0
   -0.1394    0.4113    3.9837 C   0  0  0  0  0  0  0  0  0  0  0  0
    0.1468    0.5395    2.6310 N   0  0  0  0  0  0  0  0  0  0  0  0
   -0.4620    1.6686    2.2860 C   0  0  0  0  0  0  0  0  0  0  0  0
   -1.1212    2.2783    3.2783 N   0  0  0  0  0  0  0  0  0  0  0  0
   -1.8683    3.5188    3.1731 C   0  0  0  0  0  0  0  0  0  0  0  0
   -2.2012    2.7887    6.1328 N   0  0  0  0  0  0  0  0  0  0  0  0
   -2.9792    3.0921    9.4109 H   0  0  0  0  0  0  0  0  0  0  0  0
   -4.1934    3.2868    8.1528 H   0  0  0  0  0  0  0  0  0  0  0  0
   -2.8227    4.4047    8.2301 H   0  0  0  0  0  0  0  0  0  0  0  0
    0.2407   -0.4271    4.5451 H   0  0  0  0  0  0  0  0  0  0  0  0
   -0.4261    2.0680    1.2856 H   0  0  0  0  0  0  0  0  0  0  0  0
   -1.8199    3.9047    2.1551 H   0  0  0  0  0  0  0  0  0  0  0  0
   -1.4425    4.2654    3.8439 H   0  0  0  0  0  0  0  0  0  0  0  0
   -2.9140    3.3482    3.4342 H   0  0  0  0  0  0  0  0  0  0  0  0
  1  2  1  0
  1 13  1  0
  1 14  1  0
  1 15  1  0
  2 12  1  0
  2  3  2  0
  3  4  1  0
  4  5  1  0
  5  6  1  0
  5 12  2  0
  6 10  1  0
  6  7  2  0
  7  8  1  0
  7 16  1  0
  8  9  2  0
  9 10  1  0
  9 17  1  0
 10 11  1  0
 11 18  1  0
 11 19  1  0
 11 20  1  0
M  END
>  <i_m_ct_stereo_status>  (352) 
1

>  <s_m_source_file>  (352) 
/var/tmp/pbs.5076255.sched01/tmp1cu33jom/138ve8n868x.sdf

>  <i_m_source_file_index>  (352) 
1

>  <i_lp_mmshare_version>  (352) 
48012

>  <i_f3d_flags>  (352) 
0

>  <s_epik_input>  (352) 
W0NIM11jMW5vYyhuMSktYzJbY0hdbltjSF1uMltDSDNd

>  <s_epik_cmdline>  (352) 
J2VwaWtfcHl0aG9uJywgJy1waHQnLCAnMi4wJywgJy1waCcsICc3LjAnLCAnLXRuJywgJzgnLCAnLW1hJywgJzIwMCcsICctaW1hZScsICc8aW5maWxlLm1hZT4nLCAnLW9tYWUnLCAnPG91dGZpbGUubWFlPic=

>  <r_lp_tautomer_probability>  (352) 
1

>  <r_epik_Ionization_Penalty>  (352) 
0.0543987

>  <r_epik_Ionization_Penalty_Charging>  (352) 
0.0543987

>  <r_epik_Ionization_Penalty_Neutral>  (352) 
8.6197e-13

>  <r_epik_State_Penalty>  (352) 
0.0467944

>  <r_epik_Charging_Adjusted_Penalty>  (352) 
0.101193

>  <i_epik_Tot_Q>  (352) 
0

>  <i_epik_Tot_abs_Q>  (352) 
0

>  <s_lp_Force_Field>  (352) 
OPLS3e

>  <r_lp_Energy>  (352) 
-2.92827

>  <b_lp_Chiralities_Consistent>  (352) 
1

>  <s_lp_Variant>  (352) 
95:0-1

>  <s_i_glide_gridfile>  (352) 
pfpi4k_grid

>  <i_i_glide_lignum>  (352) 
1

>  <i_i_glide_rotatable_bonds>  (352) 
1

>  <r_i_docking_score>  (352) 
-3.16483

>  <r_i_glide_ligand_efficiency>  (352) 
-0.263736

>  <r_i_glide_ligand_efficiency_sa>  (352) 
-0.603804

>  <r_i_glide_ligand_efficiency_ln>  (352) 
-0.908153

>  <r_i_glide_gscore>  (352) 
-3.16483

>  <r_i_glide_lipo>  (352) 
-0.0777072

>  <r_i_glide_hbond>  (352) 
0

>  <r_i_glide_metal>  (352) 
-0

>  <r_i_glide_rewards>  (352) 
-2.34131

>  <r_i_glide_evdw>  (352) 
-15.3927

>  <r_i_glide_ecoul>  (352) 
-1.96813

>  <r_i_glide_erotb>  (352) 
0.564952

>  <r_i_glide_esite>  (352) 
-0.245914

>  <r_i_glide_emodel>  (352) 
-22.2176

>  <r_i_glide_energy>  (352) 
-17.3608

>  <r_i_glide_einternal>  (352) 
0.000480044

>  <r_i_glide_intrahb_reward>  (352) 
-0

>  <i_i_glide_confnum>  (352) 
3

>  <i_i_glide_posenum>  (352) 
8

>  <r_i_glide_eff_state_penalty>  (352) 
0

>  <ligand_id>  (352) 
95

>  <original_smiles>  (352) 
Cc1noc(-c2cncn2C)n1

>  <smiles>  (352) 
[H]c1nc([H])n(C([H])([H])[H])c1-c1nc(C([H])([H])[H])no1

$$$$
95:1:0
     RDKit          3D

 21 22  0  0  1  0  0  0  0  0999 V2000
    3.7799   -5.6435    2.1247 C   0  0  0  0  0  0  0  0  0  0  0  0
    3.1695   -5.0384    0.9058 C   0  0  0  0  0  0  0  0  0  0  0  0
    1.9982   -5.4466    0.4228 N   0  0  0  0  0  0  0  0  0  0  0  0
    1.8173   -4.6371   -0.7121 O   0  0  0  0  0  0  0  0  0  0  0  0
    2.9265   -3.8552   -0.7866 C   0  0  0  0  0  0  0  0  0  0  0  0
    3.0310   -2.8750   -1.8658 C   0  0  0  0  0  0  0  0  0  0  0  0
    2.5586   -3.0449   -3.1421 C   0  0  0  0  0  0  0  0  0  0  0  0
    2.8777   -1.9036   -3.8255 N   0  0  0  0  0  0  0  0  0  0  0  0
    3.5115   -1.0452   -3.0185 C   0  0  0  0  0  0  0  0  0  0  0  0
    3.6139   -1.6363   -1.8201 N   0  0  0  0  0  0  0  0  0  0  0  0
    4.2494   -1.0070   -0.6672 C   0  0  0  0  0  0  0  0  0  0  0  0
    3.7708   -4.0255    0.2272 N   0  0  0  0  0  0  0  0  0  0  0  0
    3.2785   -6.5706    2.4004 H   0  0  0  0  0  0  0  0  0  0  0  0
    3.6895   -4.9530    2.9614 H   0  0  0  0  0  0  0  0  0  0  0  0
    4.8368   -5.8482    1.9408 H   0  0  0  0  0  0  0  0  0  0  0  0
    2.0459   -3.8608   -3.6144 H   0  0  0  0  0  0  0  0  0  0  0  0
    3.8553   -0.0579   -3.2784 H   0  0  0  0  0  0  0  0  0  0  0  0
    4.6144   -0.0116   -0.9190 H   0  0  0  0  0  0  0  0  0  0  0  0
    5.0842   -1.6275   -0.3440 H   0  0  0  0  0  0  0  0  0  0  0  0
    3.5214   -0.9425    0.1415 H   0  0  0  0  0  0  0  0  0  0  0  0
    2.6100   -1.7150   -4.7876 H   0  0  0  0  0  0  0  0  0  0  0  0
  1  2  1  0
  1 13  1  0
  1 14  1  0
  1 15  1  0
  2 12  1  0
  2  3  2  0
  3  4  1  0
  4  5  1  0
  5  6  1  0
  5 12  2  0
  6 10  1  0
  6  7  2  0
  7  8  1  0
  7 16  1  0
  8  9  2  0
  8 21  1  0
  9 10  1  0
  9 17  1  0
 10 11  1  0
 11 18  1  0
 11 19  1  0
 11 20  1  0
M  CHG  1   8   1
M  END
>  <i_m_ct_stereo_status>  (353) 
1

>  <s_m_source_file>  (353) 
/var/tmp/pbs.5076255.sched01/tmp1cu33jom/138ve8n868x.sdf

>  <i_m_source_file_index>  (353) 
2

>  <i_lp_mmshare_version>  (353) 
48012

>  <i_f3d_flags>  (353) 
0

>  <s_epik_input>  (353) 
W0NIM11jMW5vYyhuMSktYzJbY0hdbltjSF1uMltDSDNd

>  <s_epik_cmdline>  (353) 
J2VwaWtfcHl0aG9uJywgJy1waHQnLCAnMi4wJywgJy1waCcsICc3LjAnLCAnLXRuJywgJzgnLCAnLW1hJywgJzIwMCcsICctaW1hZScsICc8aW5maWxlLm1hZT4nLCAnLW9tYWUnLCAnPG91dGZpbGUubWFlPic=

>  <r_lp_tautomer_probability>  (353) 
1

>  <r_epik_Ionization_Penalty>  (353) 
1.44184

>  <r_epik_Ionization_Penalty_Charging>  (353) 
0

>  <r_epik_Ionization_Penalty_Neutral>  (353) 
1.44184

>  <r_epik_State_Penalty>  (353) 
1.52731

>  <r_epik_Charging_Adjusted_Penalty>  (353) 
1.52731

>  <i_epik_Tot_Q>  (353) 
1

>  <i_epik_Tot_abs_Q>  (353) 
1

>  <s_lp_Force_Field>  (353) 
OPLS3e

>  <r_lp_Energy>  (353) 
5.3882

>  <b_lp_Chiralities_Consistent>  (353) 
1

>  <s_lp_Variant>  (353) 
95:0-2

>  <s_i_glide_gridfile>  (353) 
pfpi4k_grid

>  <i_i_glide_lignum>  (353) 
2

>  <i_i_glide_rotatable_bonds>  (353) 
1

>  <r_i_docking_score>  (353) 
-3.97856

>  <r_i_glide_ligand_efficiency>  (353) 
-0.331547

>  <r_i_glide_ligand_efficiency_sa>  (353) 
-0.759052

>  <r_i_glide_ligand_efficiency_ln>  (353) 
-1.14165

>  <r_i_glide_gscore>  (353) 
-3.97856

>  <r_i_glide_lipo>  (353) 
-0.144033

>  <r_i_glide_hbond>  (353) 
0

>  <r_i_glide_metal>  (353) 
-0

>  <r_i_glide_rewards>  (353) 
-2.26473

>  <r_i_glide_evdw>  (353) 
-13.7426

>  <r_i_glide_ecoul>  (353) 
-8.03644

>  <r_i_glide_erotb>  (353) 
0.559371

>  <r_i_glide_esite>  (353) 
-0.236571

>  <r_i_glide_emodel>  (353) 
-30.4881

>  <r_i_glide_energy>  (353) 
-21.779

>  <r_i_glide_einternal>  (353) 
1.0564

>  <r_i_glide_intrahb_reward>  (353) 
-0

>  <i_i_glide_confnum>  (353) 
1

>  <i_i_glide_posenum>  (353) 
18

>  <r_i_glide_eff_state_penalty>  (353) 
0

>  <ligand_id>  (353) 
95

>  <original_smiles>  (353) 
Cc1noc(-c2cncn2C)n1

>  <smiles>  (353) 
[H]c1c(-c2nc(C([H])([H])[H])no2)n(C([H])([H])[H])c([H])[n+]1[H]

$$$$
95:1:1
     RDKit          3D

 21 22  0  0  1  0  0  0  0  0999 V2000
    3.4910   -6.6182    1.4961 C   0  0  0  0  0  0  0  0  0  0  0  0
    3.0693   -5.5090    0.5984 C   0  0  0  0  0  0  0  0  0  0  0  0
    1.8419   -5.4577    0.0915 N   0  0  0  0  0  0  0  0  0  0  0  0
    1.8820   -4.3183   -0.7203 O   0  0  0  0  0  0  0  0  0  0  0  0
    3.1355   -3.8104   -0.5921 C   0  0  0  0  0  0  0  0  0  0  0  0
    3.4598   -2.6229   -1.3667 C   0  0  0  0  0  0  0  0  0  0  0  0
    4.3432   -1.6535   -0.9575 C   0  0  0  0  0  0  0  0  0  0  0  0
    4.3476   -0.7074   -1.9535 N   0  0  0  0  0  0  0  0  0  0  0  0
    3.5043   -1.0574   -2.9346 C   0  0  0  0  0  0  0  0  0  0  0  0
    2.9593   -2.2322   -2.5808 N   0  0  0  0  0  0  0  0  0  0  0  0
    1.9783   -2.9377   -3.3965 C   0  0  0  0  0  0  0  0  0  0  0  0
    3.9072   -4.4921    0.2509 N   0  0  0  0  0  0  0  0  0  0  0  0
    2.7677   -7.4325    1.4904 H   0  0  0  0  0  0  0  0  0  0  0  0
    3.5704   -6.2551    2.5157 H   0  0  0  0  0  0  0  0  0  0  0  0
    4.4565   -7.0114    1.1808 H   0  0  0  0  0  0  0  0  0  0  0  0
    4.9318   -1.5699   -0.0553 H   0  0  0  0  0  0  0  0  0  0  0  0
    3.2896   -0.4920   -3.8240 H   0  0  0  0  0  0  0  0  0  0  0  0
    1.7805   -2.3843   -4.3131 H   0  0  0  0  0  0  0  0  0  0  0  0
    1.0537   -3.0481   -2.8301 H   0  0  0  0  0  0  0  0  0  0  0  0
    2.3675   -3.9270   -3.6280 H   0  0  0  0  0  0  0  0  0  0  0  0
    4.8583    0.1705   -1.9207 H   0  0  0  0  0  0  0  0  0  0  0  0
  1  2  1  0
  1 13  1  0
  1 14  1  0
  1 15  1  0
  2 12  1  0
  2  3  2  0
  3  4  1  0
  4  5  1  0
  5  6  1  0
  5 12  2  0
  6 10  1  0
  6  7  2  0
  7  8  1  0
  7 16  1  0
  8  9  2  0
  8 21  1  0
  9 10  1  0
  9 17  1  0
 10 11  1  0
 11 18  1  0
 11 19  1  0
 11 20  1  0
M  CHG  1   8   1
M  END
>  <i_m_ct_stereo_status>  (354) 
1

>  <s_m_source_file>  (354) 
/var/tmp/pbs.5076255.sched01/tmp1cu33jom/138ve8n868x.sdf

>  <i_m_source_file_index>  (354) 
2

>  <i_lp_mmshare_version>  (354) 
48012

>  <i_f3d_flags>  (354) 
0

>  <s_epik_input>  (354) 
W0NIM11jMW5vYyhuMSktYzJbY0hdbltjSF1uMltDSDNd

>  <s_epik_cmdline>  (354) 
J2VwaWtfcHl0aG9uJywgJy1waHQnLCAnMi4wJywgJy1waCcsICc3LjAnLCAnLXRuJywgJzgnLCAnLW1hJywgJzIwMCcsICctaW1hZScsICc8aW5maWxlLm1hZT4nLCAnLW9tYWUnLCAnPG91dGZpbGUubWFlPic=

>  <r_lp_tautomer_probability>  (354) 
1

>  <r_epik_Ionization_Penalty>  (354) 
1.44184

>  <r_epik_Ionization_Penalty_Charging>  (354) 
0

>  <r_epik_Ionization_Penalty_Neutral>  (354) 
1.44184

>  <r_epik_State_Penalty>  (354) 
1.52731

>  <r_epik_Charging_Adjusted_Penalty>  (354) 
1.52731

>  <i_epik_Tot_Q>  (354) 
1

>  <i_epik_Tot_abs_Q>  (354) 
1

>  <s_lp_Force_Field>  (354) 
OPLS3e

>  <r_lp_Energy>  (354) 
5.3882

>  <b_lp_Chiralities_Consistent>  (354) 
1

>  <s_lp_Variant>  (354) 
95:0-2

>  <s_i_glide_gridfile>  (354) 
pfpi4k_grid

>  <i_i_glide_lignum>  (354) 
2

>  <i_i_glide_rotatable_bonds>  (354) 
1

>  <r_i_docking_score>  (354) 
-3.96054

>  <r_i_glide_ligand_efficiency>  (354) 
-0.330045

>  <r_i_glide_ligand_efficiency_sa>  (354) 
-0.755614

>  <r_i_glide_ligand_efficiency_ln>  (354) 
-1.13648

>  <r_i_glide_gscore>  (354) 
-3.96054

>  <r_i_glide_lipo>  (354) 
-0.247592

>  <r_i_glide_hbond>  (354) 
0

>  <r_i_glide_metal>  (354) 
-0

>  <r_i_glide_rewards>  (354) 
-2.25

>  <r_i_glide_evdw>  (354) 
-16.0915

>  <r_i_glide_ecoul>  (354) 
-6.3222

>  <r_i_glide_erotb>  (354) 
0.559371

>  <r_i_glide_esite>  (354) 
-0.269409

>  <r_i_glide_emodel>  (354) 
-31.0161

>  <r_i_glide_energy>  (354) 
-22.4137

>  <r_i_glide_einternal>  (354) 
1.33556

>  <r_i_glide_intrahb_reward>  (354) 
-0

>  <i_i_glide_confnum>  (354) 
4

>  <i_i_glide_posenum>  (354) 
24

>  <r_i_glide_eff_state_penalty>  (354) 
0

>  <ligand_id>  (354) 
95

>  <original_smiles>  (354) 
Cc1noc(-c2cncn2C)n1

>  <smiles>  (354) 
[H]c1c(-c2nc(C([H])([H])[H])no2)n(C([H])([H])[H])c([H])[n+]1[H]

$$$$
95:1:2
     RDKit          3D

 21 22  0  0  1  0  0  0  0  0999 V2000
    3.0822   -5.3761    0.6115 C   0  0  0  0  0  0  0  0  0  0  0  0
    2.1799   -6.3804    1.2370 C   0  0  0  0  0  0  0  0  0  0  0  0
    0.8564   -6.2624    1.2202 N   0  0  0  0  0  0  0  0  0  0  0  0
    0.4187   -7.3924    1.9306 O   0  0  0  0  0  0  0  0  0  0  0  0
    1.5454   -8.0646    2.2799 C   0  0  0  0  0  0  0  0  0  0  0  0
    1.4282   -9.3242    3.0095 C   0  0  0  0  0  0  0  0  0  0  0  0
    0.3172   -9.7248    3.7108 C   0  0  0  0  0  0  0  0  0  0  0  0
    0.6436  -10.9374    4.2581 N   0  0  0  0  0  0  0  0  0  0  0  0
    1.8850  -11.2958    3.9093 C   0  0  0  0  0  0  0  0  0  0  0  0
    2.3708  -10.3105    3.1443 N   0  0  0  0  0  0  0  0  0  0  0  0
    3.7171  -10.3359    2.5692 C   0  0  0  0  0  0  0  0  0  0  0  0
    2.6658   -7.4878    1.8509 N   0  0  0  0  0  0  0  0  0  0  0  0
    2.5476   -4.4585    0.3692 H   0  0  0  0  0  0  0  0  0  0  0  0
    3.4926   -5.7743   -0.3129 H   0  0  0  0  0  0  0  0  0  0  0  0
    3.9066   -5.1415    1.2866 H   0  0  0  0  0  0  0  0  0  0  0  0
   -0.6381   -9.2545    3.8769 H   0  0  0  0  0  0  0  0  0  0  0  0
    2.3989  -12.1963    4.1986 H   0  0  0  0  0  0  0  0  0  0  0  0
    4.2344  -11.2639    2.8221 H   0  0  0  0  0  0  0  0  0  0  0  0
    4.2767   -9.4796    2.9499 H   0  0  0  0  0  0  0  0  0  0  0  0
    3.6259  -10.2473    1.4860 H   0  0  0  0  0  0  0  0  0  0  0  0
    0.0318  -11.4684    4.8635 H   0  0  0  0  0  0  0  0  0  0  0  0
  1  2  1  0
  1 13  1  0
  1 14  1  0
  1 15  1  0
  2 12  1  0
  2  3  2  0
  3  4  1  0
  4  5  1  0
  5  6  1  0
  5 12  2  0
  6 10  1  0
  6  7  2  0
  7  8  1  0
  7 16  1  0
  8  9  2  0
  8 21  1  0
  9 10  1  0
  9 17  1  0
 10 11  1  0
 11 18  1  0
 11 19  1  0
 11 20  1  0
M  CHG  1   8   1
M  END
>  <i_m_ct_stereo_status>  (355) 
1

>  <s_m_source_file>  (355) 
/var/tmp/pbs.5076255.sched01/tmp1cu33jom/138ve8n868x.sdf

>  <i_m_source_file_index>  (355) 
2

>  <i_lp_mmshare_version>  (355) 
48012

>  <i_f3d_flags>  (355) 
0

>  <s_epik_input>  (355) 
W0NIM11jMW5vYyhuMSktYzJbY0hdbltjSF1uMltDSDNd

>  <s_epik_cmdline>  (355) 
J2VwaWtfcHl0aG9uJywgJy1waHQnLCAnMi4wJywgJy1waCcsICc3LjAnLCAnLXRuJywgJzgnLCAnLW1hJywgJzIwMCcsICctaW1hZScsICc8aW5maWxlLm1hZT4nLCAnLW9tYWUnLCAnPG91dGZpbGUubWFlPic=

>  <r_lp_tautomer_probability>  (355) 
1

>  <r_epik_Ionization_Penalty>  (355) 
1.44184

>  <r_epik_Ionization_Penalty_Charging>  (355) 
0

>  <r_epik_Ionization_Penalty_Neutral>  (355) 
1.44184

>  <r_epik_State_Penalty>  (355) 
1.52731

>  <r_epik_Charging_Adjusted_Penalty>  (355) 
1.52731

>  <i_epik_Tot_Q>  (355) 
1

>  <i_epik_Tot_abs_Q>  (355) 
1

>  <s_lp_Force_Field>  (355) 
OPLS3e

>  <r_lp_Energy>  (355) 
5.3882

>  <b_lp_Chiralities_Consistent>  (355) 
1

>  <s_lp_Variant>  (355) 
95:0-2

>  <s_i_glide_gridfile>  (355) 
pfpi4k_grid

>  <i_i_glide_lignum>  (355) 
2

>  <i_i_glide_rotatable_bonds>  (355) 
1

>  <r_i_docking_score>  (355) 
-3.93718

>  <r_i_glide_ligand_efficiency>  (355) 
-0.328098

>  <r_i_glide_ligand_efficiency_sa>  (355) 
-0.751157

>  <r_i_glide_ligand_efficiency_ln>  (355) 
-1.12978

>  <r_i_glide_gscore>  (355) 
-3.93718

>  <r_i_glide_lipo>  (355) 
-0.00334554

>  <r_i_glide_hbond>  (355) 
-0.0466058

>  <r_i_glide_metal>  (355) 
-0

>  <r_i_glide_rewards>  (355) 
-2.33458

>  <r_i_glide_evdw>  (355) 
-14.6552

>  <r_i_glide_ecoul>  (355) 
-7.7604

>  <r_i_glide_erotb>  (355) 
0.559371

>  <r_i_glide_esite>  (355) 
-0.21519

>  <r_i_glide_emodel>  (355) 
-31.4306

>  <r_i_glide_energy>  (355) 
-22.4156

>  <r_i_glide_einternal>  (355) 
0.343706

>  <r_i_glide_intrahb_reward>  (355) 
-0

>  <i_i_glide_confnum>  (355) 
3

>  <i_i_glide_posenum>  (355) 
10

>  <r_i_glide_eff_state_penalty>  (355) 
0

>  <ligand_id>  (355) 
95

>  <original_smiles>  (355) 
Cc1noc(-c2cncn2C)n1

>  <smiles>  (355) 
[H]c1c(-c2nc(C([H])([H])[H])no2)n(C([H])([H])[H])c([H])[n+]1[H]

$$$$
96:0:0
     RDKit          3D

 27 29  0  0  1  0  0  0  0  0999 V2000
    5.1084   -0.9967    1.3006 C   0  0  0  0  0  0  0  0  0  0  0  0
    3.9051   -0.6579    0.6473 C   0  0  0  0  0  0  0  0  0  0  0  0
    2.8858   -0.0703    1.3046 N   0  0  0  0  0  0  0  0  0  0  0  0
    3.0495    0.1466    2.6306 C   0  0  0  0  0  0  0  0  0  0  0  0
    1.8829    0.7984    3.3695 C   0  0  2  0  0  0  0  0  0  0  0  0
    0.5629    0.0013    3.2124 C   0  0  0  0  0  0  0  0  0  0  0  0
   -0.3435    1.0131    2.4781 C   0  0  1  0  0  0  0  0  0  0  0  0
   -0.8135    2.0968    3.4575 C   0  0  0  0  0  0  0  0  0  0  0  0
    0.4894    2.9014    3.6850 C   0  0  0  0  0  0  0  0  0  0  0  0
    1.4898    2.1611    2.7756 C   0  0  2  0  0  0  0  0  0  0  0  0
    0.6187    1.7562    1.6743 N   0  0  0  0  0  0  0  0  0  0  0  0
    4.2526   -0.1923    3.2859 C   0  0  0  0  0  0  0  0  0  0  0  0
    5.2839   -0.7637    2.6236 N   0  0  0  0  0  0  0  0  0  0  0  0
    5.9255   -1.4606    0.7577 H   0  0  0  0  0  0  0  0  0  0  0  0
    3.7555   -0.8458   -0.4057 H   0  0  0  0  0  0  0  0  0  0  0  0
    2.1413    0.9098    4.4205 H   0  0  0  0  0  0  0  0  0  0  0  0
    0.6967   -0.9069    2.6174 H   0  0  0  0  0  0  0  0  0  0  0  0
    0.1440   -0.3045    4.1692 H   0  0  0  0  0  0  0  0  0  0  0  0
   -1.1418    0.5606    1.8904 H   0  0  0  0  0  0  0  0  0  0  0  0
   -1.5693    2.7232    2.9809 H   0  0  0  0  0  0  0  0  0  0  0  0
   -1.2333    1.6827    4.3763 H   0  0  0  0  0  0  0  0  0  0  0  0
    0.3577    3.9269    3.3302 H   0  0  0  0  0  0  0  0  0  0  0  0
    0.8022    2.9392    4.7286 H   0  0  0  0  0  0  0  0  0  0  0  0
    2.3387    2.7789    2.4809 H   0  0  0  0  0  0  0  0  0  0  0  0
    1.0970    1.1633    1.0163 H   0  0  0  0  0  0  0  0  0  0  0  0
    4.3973   -0.0127    4.3419 H   0  0  0  0  0  0  0  0  0  0  0  0
    0.2333    2.6003    1.2501 H   0  0  0  0  0  0  0  0  0  0  0  0
  1 13  2  0
  1  2  1  0
  1 14  1  0
  2  3  2  0
  2 15  1  0
  3  4  1  0
  4  5  1  0
  4 12  2  0
  5 10  1  0
  5  6  1  0
  5 16  1  1
  6  7  1  0
  6 17  1  0
  6 18  1  0
  7 11  1  0
  7  8  1  0
  7 19  1  6
  8  9  1  0
  8 20  1  0
  8 21  1  0
  9 10  1  0
  9 22  1  0
  9 23  1  0
 10 11  1  0
 10 24  1  6
 11 25  1  0
 11 27  1  0
 12 13  1  0
 12 26  1  0
M  CHG  1  11   1
M  END
>  <i_m_ct_stereo_status>  (356) 
1

>  <s_m_source_file>  (356) 
/var/tmp/pbs.5076255.sched01/tmp1cu33jom/138ve8n868x.sdf

>  <i_m_source_file_index>  (356) 
3

>  <i_lp_mmshare_version>  (356) 
48012

>  <i_f3d_flags>  (356) 
0

>  <s_epik_input>  (356) 
W2NIXTFuW2NIXVtjSF1uYzFbQ0BIXShbQ0gyXVtDQEBIXTIzKVtDQEBIXShbTkhdMylbQ0gyXVtDSDJdMg==

>  <s_epik_cmdline>  (356) 
J2VwaWtfcHl0aG9uJywgJy1waHQnLCAnMi4wJywgJy1waCcsICc3LjAnLCAnLXRuJywgJzgnLCAnLW1hJywgJzIwMCcsICctaW1hZScsICc8aW5maWxlLm1hZT4nLCAnLW9tYWUnLCAnPG91dGZpbGUubWFlPic=

>  <r_lp_tautomer_probability>  (356) 
1

>  <r_epik_Ionization_Penalty>  (356) 
8.69654e-05

>  <r_epik_Ionization_Penalty_Charging>  (356) 
8.68913e-05

>  <r_epik_Ionization_Penalty_Neutral>  (356) 
7.41667e-08

>  <r_epik_State_Penalty>  (356) 
-0

>  <r_epik_Charging_Adjusted_Penalty>  (356) 
8.68913e-05

>  <i_epik_Tot_Q>  (356) 
1

>  <i_epik_Tot_abs_Q>  (356) 
1

>  <s_lp_Force_Field>  (356) 
OPLS3e

>  <r_lp_Energy>  (356) 
37.7376

>  <b_lp_Chiralities_Consistent>  (356) 
1

>  <s_lp_Variant>  (356) 
96:0-1

>  <s_i_glide_gridfile>  (356) 
pfpi4k_grid

>  <i_i_glide_lignum>  (356) 
3

>  <i_i_glide_rotatable_bonds>  (356) 
1

>  <r_i_docking_score>  (356) 
-4.19105

>  <r_i_glide_ligand_efficiency>  (356) 
-0.322388

>  <r_i_glide_ligand_efficiency_sa>  (356) 
-0.758043

>  <r_i_glide_ligand_efficiency_ln>  (356) 
-1.17563

>  <r_i_glide_gscore>  (356) 
-4.19105

>  <r_i_glide_lipo>  (356) 
-0.18418

>  <r_i_glide_hbond>  (356) 
-0.2

>  <r_i_glide_metal>  (356) 
-0

>  <r_i_glide_rewards>  (356) 
-2.70747

>  <r_i_glide_evdw>  (356) 
-16.0767

>  <r_i_glide_ecoul>  (356) 
-4.83252

>  <r_i_glide_erotb>  (356) 
0.503248

>  <r_i_glide_esite>  (356) 
-0.0739356

>  <r_i_glide_emodel>  (356) 
-34.2727

>  <r_i_glide_energy>  (356) 
-20.9092

>  <r_i_glide_einternal>  (356) 
0.0092535

>  <r_i_glide_intrahb_reward>  (356) 
-0.5

>  <i_i_glide_confnum>  (356) 
5

>  <i_i_glide_posenum>  (356) 
1

>  <r_i_glide_eff_state_penalty>  (356) 
0

>  <ligand_id>  (356) 
96

>  <original_smiles>  (356) 
c1cnc(C2CC3CCC2N3)cn1

>  <smiles>  (356) 
[H]c1nc([H])c(C2([H])C([H])([H])C3([H])C([H])([H])C([H])([H])C2([H])[N+]3([H])[H])nc1[H]

$$$$
96:0:1
     RDKit          3D

 27 29  0  0  1  0  0  0  0  0999 V2000
    3.9048   -2.5336    3.1716 C   0  0  0  0  0  0  0  0  0  0  0  0
    2.9811   -2.9410    2.1828 C   0  0  0  0  0  0  0  0  0  0  0  0
    3.2586   -2.8372    0.8688 N   0  0  0  0  0  0  0  0  0  0  0  0
    4.4681   -2.3240    0.5307 C   0  0  0  0  0  0  0  0  0  0  0  0
    4.7744   -2.2033   -0.9602 C   0  0  2  0  0  0  0  0  0  0  0  0
    3.8066   -1.2435   -1.6841 C   0  0  0  0  0  0  0  0  0  0  0  0
    3.1048   -2.1824   -2.6872 C   0  0  1  0  0  0  0  0  0  0  0  0
    4.0590   -2.4992   -3.8427 C   0  0  0  0  0  0  0  0  0  0  0  0
    5.0760   -3.4372   -3.1605 C   0  0  0  0  0  0  0  0  0  0  0  0
    4.5341   -3.5171   -1.7265 C   0  0  2  0  0  0  0  0  0  0  0  0
    3.0962   -3.4559   -1.9729 N   0  0  0  0  0  0  0  0  0  0  0  0
    5.3900   -1.9092    1.5225 C   0  0  0  0  0  0  0  0  0  0  0  0
    5.1096   -2.0152    2.8421 N   0  0  0  0  0  0  0  0  0  0  0  0
    3.6708   -2.6304    4.2213 H   0  0  0  0  0  0  0  0  0  0  0  0
    2.0195   -3.3554    2.4417 H   0  0  0  0  0  0  0  0  0  0  0  0
    5.8037   -1.8809   -1.0867 H   0  0  0  0  0  0  0  0  0  0  0  0
    3.0869   -0.8060   -0.9906 H   0  0  0  0  0  0  0  0  0  0  0  0
    4.3222   -0.4114   -2.1716 H   0  0  0  0  0  0  0  0  0  0  0  0
    2.1170   -1.8471   -2.9955 H   0  0  0  0  0  0  0  0  0  0  0  0
    3.5159   -3.0312   -4.6226 H   0  0  0  0  0  0  0  0  0  0  0  0
    4.5152   -1.6049   -4.2777 H   0  0  0  0  0  0  0  0  0  0  0  0
    5.0352   -4.4257   -3.6176 H   0  0  0  0  0  0  0  0  0  0  0  0
    6.1070   -3.0788   -3.2049 H   0  0  0  0  0  0  0  0  0  0  0  0
    4.8612   -4.4096   -1.1887 H   0  0  0  0  0  0  0  0  0  0  0  0
    2.6001   -3.3746   -1.1016 H   0  0  0  0  0  0  0  0  0  0  0  0
    6.3528   -1.4917    1.2646 H   0  0  0  0  0  0  0  0  0  0  0  0
    2.7829   -4.2371   -2.5442 H   0  0  0  0  0  0  0  0  0  0  0  0
  1 13  2  0
  1  2  1  0
  1 14  1  0
  2  3  2  0
  2 15  1  0
  3  4  1  0
  4  5  1  0
  4 12  2  0
  5 10  1  0
  5  6  1  0
  5 16  1  1
  6  7  1  0
  6 17  1  0
  6 18  1  0
  7 11  1  0
  7  8  1  0
  7 19  1  6
  8  9  1  0
  8 20  1  0
  8 21  1  0
  9 10  1  0
  9 22  1  0
  9 23  1  0
 10 11  1  0
 10 24  1  1
 11 25  1  0
 11 27  1  0
 12 13  1  0
 12 26  1  0
M  CHG  1  11   1
M  END
>  <i_m_ct_stereo_status>  (357) 
1

>  <s_m_source_file>  (357) 
/var/tmp/pbs.5076255.sched01/tmp1cu33jom/138ve8n868x.sdf

>  <i_m_source_file_index>  (357) 
3

>  <i_lp_mmshare_version>  (357) 
48012

>  <i_f3d_flags>  (357) 
0

>  <s_epik_input>  (357) 
W2NIXTFuW2NIXVtjSF1uYzFbQ0BIXShbQ0gyXVtDQEBIXTIzKVtDQEBIXShbTkhdMylbQ0gyXVtDSDJdMg==

>  <s_epik_cmdline>  (357) 
J2VwaWtfcHl0aG9uJywgJy1waHQnLCAnMi4wJywgJy1waCcsICc3LjAnLCAnLXRuJywgJzgnLCAnLW1hJywgJzIwMCcsICctaW1hZScsICc8aW5maWxlLm1hZT4nLCAnLW9tYWUnLCAnPG91dGZpbGUubWFlPic=

>  <r_lp_tautomer_probability>  (357) 
1

>  <r_epik_Ionization_Penalty>  (357) 
8.69654e-05

>  <r_epik_Ionization_Penalty_Charging>  (357) 
8.68913e-05

>  <r_epik_Ionization_Penalty_Neutral>  (357) 
7.41667e-08

>  <r_epik_State_Penalty>  (357) 
-0

>  <r_epik_Charging_Adjusted_Penalty>  (357) 
8.68913e-05

>  <i_epik_Tot_Q>  (357) 
1

>  <i_epik_Tot_abs_Q>  (357) 
1

>  <s_lp_Force_Field>  (357) 
OPLS3e

>  <r_lp_Energy>  (357) 
37.7376

>  <b_lp_Chiralities_Consistent>  (357) 
1

>  <s_lp_Variant>  (357) 
96:0-1

>  <s_i_glide_gridfile>  (357) 
pfpi4k_grid

>  <i_i_glide_lignum>  (357) 
3

>  <i_i_glide_rotatable_bonds>  (357) 
1

>  <r_i_docking_score>  (357) 
-4.18116

>  <r_i_glide_ligand_efficiency>  (357) 
-0.321627

>  <r_i_glide_ligand_efficiency_sa>  (357) 
-0.756253

>  <r_i_glide_ligand_efficiency_ln>  (357) 
-1.17285

>  <r_i_glide_gscore>  (357) 
-4.18116

>  <r_i_glide_lipo>  (357) 
-0.395418

>  <r_i_glide_hbond>  (357) 
0

>  <r_i_glide_metal>  (357) 
-0

>  <r_i_glide_rewards>  (357) 
-2.70747

>  <r_i_glide_evdw>  (357) 
-17.766

>  <r_i_glide_ecoul>  (357) 
-4.62146

>  <r_i_glide_erotb>  (357) 
0.503248

>  <r_i_glide_esite>  (357) 
0

>  <r_i_glide_emodel>  (357) 
-35.672

>  <r_i_glide_energy>  (357) 
-22.3875

>  <r_i_glide_einternal>  (357) 
0.128534

>  <r_i_glide_intrahb_reward>  (357) 
-0.5

>  <i_i_glide_confnum>  (357) 
2

>  <i_i_glide_posenum>  (357) 
26

>  <r_i_glide_eff_state_penalty>  (357) 
0

>  <ligand_id>  (357) 
96

>  <original_smiles>  (357) 
c1cnc(C2CC3CCC2N3)cn1

>  <smiles>  (357) 
[H]c1nc([H])c(C2([H])C([H])([H])C3([H])C([H])([H])C([H])([H])C2([H])[N+]3([H])[H])nc1[H]

$$$$
96:0:2
     RDKit          3D

 27 29  0  0  1  0  0  0  0  0999 V2000
    3.4143   -1.1361   -4.3251 C   0  0  0  0  0  0  0  0  0  0  0  0
    3.8209   -0.2432   -3.3192 C   0  0  0  0  0  0  0  0  0  0  0  0
    4.3068   -0.6770   -2.1287 N   0  0  0  0  0  0  0  0  0  0  0  0
    4.3500   -2.0123   -1.9499 C   0  0  0  0  0  0  0  0  0  0  0  0
    4.8253   -2.5110   -0.5815 C   0  0  2  0  0  0  0  0  0  0  0  0
    5.8460   -3.6625   -0.6983 C   0  0  0  0  0  0  0  0  0  0  0  0
    5.0996   -4.8242   -0.0057 C   0  0  1  0  0  0  0  0  0  0  0  0
    5.1564   -4.6085    1.5120 C   0  0  0  0  0  0  0  0  0  0  0  0
    4.1739   -3.4269    1.6922 C   0  0  0  0  0  0  0  0  0  0  0  0
    3.7008   -3.1730    0.2430 C   0  0  2  0  0  0  0  0  0  0  0  0
    3.6928   -4.5363   -0.2838 N   0  0  0  0  0  0  0  0  0  0  0  0
    3.9482   -2.9085   -2.9719 C   0  0  0  0  0  0  0  0  0  0  0  0
    3.4865   -2.4739   -4.1590 N   0  0  0  0  0  0  0  0  0  0  0  0
    3.0469   -0.7834   -5.2838 H   0  0  0  0  0  0  0  0  0  0  0  0
    3.7866    0.8227   -3.4904 H   0  0  0  0  0  0  0  0  0  0  0  0
    5.2542   -1.6819   -0.0185 H   0  0  0  0  0  0  0  0  0  0  0  0
    6.1007   -3.8965   -1.7334 H   0  0  0  0  0  0  0  0  0  0  0  0
    6.7920   -3.4286   -0.2043 H   0  0  0  0  0  0  0  0  0  0  0  0
    5.4248   -5.8121   -0.3324 H   0  0  0  0  0  0  0  0  0  0  0  0
    4.7879   -5.4962    2.0257 H   0  0  0  0  0  0  0  0  0  0  0  0
    6.1657   -4.3960    1.8751 H   0  0  0  0  0  0  0  0  0  0  0  0
    3.3297   -3.7388    2.3126 H   0  0  0  0  0  0  0  0  0  0  0  0
    4.6313   -2.5485    2.1610 H   0  0  0  0  0  0  0  0  0  0  0  0
    2.7469   -2.6430    0.1937 H   0  0  0  0  0  0  0  0  0  0  0  0
    3.4879   -4.5749   -1.2692 H   0  0  0  0  0  0  0  0  0  0  0  0
    3.9877   -3.9767   -2.8500 H   0  0  0  0  0  0  0  0  0  0  0  0
    3.0769   -5.1462    0.2342 H   0  0  0  0  0  0  0  0  0  0  0  0
  1 13  2  0
  1  2  1  0
  1 14  1  0
  2  3  2  0
  2 15  1  0
  3  4  1  0
  4  5  1  0
  4 12  2  0
  5 10  1  0
  5  6  1  0
  5 16  1  1
  6  7  1  0
  6 17  1  0
  6 18  1  0
  7 11  1  0
  7  8  1  0
  7 19  1  1
  8  9  1  0
  8 20  1  0
  8 21  1  0
  9 10  1  0
  9 22  1  0
  9 23  1  0
 10 11  1  0
 10 24  1  1
 11 25  1  0
 11 27  1  0
 12 13  1  0
 12 26  1  0
M  CHG  1  11   1
M  END
>  <i_m_ct_stereo_status>  (358) 
1

>  <s_m_source_file>  (358) 
/var/tmp/pbs.5076255.sched01/tmp1cu33jom/138ve8n868x.sdf

>  <i_m_source_file_index>  (358) 
3

>  <i_lp_mmshare_version>  (358) 
48012

>  <i_f3d_flags>  (358) 
0

>  <s_epik_input>  (358) 
W2NIXTFuW2NIXVtjSF1uYzFbQ0BIXShbQ0gyXVtDQEBIXTIzKVtDQEBIXShbTkhdMylbQ0gyXVtDSDJdMg==

>  <s_epik_cmdline>  (358) 
J2VwaWtfcHl0aG9uJywgJy1waHQnLCAnMi4wJywgJy1waCcsICc3LjAnLCAnLXRuJywgJzgnLCAnLW1hJywgJzIwMCcsICctaW1hZScsICc8aW5maWxlLm1hZT4nLCAnLW9tYWUnLCAnPG91dGZpbGUubWFlPic=

>  <r_lp_tautomer_probability>  (358) 
1

>  <r_epik_Ionization_Penalty>  (358) 
8.69654e-05

>  <r_epik_Ionization_Penalty_Charging>  (358) 
8.68913e-05

>  <r_epik_Ionization_Penalty_Neutral>  (358) 
7.41667e-08

>  <r_epik_State_Penalty>  (358) 
-0

>  <r_epik_Charging_Adjusted_Penalty>  (358) 
8.68913e-05

>  <i_epik_Tot_Q>  (358) 
1

>  <i_epik_Tot_abs_Q>  (358) 
1

>  <s_lp_Force_Field>  (358) 
OPLS3e

>  <r_lp_Energy>  (358) 
37.7376

>  <b_lp_Chiralities_Consistent>  (358) 
1

>  <s_lp_Variant>  (358) 
96:0-1

>  <s_i_glide_gridfile>  (358) 
pfpi4k_grid

>  <i_i_glide_lignum>  (358) 
3

>  <i_i_glide_rotatable_bonds>  (358) 
1

>  <r_i_docking_score>  (358) 
-4.12388

>  <r_i_glide_ligand_efficiency>  (358) 
-0.317222

>  <r_i_glide_ligand_efficiency_sa>  (358) 
-0.745894

>  <r_i_glide_ligand_efficiency_ln>  (358) 
-1.15679

>  <r_i_glide_gscore>  (358) 
-4.12388

>  <r_i_glide_lipo>  (358) 
-0.382103

>  <r_i_glide_hbond>  (358) 
-0.264859

>  <r_i_glide_metal>  (358) 
-0

>  <r_i_glide_rewards>  (358) 
-2.20747

>  <r_i_glide_evdw>  (358) 
-18.8432

>  <r_i_glide_ecoul>  (358) 
-5.33688

>  <r_i_glide_erotb>  (358) 
0.503248

>  <r_i_glide_esite>  (358) 
-0.0300059

>  <r_i_glide_emodel>  (358) 
-31.5937

>  <r_i_glide_energy>  (358) 
-24.1801

>  <r_i_glide_einternal>  (358) 
1.80691

>  <r_i_glide_intrahb_reward>  (358) 
-0

>  <i_i_glide_confnum>  (358) 
3

>  <i_i_glide_posenum>  (358) 
36

>  <r_i_glide_eff_state_penalty>  (358) 
0

>  <ligand_id>  (358) 
96

>  <original_smiles>  (358) 
c1cnc(C2CC3CCC2N3)cn1

>  <smiles>  (358) 
[H]c1nc([H])c(C2([H])C([H])([H])C3([H])C([H])([H])C([H])([H])C2([H])[N+]3([H])[H])nc1[H]

$$$$
97:0:0
     RDKit          3D

 59 60  0  0  1  0  0  0  0  0999 V2000
    0.0333    5.8293    3.7069 C   0  0  0  0  0  0  0  0  0  0  0  0
   -0.5027    4.4533    4.1121 C   0  0  0  0  0  0  0  0  0  0  0  0
   -0.4363    4.2420    5.6433 C   0  0  0  0  0  0  0  0  0  0  0  0
    0.1955    3.3801    3.3480 N   0  0  2  0  0  0  0  0  0  0  0  0
   -0.5350    2.0719    3.3632 C   0  0  0  0  0  0  0  0  0  0  0  0
    0.1584    1.0265    2.4740 C   0  0  0  0  0  0  0  0  0  0  0  0
    1.6351    0.8431    2.8420 C   0  0  1  0  0  0  0  0  0  0  0  0
    2.2793   -0.1187    1.9065 N   0  0  2  0  0  0  0  0  0  0  0  0
    2.1250   -1.5306    2.3338 C   0  0  0  0  0  0  0  0  0  0  0  0
    2.5561   -2.4829    1.2217 C   0  0  0  0  0  0  0  0  0  0  0  0
    3.9879   -2.1716    0.7113 C   0  0  1  0  0  0  0  0  0  0  0  0
    4.3391   -2.9561   -0.5522 C   0  0  0  0  0  0  0  0  0  0  0  0
    5.3464   -3.6815   -0.5611 O   0  0  0  0  0  0  0  0  0  0  0  0
    3.5585   -2.7193   -1.6402 N   0  0  0  0  0  0  0  0  0  0  0  0
    3.8791   -2.8092   -3.0639 C   0  0  0  0  0  0  0  0  0  0  0  0
    4.2378   -1.4034   -3.5456 C   0  0  0  0  0  0  0  0  0  0  0  0
    2.6135   -3.2608   -3.8101 C   0  0  0  0  0  0  0  0  0  0  0  0
    5.0245   -3.7902   -3.3737 C   0  0  0  0  0  0  0  0  0  0  0  0
    4.1738   -0.6695    0.4264 C   0  0  0  0  0  0  0  0  0  0  0  0
    3.6843    0.1676    1.5898 C   0  0  0  0  0  0  0  0  0  0  0  0
    2.3116    2.2245    2.8495 C   0  0  0  0  0  0  0  0  0  0  0  0
    1.6119    3.2047    3.7548 C   0  0  0  0  0  0  0  0  0  0  0  0
   -0.5541    6.6280    4.1586 H   0  0  0  0  0  0  0  0  0  0  0  0
   -0.0101    5.9817    2.6253 H   0  0  0  0  0  0  0  0  0  0  0  0
    1.0669    5.9945    4.0190 H   0  0  0  0  0  0  0  0  0  0  0  0
   -1.5458    4.4329    3.8222 H   0  0  0  0  0  0  0  0  0  0  0  0
   -1.0290    4.9828    6.1740 H   0  0  0  0  0  0  0  0  0  0  0  0
    0.5881    4.3337    6.0192 H   0  0  0  0  0  0  0  0  0  0  0  0
   -0.8089    3.2557    5.9367 H   0  0  0  0  0  0  0  0  0  0  0  0
   -0.5647    1.6724    4.3845 H   0  0  0  0  0  0  0  0  0  0  0  0
   -1.5666    2.1983    3.0366 H   0  0  0  0  0  0  0  0  0  0  0  0
   -0.3896    0.0855    2.5819 H   0  0  0  0  0  0  0  0  0  0  0  0
    0.0488    1.3014    1.4190 H   0  0  0  0  0  0  0  0  0  0  0  0
    1.7047    0.4518    3.8477 H   0  0  0  0  0  0  0  0  0  0  0  0
    2.7135   -1.7116    3.2444 H   0  0  0  0  0  0  0  0  0  0  0  0
    1.0639   -1.7172    2.5489 H   0  0  0  0  0  0  0  0  0  0  0  0
    2.4927   -3.5317    1.5220 H   0  0  0  0  0  0  0  0  0  0  0  0
    1.8310   -2.3840    0.4123 H   0  0  0  0  0  0  0  0  0  0  0  0
    4.6876   -2.4341    1.5117 H   0  0  0  0  0  0  0  0  0  0  0  0
    2.7137   -2.1765   -1.4513 H   0  0  0  0  0  0  0  0  0  0  0  0
    4.5029   -1.4186   -4.5905 H   0  0  0  0  0  0  0  0  0  0  0  0
    5.0844   -1.0238   -2.9944 H   0  0  0  0  0  0  0  0  0  0  0  0
    3.4253   -0.6974   -3.4258 H   0  0  0  0  0  0  0  0  0  0  0  0
    1.7878   -2.5647   -3.6633 H   0  0  0  0  0  0  0  0  0  0  0  0
    2.2759   -4.2489   -3.5091 H   0  0  0  0  0  0  0  0  0  0  0  0
    2.8316   -3.2929   -4.8748 H   0  0  0  0  0  0  0  0  0  0  0  0
    5.2015   -3.8799   -4.4310 H   0  0  0  0  0  0  0  0  0  0  0  0
    4.7990   -4.7839   -2.9867 H   0  0  0  0  0  0  0  0  0  0  0  0
    5.9532   -3.4671   -2.9148 H   0  0  0  0  0  0  0  0  0  0  0  0
    5.2246   -0.4585    0.2289 H   0  0  0  0  0  0  0  0  0  0  0  0
    3.6209   -0.3732   -0.4672 H   0  0  0  0  0  0  0  0  0  0  0  0
    3.8208    1.1978    1.2309 H   0  0  0  0  0  0  0  0  0  0  0  0
    4.3354    0.0279    2.4706 H   0  0  0  0  0  0  0  0  0  0  0  0
    3.3405    2.1624    3.2140 H   0  0  0  0  0  0  0  0  0  0  0  0
    2.3452    2.6513    1.8458 H   0  0  0  0  0  0  0  0  0  0  0  0
    2.1681    4.1412    3.6801 H   0  0  0  0  0  0  0  0  0  0  0  0
    1.7051    2.8574    4.7942 H   0  0  0  0  0  0  0  0  0  0  0  0
    0.2021    3.7025    2.3765 H   0  0  0  0  0  0  0  0  0  0  0  0
    1.7891   -0.0423    1.0196 H   0  0  0  0  0  0  0  0  0  0  0  0
  1  2  1  0
  1 23  1  0
  1 24  1  0
  1 25  1  0
  2  3  1  0
  2  4  1  0
  2 26  1  0
  3 27  1  0
  3 28  1  0
  3 29  1  0
  4 22  1  0
  4  5  1  0
  4 58  1  6
  5  6  1  0
  5 30  1  0
  5 31  1  0
  6  7  1  0
  6 32  1  0
  6 33  1  0
  7  8  1  0
  7 21  1  0
  7 34  1  1
  8 20  1  0
  8  9  1  0
  8 59  1  6
  9 10  1  0
  9 35  1  0
  9 36  1  0
 10 11  1  0
 10 37  1  0
 10 38  1  0
 11 12  1  0
 11 19  1  0
 11 39  1  1
 12 13  2  0
 12 14  1  0
 14 15  1  0
 14 40  1  0
 15 16  1  0
 15 17  1  0
 15 18  1  0
 16 41  1  0
 16 42  1  0
 16 43  1  0
 17 44  1  0
 17 45  1  0
 17 46  1  0
 18 47  1  0
 18 48  1  0
 18 49  1  0
 19 20  1  0
 19 50  1  0
 19 51  1  0
 20 52  1  0
 20 53  1  0
 21 22  1  0
 21 54  1  0
 21 55  1  0
 22 56  1  0
 22 57  1  0
M  CHG  2   4   1   8   1
M  END
>  <i_m_ct_stereo_status>  (359) 
1

>  <s_m_source_file>  (359) 
/var/tmp/pbs.5076255.sched01/tmp1cu33jom/138ve8n868x.sdf

>  <i_m_source_file_index>  (359) 
4

>  <i_lp_mmshare_version>  (359) 
48012

>  <i_f3d_flags>  (359) 
0

>  <s_epik_input>  (359) 
W0NIM11bQ0hdKFtDSDNdKU4xW0NIMl1bQ0gyXVtDSF0oW0NIMl1bQ0gyXTEpTjJbQ0gyXVtDSDJdW0NIXShbQ0gyXVtDSDJdMilDKD1PKVtOSF1DKFtDSDNdKShbQ0gzXSlbQ0gzXQ==

>  <s_epik_cmdline>  (359) 
J2VwaWtfcHl0aG9uJywgJy1waHQnLCAnMi4wJywgJy1waCcsICc3LjAnLCAnLXRuJywgJzgnLCAnLW1hJywgJzIwMCcsICctaW1hZScsICc8aW5maWxlLm1hZT4nLCAnLW9tYWUnLCAnPG91dGZpbGUubWFlPic=

>  <r_epik_Ionization_Penalty>  (359) 
0.311068

>  <r_epik_Ionization_Penalty_Charging>  (359) 
0.311068

>  <r_epik_Ionization_Penalty_Neutral>  (359) 
2.13047e-08

>  <r_epik_State_Penalty>  (359) 
0.274778

>  <r_epik_Charging_Adjusted_Penalty>  (359) 
0.585847

>  <i_epik_Tot_Q>  (359) 
2

>  <i_epik_Tot_abs_Q>  (359) 
2

>  <s_lp_Force_Field>  (359) 
OPLS3e

>  <r_lp_Energy>  (359) 
51.3512

>  <b_lp_Chiralities_Consistent>  (359) 
1

>  <s_lp_Variant>  (359) 
97:0-1

>  <s_i_glide_gridfile>  (359) 
pfpi4k_grid

>  <i_i_glide_lignum>  (359) 
4

>  <i_i_glide_rotatable_bonds>  (359) 
5

>  <r_i_docking_score>  (359) 
-4.60522

>  <r_i_glide_ligand_efficiency>  (359) 
-0.209328

>  <r_i_glide_ligand_efficiency_sa>  (359) 
-0.586546

>  <r_i_glide_ligand_efficiency_ln>  (359) 
-1.12568

>  <r_i_glide_gscore>  (359) 
-4.60522

>  <r_i_glide_lipo>  (359) 
-0.615597

>  <r_i_glide_hbond>  (359) 
-0.289542

>  <r_i_glide_metal>  (359) 
-0

>  <r_i_glide_rewards>  (359) 
-1.29195

>  <r_i_glide_evdw>  (359) 
-28.5363

>  <r_i_glide_ecoul>  (359) 
-9.21167

>  <r_i_glide_erotb>  (359) 
0.573383

>  <r_i_glide_esite>  (359) 
-0.17295

>  <r_i_glide_emodel>  (359) 
-45.1493

>  <r_i_glide_energy>  (359) 
-37.748

>  <r_i_glide_einternal>  (359) 
11.116

>  <r_i_glide_intrahb_reward>  (359) 
-0

>  <i_i_glide_confnum>  (359) 
5

>  <i_i_glide_posenum>  (359) 
13

>  <r_i_glide_eff_state_penalty>  (359) 
0

>  <ligand_id>  (359) 
97

>  <original_smiles>  (359) 
CC(C)N1CCC(N2CCC(C(=O)NC(C)(C)C)CC2)CC1

>  <smiles>  (359) 
[H]N(C(=O)C1([H])C([H])([H])C([H])([H])[N+]([H])(C2([H])C([H])([H])C([H])([H])[N+]([H])(C([H])(C([H])([H])[H])C([H])([H])[H])C([H])([H])C2([H])[H])C([H])([H])C1([H])[H])C(C([H])([H])[H])(C([H])([H])[H])C([H])([H])[H]

$$$$
97:0:1
     RDKit          3D

 59 60  0  0  1  0  0  0  0  0999 V2000
   -0.8301    3.3936    5.6526 C   0  0  0  0  0  0  0  0  0  0  0  0
   -0.7311    3.8482    4.1776 C   0  0  0  0  0  0  0  0  0  0  0  0
   -2.1030    4.1443    3.5651 C   0  0  0  0  0  0  0  0  0  0  0  0
    0.0246    2.8902    3.3355 N   0  0  2  0  0  0  0  0  0  0  0  0
   -0.4855    1.4949    3.4288 C   0  0  0  0  0  0  0  0  0  0  0  0
    0.2567    0.5422    2.4978 C   0  0  0  0  0  0  0  0  0  0  0  0
    1.7733    0.5706    2.7576 C   0  0  1  0  0  0  0  0  0  0  0  0
    2.4727   -0.3133    1.7781 N   0  0  2  0  0  0  0  0  0  0  0  0
    2.3780   -1.7504    2.1381 C   0  0  0  0  0  0  0  0  0  0  0  0
    2.8646   -2.6062    0.9572 C   0  0  0  0  0  0  0  0  0  0  0  0
    4.2862   -2.2151    0.5021 C   0  0  1  0  0  0  0  0  0  0  0  0
    4.6888   -2.8973   -0.8037 C   0  0  0  0  0  0  0  0  0  0  0  0
    5.8581   -3.2656   -0.9547 O   0  0  0  0  0  0  0  0  0  0  0  0
    3.7394   -2.9435   -1.7631 N   0  0  0  0  0  0  0  0  0  0  0  0
    3.9149   -2.9012   -3.2136 C   0  0  0  0  0  0  0  0  0  0  0  0
    4.2750   -1.4642   -3.6120 C   0  0  0  0  0  0  0  0  0  0  0  0
    2.5824   -3.2380   -3.8825 C   0  0  0  0  0  0  0  0  0  0  0  0
    4.9963   -3.8764   -3.6955 C   0  0  0  0  0  0  0  0  0  0  0  0
    4.3971   -0.6979    0.2841 C   0  0  0  0  0  0  0  0  0  0  0  0
    3.8706    0.0728    1.4883 C   0  0  0  0  0  0  0  0  0  0  0  0
    2.2581    2.0383    2.6892 C   0  0  0  0  0  0  0  0  0  0  0  0
    1.4792    2.9531    3.6159 C   0  0  0  0  0  0  0  0  0  0  0  0
   -1.2274    4.1826    6.2858 H   0  0  0  0  0  0  0  0  0  0  0  0
    0.1406    3.1116    6.0658 H   0  0  0  0  0  0  0  0  0  0  0  0
   -1.4916    2.5333    5.7542 H   0  0  0  0  0  0  0  0  0  0  0  0
   -0.1842    4.7898    4.1485 H   0  0  0  0  0  0  0  0  0  0  0  0
   -2.5852    4.9129    4.1559 H   0  0  0  0  0  0  0  0  0  0  0  0
   -2.7634    3.2773    3.5572 H   0  0  0  0  0  0  0  0  0  0  0  0
   -2.0089    4.5231    2.5443 H   0  0  0  0  0  0  0  0  0  0  0  0
   -0.3526    1.1058    4.4415 H   0  0  0  0  0  0  0  0  0  0  0  0
   -1.5468    1.4296    3.2064 H   0  0  0  0  0  0  0  0  0  0  0  0
   -0.1408   -0.4577    2.6767 H   0  0  0  0  0  0  0  0  0  0  0  0
    0.0402    0.7748    1.4518 H   0  0  0  0  0  0  0  0  0  0  0  0
    1.9784    0.2038    3.7696 H   0  0  0  0  0  0  0  0  0  0  0  0
    2.9746   -1.9620    3.0452 H   0  0  0  0  0  0  0  0  0  0  0  0
    1.3335   -2.0226    2.3267 H   0  0  0  0  0  0  0  0  0  0  0  0
    2.8203   -3.6715    1.1999 H   0  0  0  0  0  0  0  0  0  0  0  0
    2.1596   -2.4526    0.1405 H   0  0  0  0  0  0  0  0  0  0  0  0
    4.9926   -2.4997    1.2872 H   0  0  0  0  0  0  0  0  0  0  0  0
    2.7932   -2.7205   -1.4801 H   0  0  0  0  0  0  0  0  0  0  0  0
    4.4451   -1.3804   -4.6839 H   0  0  0  0  0  0  0  0  0  0  0  0
    5.1826   -1.1510   -3.1053 H   0  0  0  0  0  0  0  0  0  0  0  0
    3.4996   -0.7423   -3.3568 H   0  0  0  0  0  0  0  0  0  0  0  0
    1.7820   -2.5598   -3.5921 H   0  0  0  0  0  0  0  0  0  0  0  0
    2.2412   -4.2533   -3.6445 H   0  0  0  0  0  0  0  0  0  0  0  0
    2.6885   -3.1843   -4.9596 H   0  0  0  0  0  0  0  0  0  0  0  0
    5.0820   -3.8779   -4.7787 H   0  0  0  0  0  0  0  0  0  0  0  0
    4.7392   -4.8912   -3.3868 H   0  0  0  0  0  0  0  0  0  0  0  0
    5.9868   -3.6485   -3.2984 H   0  0  0  0  0  0  0  0  0  0  0  0
    5.4358   -0.4138    0.1041 H   0  0  0  0  0  0  0  0  0  0  0  0
    3.8285   -0.3922   -0.6023 H   0  0  0  0  0  0  0  0  0  0  0  0
    3.9501    1.1162    1.1712 H   0  0  0  0  0  0  0  0  0  0  0  0
    4.5130   -0.0863    2.3755 H   0  0  0  0  0  0  0  0  0  0  0  0
    3.3005    2.1149    3.0061 H   0  0  0  0  0  0  0  0  0  0  0  0
    2.1878    2.4129    1.6689 H   0  0  0  0  0  0  0  0  0  0  0  0
    1.8498    3.9679    3.4759 H   0  0  0  0  0  0  0  0  0  0  0  0
    1.6951    2.6568    4.6455 H   0  0  0  0  0  0  0  0  0  0  0  0
   -0.0832    3.2092    2.3728 H   0  0  0  0  0  0  0  0  0  0  0  0
    1.9591   -0.2044    0.9007 H   0  0  0  0  0  0  0  0  0  0  0  0
  1  2  1  0
  1 23  1  0
  1 24  1  0
  1 25  1  0
  2  3  1  0
  2  4  1  0
  2 26  1  0
  3 27  1  0
  3 28  1  0
  3 29  1  0
  4 22  1  0
  4  5  1  0
  4 58  1  6
  5  6  1  0
  5 30  1  0
  5 31  1  0
  6  7  1  0
  6 32  1  0
  6 33  1  0
  7  8  1  0
  7 21  1  0
  7 34  1  1
  8 20  1  0
  8  9  1  0
  8 59  1  6
  9 10  1  0
  9 35  1  0
  9 36  1  0
 10 11  1  0
 10 37  1  0
 10 38  1  0
 11 12  1  0
 11 19  1  0
 11 39  1  1
 12 13  2  0
 12 14  1  0
 14 15  1  0
 14 40  1  0
 15 16  1  0
 15 17  1  0
 15 18  1  0
 16 41  1  0
 16 42  1  0
 16 43  1  0
 17 44  1  0
 17 45  1  0
 17 46  1  0
 18 47  1  0
 18 48  1  0
 18 49  1  0
 19 20  1  0
 19 50  1  0
 19 51  1  0
 20 52  1  0
 20 53  1  0
 21 22  1  0
 21 54  1  0
 21 55  1  0
 22 56  1  0
 22 57  1  0
M  CHG  2   4   1   8   1
M  END
>  <i_m_ct_stereo_status>  (360) 
1

>  <s_m_source_file>  (360) 
/var/tmp/pbs.5076255.sched01/tmp1cu33jom/138ve8n868x.sdf

>  <i_m_source_file_index>  (360) 
4

>  <i_lp_mmshare_version>  (360) 
48012

>  <i_f3d_flags>  (360) 
0

>  <s_epik_input>  (360) 
W0NIM11bQ0hdKFtDSDNdKU4xW0NIMl1bQ0gyXVtDSF0oW0NIMl1bQ0gyXTEpTjJbQ0gyXVtDSDJdW0NIXShbQ0gyXVtDSDJdMilDKD1PKVtOSF1DKFtDSDNdKShbQ0gzXSlbQ0gzXQ==

>  <s_epik_cmdline>  (360) 
J2VwaWtfcHl0aG9uJywgJy1waHQnLCAnMi4wJywgJy1waCcsICc3LjAnLCAnLXRuJywgJzgnLCAnLW1hJywgJzIwMCcsICctaW1hZScsICc8aW5maWxlLm1hZT4nLCAnLW9tYWUnLCAnPG91dGZpbGUubWFlPic=

>  <r_epik_Ionization_Penalty>  (360) 
0.311068

>  <r_epik_Ionization_Penalty_Charging>  (360) 
0.311068

>  <r_epik_Ionization_Penalty_Neutral>  (360) 
2.13047e-08

>  <r_epik_State_Penalty>  (360) 
0.274778

>  <r_epik_Charging_Adjusted_Penalty>  (360) 
0.585847

>  <i_epik_Tot_Q>  (360) 
2

>  <i_epik_Tot_abs_Q>  (360) 
2

>  <s_lp_Force_Field>  (360) 
OPLS3e

>  <r_lp_Energy>  (360) 
51.3512

>  <b_lp_Chiralities_Consistent>  (360) 
1

>  <s_lp_Variant>  (360) 
97:0-1

>  <s_i_glide_gridfile>  (360) 
pfpi4k_grid

>  <i_i_glide_lignum>  (360) 
4

>  <i_i_glide_rotatable_bonds>  (360) 
5

>  <r_i_docking_score>  (360) 
-4.43307

>  <r_i_glide_ligand_efficiency>  (360) 
-0.201503

>  <r_i_glide_ligand_efficiency_sa>  (360) 
-0.56462

>  <r_i_glide_ligand_efficiency_ln>  (360) 
-1.0836

>  <r_i_glide_gscore>  (360) 
-4.43307

>  <r_i_glide_lipo>  (360) 
-0.587876

>  <r_i_glide_hbond>  (360) 
-0.30349

>  <r_i_glide_metal>  (360) 
-0

>  <r_i_glide_rewards>  (360) 
-1.28519

>  <r_i_glide_evdw>  (360) 
-28.4309

>  <r_i_glide_ecoul>  (360) 
-8.37189

>  <r_i_glide_erotb>  (360) 
0.573383

>  <r_i_glide_esite>  (360) 
-0.15257

>  <r_i_glide_emodel>  (360) 
-42.876

>  <r_i_glide_energy>  (360) 
-36.8028

>  <r_i_glide_einternal>  (360) 
13.0798

>  <r_i_glide_intrahb_reward>  (360) 
-0

>  <i_i_glide_confnum>  (360) 
5

>  <i_i_glide_posenum>  (360) 
1

>  <r_i_glide_eff_state_penalty>  (360) 
0

>  <ligand_id>  (360) 
97

>  <original_smiles>  (360) 
CC(C)N1CCC(N2CCC(C(=O)NC(C)(C)C)CC2)CC1

>  <smiles>  (360) 
[H]N(C(=O)C1([H])C([H])([H])C([H])([H])[N+]([H])(C2([H])C([H])([H])C([H])([H])[N+]([H])(C([H])(C([H])([H])[H])C([H])([H])[H])C([H])([H])C2([H])[H])C([H])([H])C1([H])[H])C(C([H])([H])[H])(C([H])([H])[H])C([H])([H])[H]

$$$$
97:0:2
     RDKit          3D

 59 60  0  0  1  0  0  0  0  0999 V2000
    0.0358    5.2979    5.0138 C   0  0  0  0  0  0  0  0  0  0  0  0
    0.0680    3.8747    5.6017 C   0  0  0  0  0  0  0  0  0  0  0  0
    0.7220    3.8972    7.0029 C   0  0  0  0  0  0  0  0  0  0  0  0
    0.7054    2.9181    4.6344 N   0  0  2  0  0  0  0  0  0  0  0  0
   -0.2191    2.5452    3.5193 C   0  0  0  0  0  0  0  0  0  0  0  0
    0.4739    1.6794    2.4564 C   0  0  0  0  0  0  0  0  0  0  0  0
    1.1127    0.4304    3.0827 C   0  0  1  0  0  0  0  0  0  0  0  0
    1.8617   -0.3498    2.0678 N   0  0  2  0  0  0  0  0  0  0  0  0
    1.9786   -1.7879    2.4444 C   0  0  0  0  0  0  0  0  0  0  0  0
    2.5520   -2.5908    1.2779 C   0  0  0  0  0  0  0  0  0  0  0  0
    3.8884   -2.0029    0.7874 C   0  0  1  0  0  0  0  0  0  0  0  0
    4.3588   -2.6728   -0.4962 C   0  0  0  0  0  0  0  0  0  0  0  0
    5.4251   -3.2857   -0.4965 O   0  0  0  0  0  0  0  0  0  0  0  0
    3.5677   -2.4944   -1.5868 N   0  0  0  0  0  0  0  0  0  0  0  0
    3.8369   -2.7041   -3.0117 C   0  0  0  0  0  0  0  0  0  0  0  0
    4.1451   -1.3351   -3.6380 C   0  0  0  0  0  0  0  0  0  0  0  0
    2.5624   -3.2568   -3.6658 C   0  0  0  0  0  0  0  0  0  0  0  0
    5.0165   -3.6618   -3.2760 C   0  0  0  0  0  0  0  0  0  0  0  0
    3.7928   -0.4791    0.5462 C   0  0  0  0  0  0  0  0  0  0  0  0
    3.1995    0.2151    1.7573 C   0  0  0  0  0  0  0  0  0  0  0  0
    1.9969    0.8186    4.2838 C   0  0  0  0  0  0  0  0  0  0  0  0
    1.2675    1.6948    5.2852 C   0  0  0  0  0  0  0  0  0  0  0  0
   -0.5521    5.9536    5.6581 H   0  0  0  0  0  0  0  0  0  0  0  0
   -0.4087    5.3528    4.0190 H   0  0  0  0  0  0  0  0  0  0  0  0
    1.0341    5.7321    4.9390 H   0  0  0  0  0  0  0  0  0  0  0  0
   -0.9578    3.5465    5.7702 H   0  0  0  0  0  0  0  0  0  0  0  0
    0.1968    4.5836    7.6651 H   0  0  0  0  0  0  0  0  0  0  0  0
    1.7641    4.2205    6.9647 H   0  0  0  0  0  0  0  0  0  0  0  0
    0.6967    2.9150    7.4894 H   0  0  0  0  0  0  0  0  0  0  0  0
   -1.0808    2.0009    3.9197 H   0  0  0  0  0  0  0  0  0  0  0  0
   -0.6114    3.4155    2.9910 H   0  0  0  0  0  0  0  0  0  0  0  0
   -0.2528    1.3775    1.6959 H   0  0  0  0  0  0  0  0  0  0  0  0
    1.2074    2.2943    1.9327 H   0  0  0  0  0  0  0  0  0  0  0  0
    0.2930   -0.1771    3.4563 H   0  0  0  0  0  0  0  0  0  0  0  0
    2.6094   -1.9063    3.3328 H   0  0  0  0  0  0  0  0  0  0  0  0
    0.9732   -2.1680    2.6512 H   0  0  0  0  0  0  0  0  0  0  0  0
    2.6739   -3.6483    1.5296 H   0  0  0  0  0  0  0  0  0  0  0  0
    1.8173   -2.5668    0.4764 H   0  0  0  0  0  0  0  0  0  0  0  0
    4.6302   -2.1558    1.5782 H   0  0  0  0  0  0  0  0  0  0  0  0
    2.6965   -2.0002   -1.4148 H   0  0  0  0  0  0  0  0  0  0  0  0
    4.3543   -1.4332   -4.6998 H   0  0  0  0  0  0  0  0  0  0  0  0
    5.0117   -0.8690   -3.1743 H   0  0  0  0  0  0  0  0  0  0  0  0
    3.3091   -0.6403   -3.5476 H   0  0  0  0  0  0  0  0  0  0  0  0
    1.7060   -2.5929   -3.5500 H   0  0  0  0  0  0  0  0  0  0  0  0
    2.2679   -4.2235   -3.2639 H   0  0  0  0  0  0  0  0  0  0  0  0
    2.7271   -3.3935   -4.7273 H   0  0  0  0  0  0  0  0  0  0  0  0
    5.1647   -3.8555   -4.3319 H   0  0  0  0  0  0  0  0  0  0  0  0
    4.8312   -4.6223   -2.7950 H   0  0  0  0  0  0  0  0  0  0  0  0
    5.9553   -3.2643   -2.8788 H   0  0  0  0  0  0  0  0  0  0  0  0
    4.7860   -0.0562    0.3547 H   0  0  0  0  0  0  0  0  0  0  0  0
    3.1664   -0.2681   -0.3125 H   0  0  0  0  0  0  0  0  0  0  0  0
    3.1169    1.2876    1.5366 H   0  0  0  0  0  0  0  0  0  0  0  0
    3.8963    0.0891    2.5979 H   0  0  0  0  0  0  0  0  0  0  0  0
    2.3695   -0.0745    4.8004 H   0  0  0  0  0  0  0  0  0  0  0  0
    2.8775    1.3936    3.9911 H   0  0  0  0  0  0  0  0  0  0  0  0
    2.0357    1.9397    6.0208 H   0  0  0  0  0  0  0  0  0  0  0  0
    0.4793    1.1240    5.7850 H   0  0  0  0  0  0  0  0  0  0  0  0
    1.4837    3.4066    4.2166 H   0  0  0  0  0  0  0  0  0  0  0  0
    1.3368   -0.3383    1.1991 H   0  0  0  0  0  0  0  0  0  0  0  0
  1  2  1  0
  1 23  1  0
  1 24  1  0
  1 25  1  0
  2  3  1  0
  2  4  1  0
  2 26  1  0
  3 27  1  0
  3 28  1  0
  3 29  1  0
  4 22  1  0
  4  5  1  0
  4 58  1  6
  5  6  1  0
  5 30  1  0
  5 31  1  0
  6  7  1  0
  6 32  1  0
  6 33  1  0
  7  8  1  0
  7 21  1  0
  7 34  1  1
  8 20  1  0
  8  9  1  0
  8 59  1  6
  9 10  1  0
  9 35  1  0
  9 36  1  0
 10 11  1  0
 10 37  1  0
 10 38  1  0
 11 12  1  0
 11 19  1  0
 11 39  1  1
 12 13  2  0
 12 14  1  0
 14 15  1  0
 14 40  1  0
 15 16  1  0
 15 17  1  0
 15 18  1  0
 16 41  1  0
 16 42  1  0
 16 43  1  0
 17 44  1  0
 17 45  1  0
 17 46  1  0
 18 47  1  0
 18 48  1  0
 18 49  1  0
 19 20  1  0
 19 50  1  0
 19 51  1  0
 20 52  1  0
 20 53  1  0
 21 22  1  0
 21 54  1  0
 21 55  1  0
 22 56  1  0
 22 57  1  0
M  CHG  2   4   1   8   1
M  END
>  <i_m_ct_stereo_status>  (361) 
1

>  <s_m_source_file>  (361) 
/var/tmp/pbs.5076255.sched01/tmp1cu33jom/138ve8n868x.sdf

>  <i_m_source_file_index>  (361) 
4

>  <i_lp_mmshare_version>  (361) 
48012

>  <i_f3d_flags>  (361) 
0

>  <s_epik_input>  (361) 
W0NIM11bQ0hdKFtDSDNdKU4xW0NIMl1bQ0gyXVtDSF0oW0NIMl1bQ0gyXTEpTjJbQ0gyXVtDSDJdW0NIXShbQ0gyXVtDSDJdMilDKD1PKVtOSF1DKFtDSDNdKShbQ0gzXSlbQ0gzXQ==

>  <s_epik_cmdline>  (361) 
J2VwaWtfcHl0aG9uJywgJy1waHQnLCAnMi4wJywgJy1waCcsICc3LjAnLCAnLXRuJywgJzgnLCAnLW1hJywgJzIwMCcsICctaW1hZScsICc8aW5maWxlLm1hZT4nLCAnLW9tYWUnLCAnPG91dGZpbGUubWFlPic=

>  <r_epik_Ionization_Penalty>  (361) 
0.311068

>  <r_epik_Ionization_Penalty_Charging>  (361) 
0.311068

>  <r_epik_Ionization_Penalty_Neutral>  (361) 
2.13047e-08

>  <r_epik_State_Penalty>  (361) 
0.274778

>  <r_epik_Charging_Adjusted_Penalty>  (361) 
0.585847

>  <i_epik_Tot_Q>  (361) 
2

>  <i_epik_Tot_abs_Q>  (361) 
2

>  <s_lp_Force_Field>  (361) 
OPLS3e

>  <r_lp_Energy>  (361) 
51.3512

>  <b_lp_Chiralities_Consistent>  (361) 
1

>  <s_lp_Variant>  (361) 
97:0-1

>  <s_i_glide_gridfile>  (361) 
pfpi4k_grid

>  <i_i_glide_lignum>  (361) 
4

>  <i_i_glide_rotatable_bonds>  (361) 
5

>  <r_i_docking_score>  (361) 
-4.17168

>  <r_i_glide_ligand_efficiency>  (361) 
-0.189622

>  <r_i_glide_ligand_efficiency_sa>  (361) 
-0.531328

>  <r_i_glide_ligand_efficiency_ln>  (361) 
-1.01971

>  <r_i_glide_gscore>  (361) 
-4.17168

>  <r_i_glide_lipo>  (361) 
-0.697749

>  <r_i_glide_hbond>  (361) 
-0.195665

>  <r_i_glide_metal>  (361) 
-0

>  <r_i_glide_rewards>  (361) 
-1.28519

>  <r_i_glide_evdw>  (361) 
-26.906

>  <r_i_glide_ecoul>  (361) 
-7.331

>  <r_i_glide_erotb>  (361) 
0.573383

>  <r_i_glide_esite>  (361) 
-0.121515

>  <r_i_glide_emodel>  (361) 
-40.8006

>  <r_i_glide_energy>  (361) 
-34.237

>  <r_i_glide_einternal>  (361) 
10.2943

>  <r_i_glide_intrahb_reward>  (361) 
-0

>  <i_i_glide_confnum>  (361) 
4

>  <i_i_glide_posenum>  (361) 
29

>  <r_i_glide_eff_state_penalty>  (361) 
0

>  <ligand_id>  (361) 
97

>  <original_smiles>  (361) 
CC(C)N1CCC(N2CCC(C(=O)NC(C)(C)C)CC2)CC1

>  <smiles>  (361) 
[H]N(C(=O)C1([H])C([H])([H])C([H])([H])[N+]([H])(C2([H])C([H])([H])C([H])([H])[N+]([H])(C([H])(C([H])([H])[H])C([H])([H])[H])C([H])([H])C2([H])[H])C([H])([H])C1([H])[H])C(C([H])([H])[H])(C([H])([H])[H])C([H])([H])[H]

$$$$
97:1:0
     RDKit          3D

 58 59  0  0  1  0  0  0  0  0999 V2000
    4.0571   -1.1346   -1.9483 C   0  0  0  0  0  0  0  0  0  0  0  0
    3.8358   -2.1815   -0.8340 C   0  0  0  0  0  0  0  0  0  0  0  0
    3.1734   -3.4348   -1.4329 C   0  0  0  0  0  0  0  0  0  0  0  0
    3.0201   -1.6171    0.3130 N   0  0  2  0  0  0  0  0  0  0  0  0
    3.7023   -0.4397    0.8938 C   0  0  0  0  0  0  0  0  0  0  0  0
    2.8486    0.2016    1.9992 C   0  0  0  0  0  0  0  0  0  0  0  0
    2.5456   -0.7915    3.1264 C   0  0  1  0  0  0  0  0  0  0  0  0
    1.5649   -0.2066    4.0639 N   0  0  0  0  0  0  0  0  0  0  0  0
    1.9055    1.1604    4.4776 C   0  0  0  0  0  0  0  0  0  0  0  0
    0.7470    1.7663    5.2672 C   0  0  0  0  0  0  0  0  0  0  0  0
    0.4516    0.9449    6.5178 C   0  0  0  0  0  0  0  0  0  0  0  0
   -0.7959    1.4937    7.2050 C   0  0  0  0  0  0  0  0  0  0  0  0
   -1.8647    0.8953    7.0919 O   0  0  0  0  0  0  0  0  0  0  0  0
   -0.6603    2.6321    7.9183 N   0  0  0  0  0  0  0  0  0  0  0  0
   -1.6807    3.3733    8.6690 C   0  0  0  0  0  0  0  0  0  0  0  0
   -3.0687    3.2905    7.9899 C   0  0  0  0  0  0  0  0  0  0  0  0
   -1.2763    4.8457    8.7187 C   0  0  0  0  0  0  0  0  0  0  0  0
   -1.7645    2.8092   10.0909 C   0  0  0  0  0  0  0  0  0  0  0  0
    0.2488   -0.5291    6.0960 C   0  0  0  0  0  0  0  0  0  0  0  0
    1.4270   -1.0486    5.2641 C   0  0  0  0  0  0  0  0  0  0  0  0
    1.9325   -2.0575    2.5155 C   0  0  0  0  0  0  0  0  0  0  0  0
    2.8096   -2.6284    1.3850 C   0  0  0  0  0  0  0  0  0  0  0  0
    4.5184   -1.5945   -2.8296 H   0  0  0  0  0  0  0  0  0  0  0  0
    4.7349   -0.3376   -1.6496 H   0  0  0  0  0  0  0  0  0  0  0  0
    3.1220   -0.6829   -2.2629 H   0  0  0  0  0  0  0  0  0  0  0  0
    4.8117   -2.4741   -0.4689 H   0  0  0  0  0  0  0  0  0  0  0  0
    3.6939   -3.7494   -2.3442 H   0  0  0  0  0  0  0  0  0  0  0  0
    2.1339   -3.2522   -1.6892 H   0  0  0  0  0  0  0  0  0  0  0  0
    3.2215   -4.2889   -0.7608 H   0  0  0  0  0  0  0  0  0  0  0  0
    4.6776   -0.6913    1.3042 H   0  0  0  0  0  0  0  0  0  0  0  0
    3.8636    0.3678    0.1868 H   0  0  0  0  0  0  0  0  0  0  0  0
    3.4373    1.0516    2.3378 H   0  0  0  0  0  0  0  0  0  0  0  0
    1.9368    0.5828    1.5501 H   0  0  0  0  0  0  0  0  0  0  0  0
    3.4631   -1.0312    3.6575 H   0  0  0  0  0  0  0  0  0  0  0  0
    2.8338    1.1651    5.0548 H   0  0  0  0  0  0  0  0  0  0  0  0
    2.0288    1.8399    3.6326 H   0  0  0  0  0  0  0  0  0  0  0  0
    1.0061    2.7964    5.5170 H   0  0  0  0  0  0  0  0  0  0  0  0
   -0.1191    1.8189    4.6070 H   0  0  0  0  0  0  0  0  0  0  0  0
    1.3110    0.9979    7.1861 H   0  0  0  0  0  0  0  0  0  0  0  0
    0.2853    3.0221    7.9326 H   0  0  0  0  0  0  0  0  0  0  0  0
   -3.8019    3.9078    8.5127 H   0  0  0  0  0  0  0  0  0  0  0  0
   -3.4724    2.2832    7.9864 H   0  0  0  0  0  0  0  0  0  0  0  0
   -3.0143    3.6281    6.9616 H   0  0  0  0  0  0  0  0  0  0  0  0
   -1.1661    5.2751    7.7225 H   0  0  0  0  0  0  0  0  0  0  0  0
   -0.3349    5.0000    9.2513 H   0  0  0  0  0  0  0  0  0  0  0  0
   -2.0323    5.4264    9.2351 H   0  0  0  0  0  0  0  0  0  0  0  0
   -2.5366    3.3082   10.6630 H   0  0  0  0  0  0  0  0  0  0  0  0
   -0.8251    2.9278   10.6327 H   0  0  0  0  0  0  0  0  0  0  0  0
   -2.0040    1.7462   10.0987 H   0  0  0  0  0  0  0  0  0  0  0  0
    0.1169   -1.1642    6.9752 H   0  0  0  0  0  0  0  0  0  0  0  0
   -0.6431   -0.6508    5.4812 H   0  0  0  0  0  0  0  0  0  0  0  0
    1.1858   -2.0782    5.0226 H   0  0  0  0  0  0  0  0  0  0  0  0
    2.3451   -1.0503    5.8469 H   0  0  0  0  0  0  0  0  0  0  0  0
    1.8102   -2.8724    3.2312 H   0  0  0  0  0  0  0  0  0  0  0  0
    0.9480   -1.8453    2.1077 H   0  0  0  0  0  0  0  0  0  0  0  0
    2.2743   -3.5119    1.0369 H   0  0  0  0  0  0  0  0  0  0  0  0
    3.7596   -2.9625    1.8014 H   0  0  0  0  0  0  0  0  0  0  0  0
    2.1255   -1.3441   -0.0658 H   0  0  0  0  0  0  0  0  0  0  0  0
  1  2  1  0
  1 23  1  0
  1 24  1  0
  1 25  1  0
  2  3  1  0
  2  4  1  0
  2 26  1  0
  3 27  1  0
  3 28  1  0
  3 29  1  0
  4 22  1  0
  4  5  1  0
  4 58  1  6
  5  6  1  0
  5 30  1  0
  5 31  1  0
  6  7  1  0
  6 32  1  0
  6 33  1  0
  7  8  1  0
  7 21  1  0
  7 34  1  1
  8 20  1  0
  8  9  1  0
  9 10  1  0
  9 35  1  0
  9 36  1  0
 10 11  1  0
 10 37  1  0
 10 38  1  0
 11 12  1  0
 11 19  1  0
 11 39  1  0
 12 13  2  0
 12 14  1  0
 14 15  1  0
 14 40  1  0
 15 16  1  0
 15 17  1  0
 15 18  1  0
 16 41  1  0
 16 42  1  0
 16 43  1  0
 17 44  1  0
 17 45  1  0
 17 46  1  0
 18 47  1  0
 18 48  1  0
 18 49  1  0
 19 20  1  0
 19 50  1  0
 19 51  1  0
 20 52  1  0
 20 53  1  0
 21 22  1  0
 21 54  1  0
 21 55  1  0
 22 56  1  0
 22 57  1  0
M  CHG  1   4   1
M  END
>  <i_m_ct_stereo_status>  (362) 
1

>  <s_m_source_file>  (362) 
/var/tmp/pbs.5076255.sched01/tmp1cu33jom/138ve8n868x.sdf

>  <i_m_source_file_index>  (362) 
5

>  <i_lp_mmshare_version>  (362) 
48012

>  <i_f3d_flags>  (362) 
0

>  <s_epik_input>  (362) 
W0NIM11bQ0hdKFtDSDNdKU4xW0NIMl1bQ0gyXVtDSF0oW0NIMl1bQ0gyXTEpTjJbQ0gyXVtDSDJdW0NIXShbQ0gyXVtDSDJdMilDKD1PKVtOSF1DKFtDSDNdKShbQ0gzXSlbQ0gzXQ==

>  <s_epik_cmdline>  (362) 
J2VwaWtfcHl0aG9uJywgJy1waHQnLCAnMi4wJywgJy1waCcsICc3LjAnLCAnLXRuJywgJzgnLCAnLW1hJywgJzIwMCcsICctaW1hZScsICc8aW5maWxlLm1hZT4nLCAnLW9tYWUnLCAnPG91dGZpbGUubWFlPic=

>  <r_epik_Ionization_Penalty>  (362) 
0.646601

>  <r_epik_Ionization_Penalty_Charging>  (362) 
0.000979473

>  <r_epik_Ionization_Penalty_Neutral>  (362) 
0.645622

>  <r_epik_State_Penalty>  (362) 
0.70452

>  <r_epik_Charging_Adjusted_Penalty>  (362) 
0.705499

>  <i_epik_Tot_Q>  (362) 
1

>  <i_epik_Tot_abs_Q>  (362) 
1

>  <s_lp_Force_Field>  (362) 
OPLS3e

>  <r_lp_Energy>  (362) 
48.0085

>  <b_lp_Chiralities_Consistent>  (362) 
1

>  <s_lp_Variant>  (362) 
97:0-2

>  <s_i_glide_gridfile>  (362) 
pfpi4k_grid

>  <i_i_glide_lignum>  (362) 
5

>  <i_i_glide_rotatable_bonds>  (362) 
5

>  <r_i_docking_score>  (362) 
-3.81165

>  <r_i_glide_ligand_efficiency>  (362) 
-0.173257

>  <r_i_glide_ligand_efficiency_sa>  (362) 
-0.485473

>  <r_i_glide_ligand_efficiency_ln>  (362) 
-0.931707

>  <r_i_glide_gscore>  (362) 
-3.81165

>  <r_i_glide_lipo>  (362) 
-0.204326

>  <r_i_glide_hbond>  (362) 
-0.36

>  <r_i_glide_metal>  (362) 
-0

>  <r_i_glide_rewards>  (362) 
-1.29206

>  <r_i_glide_evdw>  (362) 
-21.2998

>  <r_i_glide_ecoul>  (362) 
-9.0533

>  <r_i_glide_erotb>  (362) 
0.576657

>  <r_i_glide_esite>  (362) 
-0.108943

>  <r_i_glide_emodel>  (362) 
-37.3764

>  <r_i_glide_energy>  (362) 
-30.3531

>  <r_i_glide_einternal>  (362) 
2.95367

>  <r_i_glide_intrahb_reward>  (362) 
-0

>  <i_i_glide_confnum>  (362) 
3

>  <i_i_glide_posenum>  (362) 
24

>  <r_i_glide_eff_state_penalty>  (362) 
0

>  <ligand_id>  (362) 
97

>  <original_smiles>  (362) 
CC(C)N1CCC(N2CCC(C(=O)NC(C)(C)C)CC2)CC1

>  <smiles>  (362) 
[H]N(C(=O)C1([H])C([H])([H])C([H])([H])N(C2([H])C([H])([H])C([H])([H])[N+]([H])(C([H])(C([H])([H])[H])C([H])([H])[H])C([H])([H])C2([H])[H])C([H])([H])C1([H])[H])C(C([H])([H])[H])(C([H])([H])[H])C([H])([H])[H]

$$$$
97:1:1
     RDKit          3D

 58 59  0  0  1  0  0  0  0  0999 V2000
    4.5591   -0.9779   -2.2110 C   0  0  0  0  0  0  0  0  0  0  0  0
    4.2040   -2.1142   -1.2379 C   0  0  0  0  0  0  0  0  0  0  0  0
    3.4472   -3.2088   -2.0083 C   0  0  0  0  0  0  0  0  0  0  0  0
    3.4275   -1.6335   -0.0382 N   0  0  2  0  0  0  0  0  0  0  0  0
    4.1640   -0.5512    0.6949 C   0  0  0  0  0  0  0  0  0  0  0  0
    3.3046    0.0294    1.8123 C   0  0  0  0  0  0  0  0  0  0  0  0
    2.8541   -1.0553    2.8036 C   0  0  1  0  0  0  0  0  0  0  0  0
    1.9184   -0.5548    3.8110 N   0  0  0  0  0  0  0  0  0  0  0  0
    0.8092    0.2243    3.2466 C   0  0  0  0  0  0  0  0  0  0  0  0
   -0.2355    0.4978    4.3177 C   0  0  0  0  0  0  0  0  0  0  0  0
    0.3925    1.2931    5.4759 C   0  0  0  0  0  0  0  0  0  0  0  0
   -0.6421    1.4846    6.5860 C   0  0  0  0  0  0  0  0  0  0  0  0
   -1.3691    0.5426    6.9106 O   0  0  0  0  0  0  0  0  0  0  0  0
   -0.7003    2.7064    7.1550 N   0  0  0  0  0  0  0  0  0  0  0  0
   -1.5682    3.1291    8.2575 C   0  0  0  0  0  0  0  0  0  0  0  0
   -1.2248    2.3261    9.5273 C   0  0  0  0  0  0  0  0  0  0  0  0
   -3.0541    2.9429    7.8833 C   0  0  0  0  0  0  0  0  0  0  0  0
   -1.3054    4.6181    8.5314 C   0  0  0  0  0  0  0  0  0  0  0  0
    1.6384    0.5408    5.9889 C   0  0  0  0  0  0  0  0  0  0  0  0
    2.6094    0.2303    4.8355 C   0  0  0  0  0  0  0  0  0  0  0  0
    2.2081   -2.2358    2.0598 C   0  0  0  0  0  0  0  0  0  0  0  0
    3.0971   -2.7382    0.9101 C   0  0  0  0  0  0  0  0  0  0  0  0
    4.9948   -1.3725   -3.1310 H   0  0  0  0  0  0  0  0  0  0  0  0
    5.2980   -0.2868   -1.7982 H   0  0  0  0  0  0  0  0  0  0  0  0
    3.6835   -0.3972   -2.4916 H   0  0  0  0  0  0  0  0  0  0  0  0
    5.1400   -2.5513   -0.8945 H   0  0  0  0  0  0  0  0  0  0  0  0
    3.9651   -3.4632   -2.9367 H   0  0  0  0  0  0  0  0  0  0  0  0
    2.4373   -2.9025   -2.2720 H   0  0  0  0  0  0  0  0  0  0  0  0
    3.3871   -4.1391   -1.4421 H   0  0  0  0  0  0  0  0  0  0  0  0
    5.1134   -0.9145    1.0859 H   0  0  0  0  0  0  0  0  0  0  0  0
    4.3780    0.3058    0.0668 H   0  0  0  0  0  0  0  0  0  0  0  0
    3.8568    0.8175    2.3265 H   0  0  0  0  0  0  0  0  0  0  0  0
    2.4684    0.5137    1.3145 H   0  0  0  0  0  0  0  0  0  0  0  0
    3.7299   -1.4548    3.3112 H   0  0  0  0  0  0  0  0  0  0  0  0
    1.1612    1.1805    2.8562 H   0  0  0  0  0  0  0  0  0  0  0  0
    0.3135   -0.3088    2.4383 H   0  0  0  0  0  0  0  0  0  0  0  0
   -1.0565    1.0631    3.8689 H   0  0  0  0  0  0  0  0  0  0  0  0
   -0.6491   -0.4537    4.6559 H   0  0  0  0  0  0  0  0  0  0  0  0
    0.7080    2.2658    5.0913 H   0  0  0  0  0  0  0  0  0  0  0  0
   -0.0342    3.3954    6.8165 H   0  0  0  0  0  0  0  0  0  0  0  0
   -1.8403    2.6333   10.3684 H   0  0  0  0  0  0  0  0  0  0  0  0
   -0.1847    2.4649    9.8146 H   0  0  0  0  0  0  0  0  0  0  0  0
   -1.3839    1.2611    9.3954 H   0  0  0  0  0  0  0  0  0  0  0  0
   -3.2986    1.9071    7.6613 H   0  0  0  0  0  0  0  0  0  0  0  0
   -3.3132    3.5257    6.9991 H   0  0  0  0  0  0  0  0  0  0  0  0
   -3.7066    3.2495    8.7009 H   0  0  0  0  0  0  0  0  0  0  0  0
   -1.9136    4.9721    9.3638 H   0  0  0  0  0  0  0  0  0  0  0  0
   -1.5483    5.2392    7.6688 H   0  0  0  0  0  0  0  0  0  0  0  0
   -0.2617    4.8076    8.7862 H   0  0  0  0  0  0  0  0  0  0  0  0
    2.1503    1.1324    6.7546 H   0  0  0  0  0  0  0  0  0  0  0  0
    1.3462   -0.3946    6.4676 H   0  0  0  0  0  0  0  0  0  0  0  0
    3.4600   -0.3273    5.2307 H   0  0  0  0  0  0  0  0  0  0  0  0
    3.0006    1.1563    4.4137 H   0  0  0  0  0  0  0  0  0  0  0  0
    2.0077   -3.0579    2.7522 H   0  0  0  0  0  0  0  0  0  0  0  0
    1.2552   -1.9570    1.6224 H   0  0  0  0  0  0  0  0  0  0  0  0
    2.5153   -3.5254    0.4288 H   0  0  0  0  0  0  0  0  0  0  0  0
    4.0084   -3.1934    1.3044 H   0  0  0  0  0  0  0  0  0  0  0  0
    2.5427   -1.2608   -0.3620 H   0  0  0  0  0  0  0  0  0  0  0  0
  1  2  1  0
  1 23  1  0
  1 24  1  0
  1 25  1  0
  2  3  1  0
  2  4  1  0
  2 26  1  0
  3 27  1  0
  3 28  1  0
  3 29  1  0
  4 22  1  0
  4  5  1  0
  4 58  1  6
  5  6  1  0
  5 30  1  0
  5 31  1  0
  6  7  1  0
  6 32  1  0
  6 33  1  0
  7  8  1  0
  7 21  1  0
  7 34  1  1
  8 20  1  0
  8  9  1  0
  9 10  1  0
  9 35  1  0
  9 36  1  0
 10 11  1  0
 10 37  1  0
 10 38  1  0
 11 12  1  0
 11 19  1  0
 11 39  1  0
 12 13  2  0
 12 14  1  0
 14 15  1  0
 14 40  1  0
 15 16  1  0
 15 17  1  0
 15 18  1  0
 16 41  1  0
 16 42  1  0
 16 43  1  0
 17 44  1  0
 17 45  1  0
 17 46  1  0
 18 47  1  0
 18 48  1  0
 18 49  1  0
 19 20  1  0
 19 50  1  0
 19 51  1  0
 20 52  1  0
 20 53  1  0
 21 22  1  0
 21 54  1  0
 21 55  1  0
 22 56  1  0
 22 57  1  0
M  CHG  1   4   1
M  END
>  <i_m_ct_stereo_status>  (363) 
1

>  <s_m_source_file>  (363) 
/var/tmp/pbs.5076255.sched01/tmp1cu33jom/138ve8n868x.sdf

>  <i_m_source_file_index>  (363) 
5

>  <i_lp_mmshare_version>  (363) 
48012

>  <i_f3d_flags>  (363) 
0

>  <s_epik_input>  (363) 
W0NIM11bQ0hdKFtDSDNdKU4xW0NIMl1bQ0gyXVtDSF0oW0NIMl1bQ0gyXTEpTjJbQ0gyXVtDSDJdW0NIXShbQ0gyXVtDSDJdMilDKD1PKVtOSF1DKFtDSDNdKShbQ0gzXSlbQ0gzXQ==

>  <s_epik_cmdline>  (363) 
J2VwaWtfcHl0aG9uJywgJy1waHQnLCAnMi4wJywgJy1waCcsICc3LjAnLCAnLXRuJywgJzgnLCAnLW1hJywgJzIwMCcsICctaW1hZScsICc8aW5maWxlLm1hZT4nLCAnLW9tYWUnLCAnPG91dGZpbGUubWFlPic=

>  <r_epik_Ionization_Penalty>  (363) 
0.646601

>  <r_epik_Ionization_Penalty_Charging>  (363) 
0.000979473

>  <r_epik_Ionization_Penalty_Neutral>  (363) 
0.645622

>  <r_epik_State_Penalty>  (363) 
0.70452

>  <r_epik_Charging_Adjusted_Penalty>  (363) 
0.705499

>  <i_epik_Tot_Q>  (363) 
1

>  <i_epik_Tot_abs_Q>  (363) 
1

>  <s_lp_Force_Field>  (363) 
OPLS3e

>  <r_lp_Energy>  (363) 
48.0085

>  <b_lp_Chiralities_Consistent>  (363) 
1

>  <s_lp_Variant>  (363) 
97:0-2

>  <s_i_glide_gridfile>  (363) 
pfpi4k_grid

>  <i_i_glide_lignum>  (363) 
5

>  <i_i_glide_rotatable_bonds>  (363) 
5

>  <r_i_docking_score>  (363) 
-3.78805

>  <r_i_glide_ligand_efficiency>  (363) 
-0.172184

>  <r_i_glide_ligand_efficiency_sa>  (363) 
-0.482467

>  <r_i_glide_ligand_efficiency_ln>  (363) 
-0.925938

>  <r_i_glide_gscore>  (363) 
-3.78805

>  <r_i_glide_lipo>  (363) 
-0.239704

>  <r_i_glide_hbond>  (363) 
-0.36

>  <r_i_glide_metal>  (363) 
-0

>  <r_i_glide_rewards>  (363) 
-1.29206

>  <r_i_glide_evdw>  (363) 
-23.5802

>  <r_i_glide_ecoul>  (363) 
-7.97052

>  <r_i_glide_erotb>  (363) 
0.576657

>  <r_i_glide_esite>  (363) 
-0.0983585

>  <r_i_glide_emodel>  (363) 
-40.0191

>  <r_i_glide_energy>  (363) 
-31.5507

>  <r_i_glide_einternal>  (363) 
0.63982

>  <r_i_glide_intrahb_reward>  (363) 
-0

>  <i_i_glide_confnum>  (363) 
1

>  <i_i_glide_posenum>  (363) 
1

>  <r_i_glide_eff_state_penalty>  (363) 
0

>  <ligand_id>  (363) 
97

>  <original_smiles>  (363) 
CC(C)N1CCC(N2CCC(C(=O)NC(C)(C)C)CC2)CC1

>  <smiles>  (363) 
[H]N(C(=O)C1([H])C([H])([H])C([H])([H])N(C2([H])C([H])([H])C([H])([H])[N+]([H])(C([H])(C([H])([H])[H])C([H])([H])[H])C([H])([H])C2([H])[H])C([H])([H])C1([H])[H])C(C([H])([H])[H])(C([H])([H])[H])C([H])([H])[H]

$$$$
97:1:2
     RDKit          3D

 58 59  0  0  1  0  0  0  0  0999 V2000
    5.7035   -2.6302   -1.2546 C   0  0  0  0  0  0  0  0  0  0  0  0
    4.2551   -2.2388   -1.5997 C   0  0  0  0  0  0  0  0  0  0  0  0
    4.2154   -1.2172   -2.7520 C   0  0  0  0  0  0  0  0  0  0  0  0
    3.4644   -1.7920   -0.3919 N   0  0  2  0  0  0  0  0  0  0  0  0
    4.1469   -0.6650    0.3035 C   0  0  0  0  0  0  0  0  0  0  0  0
    3.2566   -0.0762    1.4006 C   0  0  0  0  0  0  0  0  0  0  0  0
    2.9261   -1.1663    2.4304 C   0  0  1  0  0  0  0  0  0  0  0  0
    2.0027   -0.6990    3.4663 N   0  0  0  0  0  0  0  0  0  0  0  0
    0.8512    0.0221    2.9213 C   0  0  0  0  0  0  0  0  0  0  0  0
   -0.1808    0.2652    4.0076 C   0  0  0  0  0  0  0  0  0  0  0  0
    0.4370    1.1018    5.1379 C   0  0  0  0  0  0  0  0  0  0  0  0
   -0.5688    1.2588    6.2659 C   0  0  0  0  0  0  0  0  0  0  0  0
   -1.2812    0.3050    6.6081 O   0  0  0  0  0  0  0  0  0  0  0  0
   -0.6476    2.4704    6.8550 N   0  0  0  0  0  0  0  0  0  0  0  0
   -1.5090    2.8731    7.9607 C   0  0  0  0  0  0  0  0  0  0  0  0
   -1.2017    2.0158    9.2127 C   0  0  0  0  0  0  0  0  0  0  0  0
   -2.9937    2.7294    7.5594 C   0  0  0  0  0  0  0  0  0  0  0  0
   -1.2153    4.3437    8.2987 C   0  0  0  0  0  0  0  0  0  0  0  0
    1.7272    0.4177    5.6292 C   0  0  0  0  0  0  0  0  0  0  0  0
    2.6849    0.1354    4.4554 C   0  0  0  0  0  0  0  0  0  0  0  0
    2.3467   -2.4152    1.7385 C   0  0  0  0  0  0  0  0  0  0  0  0
    3.2216   -2.8973    0.5649 C   0  0  0  0  0  0  0  0  0  0  0  0
    6.2778   -2.9280   -2.1448 H   0  0  0  0  0  0  0  0  0  0  0  0
    5.7481   -3.4992   -0.5926 H   0  0  0  0  0  0  0  0  0  0  0  0
    6.2245   -1.8168   -0.7366 H   0  0  0  0  0  0  0  0  0  0  0  0
    3.7766   -3.1221   -2.0027 H   0  0  0  0  0  0  0  0  0  0  0  0
    4.8590   -1.5564   -3.5782 H   0  0  0  0  0  0  0  0  0  0  0  0
    4.5706   -0.2215   -2.4801 H   0  0  0  0  0  0  0  0  0  0  0  0
    3.2080   -1.1117   -3.1619 H   0  0  0  0  0  0  0  0  0  0  0  0
    5.1217   -0.9495    0.7132 H   0  0  0  0  0  0  0  0  0  0  0  0
    4.3139    0.1394   -0.3925 H   0  0  0  0  0  0  0  0  0  0  0  0
    3.7777    0.7715    1.8629 H   0  0  0  0  0  0  0  0  0  0  0  0
    2.3795    0.3429    0.8925 H   0  0  0  0  0  0  0  0  0  0  0  0
    3.8513   -1.4799    2.9000 H   0  0  0  0  0  0  0  0  0  0  0  0
    1.1457    0.9930    2.5120 H   0  0  0  0  0  0  0  0  0  0  0  0
    0.3691   -0.5408    2.1230 H   0  0  0  0  0  0  0  0  0  0  0  0
   -1.0316    0.7858    3.5629 H   0  0  0  0  0  0  0  0  0  0  0  0
   -0.5364   -0.7043    4.3560 H   0  0  0  0  0  0  0  0  0  0  0  0
    0.7029    2.0800    4.7299 H   0  0  0  0  0  0  0  0  0  0  0  0
    0.0079    3.1713    6.5225 H   0  0  0  0  0  0  0  0  0  0  0  0
   -1.8222    2.3092   10.0591 H   0  0  0  0  0  0  0  0  0  0  0  0
   -0.1568    2.1190    9.5141 H   0  0  0  0  0  0  0  0  0  0  0  0
   -1.3858    0.9539    9.0472 H   0  0  0  0  0  0  0  0  0  0  0  0
   -3.2594    1.7114    7.2806 H   0  0  0  0  0  0  0  0  0  0  0  0
   -3.2272    3.3598    6.7014 H   0  0  0  0  0  0  0  0  0  0  0  0
   -3.6518    3.0111    8.3809 H   0  0  0  0  0  0  0  0  0  0  0  0
   -1.8263    4.6751    9.1349 H   0  0  0  0  0  0  0  0  0  0  0  0
   -1.4239    4.9924    7.4531 H   0  0  0  0  0  0  0  0  0  0  0  0
   -0.1743    4.4904    8.5781 H   0  0  0  0  0  0  0  0  0  0  0  0
    2.2375    1.0388    6.3720 H   0  0  0  0  0  0  0  0  0  0  0  0
    1.4986   -0.5275    6.1216 H   0  0  0  0  0  0  0  0  0  0  0  0
    3.5733   -0.3780    4.8306 H   0  0  0  0  0  0  0  0  0  0  0  0
    3.0255    1.0708    4.0045 H   0  0  0  0  0  0  0  0  0  0  0  0
    2.2234   -3.2297    2.4659 H   0  0  0  0  0  0  0  0  0  0  0  0
    1.3687   -2.2074    1.3226 H   0  0  0  0  0  0  0  0  0  0  0  0
    2.7174   -3.7224    0.0709 H   0  0  0  0  0  0  0  0  0  0  0  0
    4.1458   -3.2734    0.9879 H   0  0  0  0  0  0  0  0  0  0  0  0
    2.5668   -1.4823   -0.7071 H   0  0  0  0  0  0  0  0  0  0  0  0
  1  2  1  0
  1 23  1  0
  1 24  1  0
  1 25  1  0
  2  3  1  0
  2  4  1  0
  2 26  1  0
  3 27  1  0
  3 28  1  0
  3 29  1  0
  4 22  1  0
  4  5  1  0
  4 58  1  6
  5  6  1  0
  5 30  1  0
  5 31  1  0
  6  7  1  0
  6 32  1  0
  6 33  1  0
  7  8  1  0
  7 21  1  0
  7 34  1  1
  8 20  1  0
  8  9  1  0
  9 10  1  0
  9 35  1  0
  9 36  1  0
 10 11  1  0
 10 37  1  0
 10 38  1  0
 11 12  1  0
 11 19  1  0
 11 39  1  0
 12 13  2  0
 12 14  1  0
 14 15  1  0
 14 40  1  0
 15 16  1  0
 15 17  1  0
 15 18  1  0
 16 41  1  0
 16 42  1  0
 16 43  1  0
 17 44  1  0
 17 45  1  0
 17 46  1  0
 18 47  1  0
 18 48  1  0
 18 49  1  0
 19 20  1  0
 19 50  1  0
 19 51  1  0
 20 52  1  0
 20 53  1  0
 21 22  1  0
 21 54  1  0
 21 55  1  0
 22 56  1  0
 22 57  1  0
M  CHG  1   4   1
M  END
>  <i_m_ct_stereo_status>  (364) 
1

>  <s_m_source_file>  (364) 
/var/tmp/pbs.5076255.sched01/tmp1cu33jom/138ve8n868x.sdf

>  <i_m_source_file_index>  (364) 
5

>  <i_lp_mmshare_version>  (364) 
48012

>  <i_f3d_flags>  (364) 
0

>  <s_epik_input>  (364) 
W0NIM11bQ0hdKFtDSDNdKU4xW0NIMl1bQ0gyXVtDSF0oW0NIMl1bQ0gyXTEpTjJbQ0gyXVtDSDJdW0NIXShbQ0gyXVtDSDJdMilDKD1PKVtOSF1DKFtDSDNdKShbQ0gzXSlbQ0gzXQ==

>  <s_epik_cmdline>  (364) 
J2VwaWtfcHl0aG9uJywgJy1waHQnLCAnMi4wJywgJy1waCcsICc3LjAnLCAnLXRuJywgJzgnLCAnLW1hJywgJzIwMCcsICctaW1hZScsICc8aW5maWxlLm1hZT4nLCAnLW9tYWUnLCAnPG91dGZpbGUubWFlPic=

>  <r_epik_Ionization_Penalty>  (364) 
0.646601

>  <r_epik_Ionization_Penalty_Charging>  (364) 
0.000979473

>  <r_epik_Ionization_Penalty_Neutral>  (364) 
0.645622

>  <r_epik_State_Penalty>  (364) 
0.70452

>  <r_epik_Charging_Adjusted_Penalty>  (364) 
0.705499

>  <i_epik_Tot_Q>  (364) 
1

>  <i_epik_Tot_abs_Q>  (364) 
1

>  <s_lp_Force_Field>  (364) 
OPLS3e

>  <r_lp_Energy>  (364) 
48.0085

>  <b_lp_Chiralities_Consistent>  (364) 
1

>  <s_lp_Variant>  (364) 
97:0-2

>  <s_i_glide_gridfile>  (364) 
pfpi4k_grid

>  <i_i_glide_lignum>  (364) 
5

>  <i_i_glide_rotatable_bonds>  (364) 
5

>  <r_i_docking_score>  (364) 
-3.75717

>  <r_i_glide_ligand_efficiency>  (364) 
-0.17078

>  <r_i_glide_ligand_efficiency_sa>  (364) 
-0.478533

>  <r_i_glide_ligand_efficiency_ln>  (364) 
-0.918389

>  <r_i_glide_gscore>  (364) 
-3.75717

>  <r_i_glide_lipo>  (364) 
-0.23427

>  <r_i_glide_hbond>  (364) 
-0.359937

>  <r_i_glide_metal>  (364) 
-0

>  <r_i_glide_rewards>  (364) 
-1.29206

>  <r_i_glide_evdw>  (364) 
-24.6562

>  <r_i_glide_ecoul>  (364) 
-7.39443

>  <r_i_glide_erotb>  (364) 
0.576657

>  <r_i_glide_esite>  (364) 
-0.105588

>  <r_i_glide_emodel>  (364) 
-37.0506

>  <r_i_glide_energy>  (364) 
-32.0506

>  <r_i_glide_einternal>  (364) 
6.26099

>  <r_i_glide_intrahb_reward>  (364) 
-0

>  <i_i_glide_confnum>  (364) 
1

>  <i_i_glide_posenum>  (364) 
19

>  <r_i_glide_eff_state_penalty>  (364) 
0

>  <ligand_id>  (364) 
97

>  <original_smiles>  (364) 
CC(C)N1CCC(N2CCC(C(=O)NC(C)(C)C)CC2)CC1

>  <smiles>  (364) 
[H]N(C(=O)C1([H])C([H])([H])C([H])([H])N(C2([H])C([H])([H])C([H])([H])[N+]([H])(C([H])(C([H])([H])[H])C([H])([H])[H])C([H])([H])C2([H])[H])C([H])([H])C1([H])[H])C(C([H])([H])[H])(C([H])([H])[H])C([H])([H])[H]

$$$$
97:2:0
     RDKit          3D

 58 59  0  0  1  0  0  0  0  0999 V2000
   -2.5717    3.2709    6.7264 C   0  0  0  0  0  0  0  0  0  0  0  0
   -1.6563    2.0893    7.1025 C   0  0  0  0  0  0  0  0  0  0  0  0
   -0.7941    2.5069    8.3136 C   0  0  0  0  0  0  0  0  0  0  0  0
   -0.8305    1.6407    5.9675 N   0  0  0  0  0  0  0  0  0  0  0  0
   -1.6594    1.2607    4.8109 C   0  0  0  0  0  0  0  0  0  0  0  0
   -0.7931    0.9095    3.5977 C   0  0  0  0  0  0  0  0  0  0  0  0
    0.2036   -0.2162    3.9285 C   0  0  0  0  0  0  0  0  0  0  0  0
    1.1296   -0.4935    2.8049 N   0  0  2  0  0  0  0  0  0  0  0  0
    1.8095   -1.8096    2.9505 C   0  0  0  0  0  0  0  0  0  0  0  0
    2.5908   -2.1530    1.6803 C   0  0  0  0  0  0  0  0  0  0  0  0
    3.5921   -1.0283    1.3310 C   0  0  1  0  0  0  0  0  0  0  0  0
    4.2846   -1.2819   -0.0102 C   0  0  0  0  0  0  0  0  0  0  0  0
    5.5190   -1.2222   -0.0740 O   0  0  0  0  0  0  0  0  0  0  0  0
    3.4773   -1.5447   -1.0527 N   0  0  0  0  0  0  0  0  0  0  0  0
    3.8033   -1.9201   -2.4332 C   0  0  0  0  0  0  0  0  0  0  0  0
    2.6831   -2.8481   -2.9290 C   0  0  0  0  0  0  0  0  0  0  0  0
    5.1418   -2.6792   -2.5317 C   0  0  0  0  0  0  0  0  0  0  0  0
    3.8313   -0.6556   -3.3081 C   0  0  0  0  0  0  0  0  0  0  0  0
    2.8949    0.3440    1.3047 C   0  0  0  0  0  0  0  0  0  0  0  0
    2.1158    0.6037    2.5739 C   0  0  0  0  0  0  0  0  0  0  0  0
    0.9531    0.1229    5.2293 C   0  0  0  0  0  0  0  0  0  0  0  0
    0.0019    0.4936    6.3584 C   0  0  0  0  0  0  0  0  0  0  0  0
   -3.0746    3.6645    7.6107 H   0  0  0  0  0  0  0  0  0  0  0  0
   -3.3619    2.9866    6.0314 H   0  0  0  0  0  0  0  0  0  0  0  0
   -2.0034    4.0888    6.2829 H   0  0  0  0  0  0  0  0  0  0  0  0
   -2.2925    1.2602    7.4083 H   0  0  0  0  0  0  0  0  0  0  0  0
   -1.4096    2.9474    9.0987 H   0  0  0  0  0  0  0  0  0  0  0  0
   -0.0428    3.2476    8.0367 H   0  0  0  0  0  0  0  0  0  0  0  0
   -0.2806    1.6672    8.7811 H   0  0  0  0  0  0  0  0  0  0  0  0
   -2.3162    0.4297    5.0828 H   0  0  0  0  0  0  0  0  0  0  0  0
   -2.2866    2.0915    4.4819 H   0  0  0  0  0  0  0  0  0  0  0  0
   -1.4346    0.6048    2.7703 H   0  0  0  0  0  0  0  0  0  0  0  0
   -0.2879    1.8219    3.2795 H   0  0  0  0  0  0  0  0  0  0  0  0
   -0.3955   -1.1169    4.0998 H   0  0  0  0  0  0  0  0  0  0  0  0
    2.4943   -1.8089    3.8082 H   0  0  0  0  0  0  0  0  0  0  0  0
    1.0670   -2.6016    3.1172 H   0  0  0  0  0  0  0  0  0  0  0  0
    3.1344   -3.0912    1.8168 H   0  0  0  0  0  0  0  0  0  0  0  0
    1.8757   -2.3066    0.8672 H   0  0  0  0  0  0  0  0  0  0  0  0
    4.3544   -0.9943    2.1158 H   0  0  0  0  0  0  0  0  0  0  0  0
    2.4719   -1.4516   -0.8754 H   0  0  0  0  0  0  0  0  0  0  0  0
    2.8593   -3.1663   -3.9559 H   0  0  0  0  0  0  0  0  0  0  0  0
    1.7106   -2.3601   -2.9056 H   0  0  0  0  0  0  0  0  0  0  0  0
    2.6075   -3.7493   -2.3207 H   0  0  0  0  0  0  0  0  0  0  0  0
    5.1447   -3.5459   -1.8708 H   0  0  0  0  0  0  0  0  0  0  0  0
    5.9906   -2.0506   -2.2629 H   0  0  0  0  0  0  0  0  0  0  0  0
    5.3235   -3.0399   -3.5388 H   0  0  0  0  0  0  0  0  0  0  0  0
    4.0183   -0.9151   -4.3522 H   0  0  0  0  0  0  0  0  0  0  0  0
    4.6127    0.0318   -2.9874 H   0  0  0  0  0  0  0  0  0  0  0  0
    2.8822   -0.1178   -3.2705 H   0  0  0  0  0  0  0  0  0  0  0  0
    3.6346    1.1299    1.1526 H   0  0  0  0  0  0  0  0  0  0  0  0
    2.1941    0.3973    0.4853 H   0  0  0  0  0  0  0  0  0  0  0  0
    1.5972    1.5601    2.4230 H   0  0  0  0  0  0  0  0  0  0  0  0
    2.8239    0.6932    3.4134 H   0  0  0  0  0  0  0  0  0  0  0  0
    1.5556   -0.7251    5.5651 H   0  0  0  0  0  0  0  0  0  0  0  0
    1.6350    0.9644    5.0796 H   0  0  0  0  0  0  0  0  0  0  0  0
    0.6541    0.7503    7.1929 H   0  0  0  0  0  0  0  0  0  0  0  0
   -0.6238   -0.3514    6.6665 H   0  0  0  0  0  0  0  0  0  0  0  0
    0.5722   -0.5620    1.9617 H   0  0  0  0  0  0  0  0  0  0  0  0
  1  2  1  0
  1 23  1  0
  1 24  1  0
  1 25  1  0
  2  3  1  0
  2  4  1  0
  2 26  1  0
  3 27  1  0
  3 28  1  0
  3 29  1  0
  4 22  1  0
  4  5  1  0
  5  6  1  0
  5 30  1  0
  5 31  1  0
  6  7  1  0
  6 32  1  0
  6 33  1  0
  7  8  1  0
  7 21  1  0
  7 34  1  0
  8 20  1  0
  8  9  1  0
  8 58  1  6
  9 10  1  0
  9 35  1  0
  9 36  1  0
 10 11  1  0
 10 37  1  0
 10 38  1  0
 11 12  1  0
 11 19  1  0
 11 39  1  1
 12 13  2  0
 12 14  1  0
 14 15  1  0
 14 40  1  0
 15 16  1  0
 15 17  1  0
 15 18  1  0
 16 41  1  0
 16 42  1  0
 16 43  1  0
 17 44  1  0
 17 45  1  0
 17 46  1  0
 18 47  1  0
 18 48  1  0
 18 49  1  0
 19 20  1  0
 19 50  1  0
 19 51  1  0
 20 52  1  0
 20 53  1  0
 21 22  1  0
 21 54  1  0
 21 55  1  0
 22 56  1  0
 22 57  1  0
M  CHG  1   8   1
M  END
>  <i_m_ct_stereo_status>  (365) 
1

>  <s_m_source_file>  (365) 
/var/tmp/pbs.5076255.sched01/tmp1cu33jom/138ve8n868x.sdf

>  <i_m_source_file_index>  (365) 
6

>  <i_lp_mmshare_version>  (365) 
48012

>  <i_f3d_flags>  (365) 
0

>  <s_epik_input>  (365) 
W0NIM11bQ0hdKFtDSDNdKU4xW0NIMl1bQ0gyXVtDSF0oW0NIMl1bQ0gyXTEpTjJbQ0gyXVtDSDJdW0NIXShbQ0gyXVtDSDJdMilDKD1PKVtOSF1DKFtDSDNdKShbQ0gzXSlbQ0gzXQ==

>  <s_epik_cmdline>  (365) 
J2VwaWtfcHl0aG9uJywgJy1waHQnLCAnMi4wJywgJy1waCcsICc3LjAnLCAnLXRuJywgJzgnLCAnLW1hJywgJzIwMCcsICctaW1hZScsICc8aW5maWxlLm1hZT4nLCAnLW9tYWUnLCAnPG91dGZpbGUubWFlPic=

>  <r_epik_Ionization_Penalty>  (365) 
1.31768

>  <r_epik_Ionization_Penalty_Charging>  (365) 
0.00280496

>  <r_epik_Ionization_Penalty_Neutral>  (365) 
1.31488

>  <r_epik_State_Penalty>  (365) 
1.60511

>  <r_epik_Charging_Adjusted_Penalty>  (365) 
1.60792

>  <i_epik_Tot_Q>  (365) 
1

>  <i_epik_Tot_abs_Q>  (365) 
1

>  <s_lp_Force_Field>  (365) 
OPLS3e

>  <r_lp_Energy>  (365) 
40.1118

>  <b_lp_Chiralities_Consistent>  (365) 
1

>  <s_lp_Variant>  (365) 
97:0-3

>  <s_i_glide_gridfile>  (365) 
pfpi4k_grid

>  <i_i_glide_lignum>  (365) 
6

>  <i_i_glide_rotatable_bonds>  (365) 
5

>  <r_i_docking_score>  (365) 
-4.08883

>  <r_i_glide_ligand_efficiency>  (365) 
-0.185856

>  <r_i_glide_ligand_efficiency_sa>  (365) 
-0.520776

>  <r_i_glide_ligand_efficiency_ln>  (365) 
-0.999459

>  <r_i_glide_gscore>  (365) 
-4.08883

>  <r_i_glide_lipo>  (365) 
-0.539089

>  <r_i_glide_hbond>  (365) 
-0.16

>  <r_i_glide_metal>  (365) 
-0

>  <r_i_glide_rewards>  (365) 
-1.29206

>  <r_i_glide_evdw>  (365) 
-30.4406

>  <r_i_glide_ecoul>  (365) 
-6.64623

>  <r_i_glide_erotb>  (365) 
0.576657

>  <r_i_glide_esite>  (365) 
-0.155372

>  <r_i_glide_emodel>  (365) 
-43.1604

>  <r_i_glide_energy>  (365) 
-37.0869

>  <r_i_glide_einternal>  (365) 
6.6472

>  <r_i_glide_intrahb_reward>  (365) 
-0

>  <i_i_glide_confnum>  (365) 
6

>  <i_i_glide_posenum>  (365) 
1

>  <r_i_glide_eff_state_penalty>  (365) 
0

>  <ligand_id>  (365) 
97

>  <original_smiles>  (365) 
CC(C)N1CCC(N2CCC(C(=O)NC(C)(C)C)CC2)CC1

>  <smiles>  (365) 
[H]N(C(=O)C1([H])C([H])([H])C([H])([H])[N+]([H])(C2([H])C([H])([H])C([H])([H])N(C([H])(C([H])([H])[H])C([H])([H])[H])C([H])([H])C2([H])[H])C([H])([H])C1([H])[H])C(C([H])([H])[H])(C([H])([H])[H])C([H])([H])[H]

$$$$
97:2:1
     RDKit          3D

 58 59  0  0  1  0  0  0  0  0999 V2000
   -2.3959    3.1585    6.2842 C   0  0  0  0  0  0  0  0  0  0  0  0
   -1.8596    1.7429    6.5547 C   0  0  0  0  0  0  0  0  0  0  0  0
   -1.1431    1.6655    7.9206 C   0  0  0  0  0  0  0  0  0  0  0  0
   -1.0435    1.2506    5.4285 N   0  0  0  0  0  0  0  0  0  0  0  0
   -0.8253   -0.1991    5.5223 C   0  0  0  0  0  0  0  0  0  0  0  0
   -0.0378   -0.7257    4.3221 C   0  0  0  0  0  0  0  0  0  0  0  0
    1.3168   -0.0005    4.1554 C   0  0  0  0  0  0  0  0  0  0  0  0
    2.0350   -0.4526    2.9309 N   0  0  2  0  0  0  0  0  0  0  0  0
    2.4058   -1.8934    2.9898 C   0  0  0  0  0  0  0  0  0  0  0  0
    2.9036   -2.3648    1.6222 C   0  0  0  0  0  0  0  0  0  0  0  0
    4.0973   -1.5165    1.1438 C   0  0  1  0  0  0  0  0  0  0  0  0
    4.5283   -1.8713   -0.2800 C   0  0  0  0  0  0  0  0  0  0  0  0
    5.7340   -1.9942   -0.5336 O   0  0  0  0  0  0  0  0  0  0  0  0
    3.5468   -1.9949   -1.2016 N   0  0  0  0  0  0  0  0  0  0  0  0
    3.6451   -2.2662   -2.6343 C   0  0  0  0  0  0  0  0  0  0  0  0
    3.8312   -0.9263   -3.3566 C   0  0  0  0  0  0  0  0  0  0  0  0
    2.3177   -2.9001   -3.0899 C   0  0  0  0  0  0  0  0  0  0  0  0
    4.7971   -3.2362   -2.9789 C   0  0  0  0  0  0  0  0  0  0  0  0
    3.7671   -0.0215    1.2252 C   0  0  0  0  0  0  0  0  0  0  0  0
    3.2169    0.3829    2.5867 C   0  0  0  0  0  0  0  0  0  0  0  0
    1.0344    1.5150    4.1173 C   0  0  0  0  0  0  0  0  0  0  0  0
    0.2421    1.9522    5.3362 C   0  0  0  0  0  0  0  0  0  0  0  0
   -2.9472    3.5236    7.1521 H   0  0  0  0  0  0  0  0  0  0  0  0
   -3.0862    3.1647    5.4408 H   0  0  0  0  0  0  0  0  0  0  0  0
   -1.6099    3.8842    6.0797 H   0  0  0  0  0  0  0  0  0  0  0  0
   -2.7402    1.1023    6.6077 H   0  0  0  0  0  0  0  0  0  0  0  0
   -1.7774    2.0669    8.7126 H   0  0  0  0  0  0  0  0  0  0  0  0
   -0.2044    2.2169    7.9225 H   0  0  0  0  0  0  0  0  0  0  0  0
   -0.9195    0.6400    8.2100 H   0  0  0  0  0  0  0  0  0  0  0  0
   -0.2639   -0.4462    6.4266 H   0  0  0  0  0  0  0  0  0  0  0  0
   -1.7792   -0.7213    5.5751 H   0  0  0  0  0  0  0  0  0  0  0  0
    0.0893   -1.7938    4.4865 H   0  0  0  0  0  0  0  0  0  0  0  0
   -0.6262   -0.6106    3.4090 H   0  0  0  0  0  0  0  0  0  0  0  0
    1.9395   -0.2084    5.0308 H   0  0  0  0  0  0  0  0  0  0  0  0
    3.1755   -2.0613    3.7605 H   0  0  0  0  0  0  0  0  0  0  0  0
    1.5508   -2.5306    3.2202 H   0  0  0  0  0  0  0  0  0  0  0  0
    3.2098   -3.4103    1.6833 H   0  0  0  0  0  0  0  0  0  0  0  0
    2.0652   -2.3061    0.9225 H   0  0  0  0  0  0  0  0  0  0  0  0
    4.9278   -1.6955    1.8345 H   0  0  0  0  0  0  0  0  0  0  0  0
    2.6033   -1.7687   -0.8863 H   0  0  0  0  0  0  0  0  0  0  0  0
    3.8949   -1.0720   -4.4316 H   0  0  0  0  0  0  0  0  0  0  0  0
    4.7382   -0.4232   -3.0287 H   0  0  0  0  0  0  0  0  0  0  0  0
    2.9973   -0.2512   -3.1676 H   0  0  0  0  0  0  0  0  0  0  0  0
    1.4671   -2.2570   -2.8737 H   0  0  0  0  0  0  0  0  0  0  0  0
    2.1342   -3.8507   -2.5931 H   0  0  0  0  0  0  0  0  0  0  0  0
    2.3225   -3.0823   -4.1650 H   0  0  0  0  0  0  0  0  0  0  0  0
    4.8071   -3.4691   -4.0399 H   0  0  0  0  0  0  0  0  0  0  0  0
    4.6705   -4.1799   -2.4450 H   0  0  0  0  0  0  0  0  0  0  0  0
    5.7751   -2.8338   -2.7133 H   0  0  0  0  0  0  0  0  0  0  0  0
    4.6457    0.5679    0.9501 H   0  0  0  0  0  0  0  0  0  0  0  0
    3.0022    0.2227    0.4809 H   0  0  0  0  0  0  0  0  0  0  0  0
    2.9414    1.4395    2.4704 H   0  0  0  0  0  0  0  0  0  0  0  0
    3.9935    0.2978    3.3566 H   0  0  0  0  0  0  0  0  0  0  0  0
    1.9563    2.0853    4.1622 H   0  0  0  0  0  0  0  0  0  0  0  0
    0.5238    1.7986    3.1887 H   0  0  0  0  0  0  0  0  0  0  0  0
    0.0954    3.0264    5.2456 H   0  0  0  0  0  0  0  0  0  0  0  0
    0.8460    1.7570    6.2236 H   0  0  0  0  0  0  0  0  0  0  0  0
    1.3878   -0.3427    2.1612 H   0  0  0  0  0  0  0  0  0  0  0  0
  1  2  1  0
  1 23  1  0
  1 24  1  0
  1 25  1  0
  2  3  1  0
  2  4  1  0
  2 26  1  0
  3 27  1  0
  3 28  1  0
  3 29  1  0
  4 22  1  0
  4  5  1  0
  5  6  1  0
  5 30  1  0
  5 31  1  0
  6  7  1  0
  6 32  1  0
  6 33  1  0
  7  8  1  0
  7 21  1  0
  7 34  1  0
  8 20  1  0
  8  9  1  0
  8 58  1  6
  9 10  1  0
  9 35  1  0
  9 36  1  0
 10 11  1  0
 10 37  1  0
 10 38  1  0
 11 12  1  0
 11 19  1  0
 11 39  1  1
 12 13  2  0
 12 14  1  0
 14 15  1  0
 14 40  1  0
 15 16  1  0
 15 17  1  0
 15 18  1  0
 16 41  1  0
 16 42  1  0
 16 43  1  0
 17 44  1  0
 17 45  1  0
 17 46  1  0
 18 47  1  0
 18 48  1  0
 18 49  1  0
 19 20  1  0
 19 50  1  0
 19 51  1  0
 20 52  1  0
 20 53  1  0
 21 22  1  0
 21 54  1  0
 21 55  1  0
 22 56  1  0
 22 57  1  0
M  CHG  1   8   1
M  END
>  <i_m_ct_stereo_status>  (366) 
1

>  <s_m_source_file>  (366) 
/var/tmp/pbs.5076255.sched01/tmp1cu33jom/138ve8n868x.sdf

>  <i_m_source_file_index>  (366) 
6

>  <i_lp_mmshare_version>  (366) 
48012

>  <i_f3d_flags>  (366) 
0

>  <s_epik_input>  (366) 
W0NIM11bQ0hdKFtDSDNdKU4xW0NIMl1bQ0gyXVtDSF0oW0NIMl1bQ0gyXTEpTjJbQ0gyXVtDSDJdW0NIXShbQ0gyXVtDSDJdMilDKD1PKVtOSF1DKFtDSDNdKShbQ0gzXSlbQ0gzXQ==

>  <s_epik_cmdline>  (366) 
J2VwaWtfcHl0aG9uJywgJy1waHQnLCAnMi4wJywgJy1waCcsICc3LjAnLCAnLXRuJywgJzgnLCAnLW1hJywgJzIwMCcsICctaW1hZScsICc8aW5maWxlLm1hZT4nLCAnLW9tYWUnLCAnPG91dGZpbGUubWFlPic=

>  <r_epik_Ionization_Penalty>  (366) 
1.31768

>  <r_epik_Ionization_Penalty_Charging>  (366) 
0.00280496

>  <r_epik_Ionization_Penalty_Neutral>  (366) 
1.31488

>  <r_epik_State_Penalty>  (366) 
1.60511

>  <r_epik_Charging_Adjusted_Penalty>  (366) 
1.60792

>  <i_epik_Tot_Q>  (366) 
1

>  <i_epik_Tot_abs_Q>  (366) 
1

>  <s_lp_Force_Field>  (366) 
OPLS3e

>  <r_lp_Energy>  (366) 
40.1118

>  <b_lp_Chiralities_Consistent>  (366) 
1

>  <s_lp_Variant>  (366) 
97:0-3

>  <s_i_glide_gridfile>  (366) 
pfpi4k_grid

>  <i_i_glide_lignum>  (366) 
6

>  <i_i_glide_rotatable_bonds>  (366) 
5

>  <r_i_docking_score>  (366) 
-3.90876

>  <r_i_glide_ligand_efficiency>  (366) 
-0.177671

>  <r_i_glide_ligand_efficiency_sa>  (366) 
-0.497841

>  <r_i_glide_ligand_efficiency_ln>  (366) 
-0.955444

>  <r_i_glide_gscore>  (366) 
-3.90876

>  <r_i_glide_lipo>  (366) 
-0.634917

>  <r_i_glide_hbond>  (366) 
-0.16

>  <r_i_glide_metal>  (366) 
-0

>  <r_i_glide_rewards>  (366) 
-1.29206

>  <r_i_glide_evdw>  (366) 
-30.8245

>  <r_i_glide_ecoul>  (366) 
-5.02486

>  <r_i_glide_erotb>  (366) 
0.576657

>  <r_i_glide_esite>  (366) 
-0.103492

>  <r_i_glide_emodel>  (366) 
-40.4779

>  <r_i_glide_energy>  (366) 
-35.8493

>  <r_i_glide_einternal>  (366) 
8.07827

>  <r_i_glide_intrahb_reward>  (366) 
-0

>  <i_i_glide_confnum>  (366) 
4

>  <i_i_glide_posenum>  (366) 
22

>  <r_i_glide_eff_state_penalty>  (366) 
0

>  <ligand_id>  (366) 
97

>  <original_smiles>  (366) 
CC(C)N1CCC(N2CCC(C(=O)NC(C)(C)C)CC2)CC1

>  <smiles>  (366) 
[H]N(C(=O)C1([H])C([H])([H])C([H])([H])[N+]([H])(C2([H])C([H])([H])C([H])([H])N(C([H])(C([H])([H])[H])C([H])([H])[H])C([H])([H])C2([H])[H])C([H])([H])C1([H])[H])C(C([H])([H])[H])(C([H])([H])[H])C([H])([H])[H]

$$$$
97:2:2
     RDKit          3D

 58 59  0  0  1  0  0  0  0  0999 V2000
   -0.2550    2.8499    7.0898 C   0  0  0  0  0  0  0  0  0  0  0  0
   -0.7153    3.2203    5.6647 C   0  0  0  0  0  0  0  0  0  0  0  0
   -2.2459    3.1994    5.5533 C   0  0  0  0  0  0  0  0  0  0  0  0
   -0.0888    2.4019    4.6075 N   0  0  0  0  0  0  0  0  0  0  0  0
   -0.3149    0.9637    4.7879 C   0  0  0  0  0  0  0  0  0  0  0  0
    0.2623    0.1604    3.6283 C   0  0  0  0  0  0  0  0  0  0  0  0
    1.7832    0.3939    3.4903 C   0  0  0  0  0  0  0  0  0  0  0  0
    2.2979   -0.3513    2.3267 N   0  0  2  0  0  0  0  0  0  0  0  0
    2.2734   -1.8439    2.5523 C   0  0  0  0  0  0  0  0  0  0  0  0
    2.6046   -2.5718    1.2526 C   0  0  0  0  0  0  0  0  0  0  0  0
    3.9850   -2.1461    0.7117 C   0  0  1  0  0  0  0  0  0  0  0  0
    4.2516   -2.8004   -0.6411 C   0  0  0  0  0  0  0  0  0  0  0  0
    5.1075   -3.6927   -0.7119 O   0  0  0  0  0  0  0  0  0  0  0  0
    3.5392   -2.3267   -1.6960 N   0  0  0  0  0  0  0  0  0  0  0  0
    3.6632   -2.5770   -3.1368 C   0  0  0  0  0  0  0  0  0  0  0  0
    3.8142   -1.2202   -3.8352 C   0  0  0  0  0  0  0  0  0  0  0  0
    2.3735   -3.2415   -3.6326 C   0  0  0  0  0  0  0  0  0  0  0  0
    4.8702   -3.4703   -3.4827 C   0  0  0  0  0  0  0  0  0  0  0  0
    4.0802   -0.6191    0.6195 C   0  0  0  0  0  0  0  0  0  0  0  0
    3.6991    0.0701    1.9247 C   0  0  0  0  0  0  0  0  0  0  0  0
    2.0086    1.9253    3.3726 C   0  0  0  0  0  0  0  0  0  0  0  0
    1.3455    2.6911    4.5226 C   0  0  0  0  0  0  0  0  0  0  0  0
   -0.7759    3.4544    7.8340 H   0  0  0  0  0  0  0  0  0  0  0  0
    0.8044    3.0513    7.2402 H   0  0  0  0  0  0  0  0  0  0  0  0
   -0.4292    1.8011    7.3240 H   0  0  0  0  0  0  0  0  0  0  0  0
   -0.4194    4.2509    5.4799 H   0  0  0  0  0  0  0  0  0  0  0  0
   -2.6974    3.7583    6.3747 H   0  0  0  0  0  0  0  0  0  0  0  0
   -2.6481    2.1903    5.5911 H   0  0  0  0  0  0  0  0  0  0  0  0
   -2.5806    3.6638    4.6263 H   0  0  0  0  0  0  0  0  0  0  0  0
    0.1597    0.6133    5.7080 H   0  0  0  0  0  0  0  0  0  0  0  0
   -1.3768    0.7329    4.8287 H   0  0  0  0  0  0  0  0  0  0  0  0
    0.0392   -0.8737    3.8662 H   0  0  0  0  0  0  0  0  0  0  0  0
   -0.2499    0.3907    2.6918 H   0  0  0  0  0  0  0  0  0  0  0  0
    2.2755    0.0635    4.4052 H   0  0  0  0  0  0  0  0  0  0  0  0
    2.9644   -2.1254    3.3428 H   0  0  0  0  0  0  0  0  0  0  0  0
    1.2755   -2.1769    2.8315 H   0  0  0  0  0  0  0  0  0  0  0  0
    2.6065   -3.6546    1.4269 H   0  0  0  0  0  0  0  0  0  0  0  0
    1.8275   -2.3704    0.5150 H   0  0  0  0  0  0  0  0  0  0  0  0
    4.7454   -2.4835    1.4320 H   0  0  0  0  0  0  0  0  0  0  0  0
    2.8134   -1.6534   -1.4588 H   0  0  0  0  0  0  0  0  0  0  0  0
    3.9062   -1.3475   -4.9114 H   0  0  0  0  0  0  0  0  0  0  0  0
    4.6959   -0.6883   -3.4897 H   0  0  0  0  0  0  0  0  0  0  0  0
    2.9542   -0.5729   -3.6658 H   0  0  0  0  0  0  0  0  0  0  0  0
    1.4792   -2.6501   -3.4294 H   0  0  0  0  0  0  0  0  0  0  0  0
    2.2172   -4.2075   -3.1546 H   0  0  0  0  0  0  0  0  0  0  0  0
    2.4108   -3.4148   -4.7097 H   0  0  0  0  0  0  0  0  0  0  0  0
    4.9730   -3.6236   -4.5505 H   0  0  0  0  0  0  0  0  0  0  0  0
    4.7680   -4.4566   -3.0329 H   0  0  0  0  0  0  0  0  0  0  0  0
    5.7987   -3.0263   -3.1230 H   0  0  0  0  0  0  0  0  0  0  0  0
    5.0932   -0.3165    0.3124 H   0  0  0  0  0  0  0  0  0  0  0  0
    3.4219   -0.2776   -0.1673 H   0  0  0  0  0  0  0  0  0  0  0  0
    3.6893    1.1272    1.6876 H   0  0  0  0  0  0  0  0  0  0  0  0
    4.4034   -0.1479    2.7197 H   0  0  0  0  0  0  0  0  0  0  0  0
    3.0687    2.1709    3.4223 H   0  0  0  0  0  0  0  0  0  0  0  0
    1.6303    2.2963    2.4200 H   0  0  0  0  0  0  0  0  0  0  0  0
    1.5090    3.7595    4.3692 H   0  0  0  0  0  0  0  0  0  0  0  0
    1.8529    2.4159    5.4469 H   0  0  0  0  0  0  0  0  0  0  0  0
    1.7267   -0.1667    1.5492 H   0  0  0  0  0  0  0  0  0  0  0  0
  1  2  1  0
  1 23  1  0
  1 24  1  0
  1 25  1  0
  2  3  1  0
  2  4  1  0
  2 26  1  0
  3 27  1  0
  3 28  1  0
  3 29  1  0
  4 22  1  0
  4  5  1  0
  5  6  1  0
  5 30  1  0
  5 31  1  0
  6  7  1  0
  6 32  1  0
  6 33  1  0
  7  8  1  0
  7 21  1  0
  7 34  1  0
  8 20  1  0
  8  9  1  0
  8 58  1  6
  9 10  1  0
  9 35  1  0
  9 36  1  0
 10 11  1  0
 10 37  1  0
 10 38  1  0
 11 12  1  0
 11 19  1  0
 11 39  1  1
 12 13  2  0
 12 14  1  0
 14 15  1  0
 14 40  1  0
 15 16  1  0
 15 17  1  0
 15 18  1  0
 16 41  1  0
 16 42  1  0
 16 43  1  0
 17 44  1  0
 17 45  1  0
 17 46  1  0
 18 47  1  0
 18 48  1  0
 18 49  1  0
 19 20  1  0
 19 50  1  0
 19 51  1  0
 20 52  1  0
 20 53  1  0
 21 22  1  0
 21 54  1  0
 21 55  1  0
 22 56  1  0
 22 57  1  0
M  CHG  1   8   1
M  END
>  <i_m_ct_stereo_status>  (367) 
1

>  <s_m_source_file>  (367) 
/var/tmp/pbs.5076255.sched01/tmp1cu33jom/138ve8n868x.sdf

>  <i_m_source_file_index>  (367) 
6

>  <i_lp_mmshare_version>  (367) 
48012

>  <i_f3d_flags>  (367) 
0

>  <s_epik_input>  (367) 
W0NIM11bQ0hdKFtDSDNdKU4xW0NIMl1bQ0gyXVtDSF0oW0NIMl1bQ0gyXTEpTjJbQ0gyXVtDSDJdW0NIXShbQ0gyXVtDSDJdMilDKD1PKVtOSF1DKFtDSDNdKShbQ0gzXSlbQ0gzXQ==

>  <s_epik_cmdline>  (367) 
J2VwaWtfcHl0aG9uJywgJy1waHQnLCAnMi4wJywgJy1waCcsICc3LjAnLCAnLXRuJywgJzgnLCAnLW1hJywgJzIwMCcsICctaW1hZScsICc8aW5maWxlLm1hZT4nLCAnLW9tYWUnLCAnPG91dGZpbGUubWFlPic=

>  <r_epik_Ionization_Penalty>  (367) 
1.31768

>  <r_epik_Ionization_Penalty_Charging>  (367) 
0.00280496

>  <r_epik_Ionization_Penalty_Neutral>  (367) 
1.31488

>  <r_epik_State_Penalty>  (367) 
1.60511

>  <r_epik_Charging_Adjusted_Penalty>  (367) 
1.60792

>  <i_epik_Tot_Q>  (367) 
1

>  <i_epik_Tot_abs_Q>  (367) 
1

>  <s_lp_Force_Field>  (367) 
OPLS3e

>  <r_lp_Energy>  (367) 
40.1118

>  <b_lp_Chiralities_Consistent>  (367) 
1

>  <s_lp_Variant>  (367) 
97:0-3

>  <s_i_glide_gridfile>  (367) 
pfpi4k_grid

>  <i_i_glide_lignum>  (367) 
6

>  <i_i_glide_rotatable_bonds>  (367) 
5

>  <r_i_docking_score>  (367) 
-3.73107

>  <r_i_glide_ligand_efficiency>  (367) 
-0.169594

>  <r_i_glide_ligand_efficiency_sa>  (367) 
-0.47521

>  <r_i_glide_ligand_efficiency_ln>  (367) 
-0.91201

>  <r_i_glide_gscore>  (367) 
-3.73107

>  <r_i_glide_lipo>  (367) 
-0.798609

>  <r_i_glide_hbond>  (367) 
-0.0631443

>  <r_i_glide_metal>  (367) 
-0

>  <r_i_glide_rewards>  (367) 
-1.29206

>  <r_i_glide_evdw>  (367) 
-29.1095

>  <r_i_glide_ecoul>  (367) 
-4.13843

>  <r_i_glide_erotb>  (367) 
0.576657

>  <r_i_glide_esite>  (367) 
-0.0776756

>  <r_i_glide_emodel>  (367) 
-37.5274

>  <r_i_glide_energy>  (367) 
-33.2479

>  <r_i_glide_einternal>  (367) 
8.49681

>  <r_i_glide_intrahb_reward>  (367) 
-0

>  <i_i_glide_confnum>  (367) 
4

>  <i_i_glide_posenum>  (367) 
32

>  <r_i_glide_eff_state_penalty>  (367) 
0

>  <ligand_id>  (367) 
97

>  <original_smiles>  (367) 
CC(C)N1CCC(N2CCC(C(=O)NC(C)(C)C)CC2)CC1

>  <smiles>  (367) 
[H]N(C(=O)C1([H])C([H])([H])C([H])([H])[N+]([H])(C2([H])C([H])([H])C([H])([H])N(C([H])(C([H])([H])[H])C([H])([H])[H])C([H])([H])C2([H])[H])C([H])([H])C1([H])[H])C(C([H])([H])[H])(C([H])([H])[H])C([H])([H])[H]

$$$$
98:0:0
     RDKit          3D

 59 64  0  0  1  0  0  0  0  0999 V2000
    7.6309   -3.4130   -1.6516 C   0  0  0  0  0  0  0  0  0  0  0  0
    7.0927   -2.2282   -1.1007 O   0  0  0  0  0  0  0  0  0  0  0  0
    5.9682   -2.3127   -0.2028 C   0  0  2  0  0  0  0  0  0  0  0  0
    5.5932   -3.6573    0.4565 C   0  0  2  0  0  0  0  0  0  0  0  0
    4.1429   -3.2425    0.2645 C   0  0  1  0  0  0  0  0  0  0  0  0
    3.4369   -2.8073    1.5293 C   0  0  0  0  0  0  0  0  0  0  0  0
    2.9908   -3.6654    2.5026 C   0  0  0  0  0  0  0  0  0  0  0  0
    2.2740   -3.2432    3.7670 C   0  0  1  0  0  0  0  0  0  0  0  0
    1.7872   -1.8043    3.8563 C   0  0  0  0  0  0  0  0  0  0  0  0
    1.1695   -4.2914    3.8372 C   0  0  0  0  0  0  0  0  0  0  0  0
    1.8902   -5.5600    3.3855 C   0  0  1  0  0  0  0  0  0  0  0  0
    2.1372   -6.3635    4.5294 O   0  0  0  0  0  0  0  0  0  0  0  0
    1.2014   -6.2306    2.3184 O   0  0  0  0  0  0  0  0  0  0  0  0
    2.2378   -5.9224    1.3732 C   0  0  2  0  0  0  0  0  0  0  0  0
    1.7382   -5.2141    0.2807 O   0  0  0  0  0  0  0  0  0  0  0  0
    2.8515   -7.1200    0.8987 O   0  0  0  0  0  0  0  0  0  0  0  0
    3.6826   -7.9280    1.5764 C   0  0  0  0  0  0  0  0  0  0  0  0
    3.6255   -9.1461    1.4824 O   0  0  0  0  0  0  0  0  0  0  0  0
    4.7625   -7.2188    2.3760 C   0  0  1  0  0  0  0  0  0  0  0  0
    5.8962   -6.6063    1.5586 C   0  0  0  0  0  0  0  0  0  0  0  0
    5.8639   -5.3694    2.4844 C   0  0  1  0  0  0  0  0  0  0  0  0
    6.7978   -5.5101    3.7195 C   0  0  0  0  0  0  0  0  0  0  0  0
    6.1736   -3.9906    1.8456 C   0  0  1  0  0  0  0  0  0  0  0  0
    7.5296   -4.0904    1.5265 O   0  0  0  0  0  0  0  0  0  0  0  0
    4.4305   -5.8145    2.8829 C   0  0  1  0  0  0  0  0  0  0  0  0
    3.0747   -5.1889    2.4565 C   0  0  1  0  0  0  0  0  0  0  0  0
    4.5651   -2.2047   -0.8121 C   0  0  0  0  0  0  0  0  0  0  0  0
    3.9628   -0.8077   -0.7455 C   0  0  0  0  0  0  0  0  0  0  0  0
    4.3638   -2.6776   -2.2557 C   0  0  0  0  0  0  0  0  0  0  0  0
    8.4810   -3.2863   -2.2960 H   0  0  0  0  0  0  0  0  0  0  0  0
    6.7840   -3.7941   -2.2436 H   0  0  0  0  0  0  0  0  0  0  0  0
    7.9198   -4.1005   -0.8685 H   0  0  0  0  0  0  0  0  0  0  0  0
    6.0933   -1.5566    0.5792 H   0  0  0  0  0  0  0  0  0  0  0  0
    5.7172   -4.4989   -0.2342 H   0  0  0  0  0  0  0  0  0  0  0  0
    3.6387   -4.0438   -0.2380 H   0  0  0  0  0  0  0  0  0  0  0  0
    3.3036   -1.7501    1.6900 H   0  0  0  0  0  0  0  0  0  0  0  0
    2.9664   -3.4440    4.5930 H   0  0  0  0  0  0  0  0  0  0  0  0
    2.6246   -1.1089    3.8460 H   0  0  0  0  0  0  0  0  0  0  0  0
    1.2779   -1.6605    4.8075 H   0  0  0  0  0  0  0  0  0  0  0  0
    1.0913   -1.5288    3.0590 H   0  0  0  0  0  0  0  0  0  0  0  0
    0.7136   -4.3949    4.8290 H   0  0  0  0  0  0  0  0  0  0  0  0
    0.4025   -4.0234    3.1325 H   0  0  0  0  0  0  0  0  0  0  0  0
    2.3694   -7.2355    4.2154 H   0  0  0  0  0  0  0  0  0  0  0  0
    2.4433   -5.1911   -0.3712 H   0  0  0  0  0  0  0  0  0  0  0  0
    5.1802   -7.8423    3.1886 H   0  0  0  0  0  0  0  0  0  0  0  0
    6.8187   -7.1842    1.6067 H   0  0  0  0  0  0  0  0  0  0  0  0
    5.6129   -6.4326    0.5149 H   0  0  0  0  0  0  0  0  0  0  0  0
    6.5945   -4.7097    4.4296 H   0  0  0  0  0  0  0  0  0  0  0  0
    7.8581   -5.5402    3.4667 H   0  0  0  0  0  0  0  0  0  0  0  0
    6.6154   -6.4452    4.2647 H   0  0  0  0  0  0  0  0  0  0  0  0
    6.0086   -3.1963    2.6005 H   0  0  0  0  0  0  0  0  0  0  0  0
    8.0333   -4.0886    2.3256 H   0  0  0  0  0  0  0  0  0  0  0  0
    4.4419   -5.8399    3.9648 H   0  0  0  0  0  0  0  0  0  0  0  0
    2.8981   -0.8811   -0.9132 H   0  0  0  0  0  0  0  0  0  0  0  0
    4.3714   -0.1805   -1.5386 H   0  0  0  0  0  0  0  0  0  0  0  0
    4.1257   -0.3008    0.2086 H   0  0  0  0  0  0  0  0  0  0  0  0
    3.3184   -2.6102   -2.5520 H   0  0  0  0  0  0  0  0  0  0  0  0
    4.7133   -3.7169   -2.3953 H   0  0  0  0  0  0  0  0  0  0  0  0
    4.9303   -2.0526   -2.9465 H   0  0  0  0  0  0  0  0  0  0  0  0
  1  2  1  0
  1 30  1  0
  1 31  1  0
  1 32  1  0
  2  3  1  0
  3 27  1  0
  3  4  1  0
  3 33  1  1
  4 23  1  0
  4  5  1  0
  4 34  1  6
  5  6  1  0
  5 27  1  0
  5 35  1  6
  6  7  2  3
  6 36  1  0
 26  7  1  6
  7  8  1  0
  8  9  1  0
  8 10  1  0
  8 37  1  1
  9 38  1  0
  9 39  1  0
  9 40  1  0
 10 11  1  0
 10 41  1  0
 10 42  1  0
 11 26  1  0
 11 12  1  1
 11 13  1  0
 12 43  1  0
 13 14  1  0
 14 26  1  0
 14 15  1  6
 14 16  1  0
 15 44  1  0
 16 17  1  0
 17 18  2  0
 17 19  1  0
 19 25  1  0
 19 20  1  0
 19 45  1  1
 20 21  1  0
 20 46  1  0
 20 47  1  0
 21 22  1  1
 21 23  1  0
 21 25  1  0
 22 48  1  0
 22 49  1  0
 22 50  1  0
 23 24  1  0
 23 51  1  1
 24 52  1  0
 25 26  1  0
 25 53  1  1
 27 28  1  0
 27 29  1  0
 28 54  1  0
 28 55  1  0
 28 56  1  0
 29 57  1  0
 29 58  1  0
 29 59  1  0
M  END
>  <i_m_ct_stereo_status>  (368) 
1

>  <s_m_source_file>  (368) 
/var/tmp/pbs.5076255.sched01/tmp1cu33jom/138ve8n868x.sdf

>  <i_m_source_file_index>  (368) 
7

>  <i_lp_mmshare_version>  (368) 
48012

>  <i_f3d_flags>  (368) 
0

>  <s_epik_input>  (368) 
W0NAXTEyM0MvND1bQ0hdXFtDQEBIXTVbQ0BASF0oW0NAQEhdKE9bQ0gzXSlDNShbQ0gzXSlbQ0gzXSlbQ0BIXShbT0hdKVtDQEBdNihbQ0gzXSlbQ0BASF0zW0NASF0oW0NIMl02KUMoPU8pT1tDQEBdMihbT0hdKU9bQ0BdMShbT0hdKVtDSDJdW0NAQEhdNFtDSDNd

>  <s_epik_cmdline>  (368) 
J2VwaWtfcHl0aG9uJywgJy1waHQnLCAnMi4wJywgJy1waCcsICc3LjAnLCAnLXRuJywgJzgnLCAnLW1hJywgJzIwMCcsICctaW1hZScsICc8aW5maWxlLm1hZT4nLCAnLW9tYWUnLCAnPG91dGZpbGUubWFlPic=

>  <r_epik_Ionization_Penalty>  (368) 
0.00322515

>  <r_epik_Ionization_Penalty_Charging>  (368) 
0

>  <r_epik_Ionization_Penalty_Neutral>  (368) 
0.00322515

>  <r_epik_State_Penalty>  (368) 
0.00227213

>  <r_epik_Charging_Adjusted_Penalty>  (368) 
0.00227213

>  <i_epik_Tot_Q>  (368) 
0

>  <i_epik_Tot_abs_Q>  (368) 
0

>  <s_epik_Chemistry_Notes>  (368) 
This compound has an ester and may undergo hydrolysis at high or low pH.

>  <s_lp_Force_Field>  (368) 
OPLS3e

>  <r_lp_Energy>  (368) 
66.9021

>  <b_lp_Chiralities_Consistent>  (368) 
1

>  <s_lp_Variant>  (368) 
98:0-1

>  <s_i_glide_gridfile>  (368) 
pfpi4k_grid

>  <i_i_glide_lignum>  (368) 
7

>  <i_i_glide_rotatable_bonds>  (368) 
4

>  <r_i_docking_score>  (368) 
-2.82664

>  <r_i_glide_ligand_efficiency>  (368) 
-0.0974703

>  <r_i_glide_ligand_efficiency_sa>  (368) 
-0.29946

>  <r_i_glide_ligand_efficiency_ln>  (368) 
-0.647228

>  <r_i_glide_gscore>  (368) 
-2.82664

>  <r_i_glide_lipo>  (368) 
-0.266975

>  <r_i_glide_hbond>  (368) 
-0.16

>  <r_i_glide_metal>  (368) 
-0

>  <r_i_glide_rewards>  (368) 
-0.637709

>  <r_i_glide_evdw>  (368) 
-11.7031

>  <r_i_glide_ecoul>  (368) 
-7.62181

>  <r_i_glide_erotb>  (368) 
0

>  <r_i_glide_esite>  (368) 
-0.0335294

>  <r_i_glide_emodel>  (368) 
-14.0918

>  <r_i_glide_energy>  (368) 
-19.3249

>  <r_i_glide_einternal>  (368) 
15.6448

>  <r_i_glide_intrahb_reward>  (368) 
-0

>  <i_i_glide_confnum>  (368) 
2

>  <i_i_glide_posenum>  (368) 
19

>  <r_i_glide_eff_state_penalty>  (368) 
0

>  <ligand_id>  (368) 
98

>  <original_smiles>  (368) 
COC1C2C(C=C3C(C)CC4(O)OC5(O)OC(=O)C6CC(C)(C2O)C6C345)C1(C)C

>  <smiles>  (368) 
[H]OC12OC(=O)C3([H])C([H])([H])C4(C([H])([H])[H])C([H])(O[H])C5([H])C([H])(OC([H])([H])[H])C(C([H])([H])[H])(C([H])([H])[H])C5([H])C([H])=C5C([H])(C([H])([H])[H])C([H])([H])C(O[H])(O1)C52C34[H]

$$$$
98:0:1
     RDKit          3D

 59 64  0  0  1  0  0  0  0  0999 V2000
    8.6499   -3.5492   -0.8463 C   0  0  0  0  0  0  0  0  0  0  0  0
    7.3103   -3.3833   -1.3166 O   0  0  0  0  0  0  0  0  0  0  0  0
    6.2881   -3.1527   -0.3401 C   0  0  2  0  0  0  0  0  0  0  0  0
    5.8170   -4.3806    0.4547 C   0  0  2  0  0  0  0  0  0  0  0  0
    4.3890   -3.8811    0.2443 C   0  0  1  0  0  0  0  0  0  0  0  0
    3.7734   -3.1970    1.4559 C   0  0  0  0  0  0  0  0  0  0  0  0
    3.2534   -3.8519    2.5265 C   0  0  0  0  0  0  0  0  0  0  0  0
    2.6304   -3.1987    3.7435 C   0  0  1  0  0  0  0  0  0  0  0  0
    2.3315   -1.6952    3.6854 C   0  0  0  0  0  0  0  0  0  0  0  0
    1.4165   -4.0802    3.9864 C   0  0  0  0  0  0  0  0  0  0  0  0
    1.9494   -5.4720    3.6762 C   0  0  1  0  0  0  0  0  0  0  0  0
    2.1794   -6.1234    4.9134 O   0  0  0  0  0  0  0  0  0  0  0  0
    1.1452   -6.2397    2.7558 O   0  0  0  0  0  0  0  0  0  0  0  0
    2.1587   -6.1473    1.7130 C   0  0  2  0  0  0  0  0  0  0  0  0
    1.6192   -5.4984    0.5936 O   0  0  0  0  0  0  0  0  0  0  0  0
    2.6324   -7.4166    1.3056 O   0  0  0  0  0  0  0  0  0  0  0  0
    3.3868   -8.2415    2.1211 C   0  0  0  0  0  0  0  0  0  0  0  0
    3.1145   -9.4367    2.1696 O   0  0  0  0  0  0  0  0  0  0  0  0
    4.5765   -7.5747    2.7952 C   0  0  1  0  0  0  0  0  0  0  0  0
    5.7372   -7.1884    1.8980 C   0  0  0  0  0  0  0  0  0  0  0  0
    5.9131   -5.8747    2.6843 C   0  0  1  0  0  0  0  0  0  0  0  0
    6.8596   -5.9928    3.9098 C   0  0  0  0  0  0  0  0  0  0  0  0
    6.3806   -4.6128    1.8604 C   0  0  1  0  0  0  0  0  0  0  0  0
    7.7536   -4.7654    1.6879 O   0  0  0  0  0  0  0  0  0  0  0  0
    4.4236   -6.0896    3.1343 C   0  0  1  0  0  0  0  0  0  0  0  0
    3.1305   -5.3717    2.6729 C   0  0  1  0  0  0  0  0  0  0  0  0
    4.8834   -2.9905   -0.9448 C   0  0  0  0  0  0  0  0  0  0  0  0
    4.3799   -1.5460   -1.0659 C   0  0  0  0  0  0  0  0  0  0  0  0
    4.6563   -3.6400   -2.3228 C   0  0  0  0  0  0  0  0  0  0  0  0
    9.3591   -3.5656   -1.6994 H   0  0  0  0  0  0  0  0  0  0  0  0
    8.7748   -4.4539   -0.2843 H   0  0  0  0  0  0  0  0  0  0  0  0
    8.9107   -2.6900   -0.2276 H   0  0  0  0  0  0  0  0  0  0  0  0
    6.5100   -2.3305    0.3435 H   0  0  0  0  0  0  0  0  0  0  0  0
    5.9553   -5.2590   -0.1504 H   0  0  0  0  0  0  0  0  0  0  0  0
    3.7647   -4.6630   -0.1566 H   0  0  0  0  0  0  0  0  0  0  0  0
    3.7717   -2.1240    1.4747 H   0  0  0  0  0  0  0  0  0  0  0  0
    3.3148   -3.3627    4.5754 H   0  0  0  0  0  0  0  0  0  0  0  0
    3.2459   -1.1076    3.5676 H   0  0  0  0  0  0  0  0  0  0  0  0
    1.8874   -1.3682    4.6245 H   0  0  0  0  0  0  0  0  0  0  0  0
    1.6401   -1.4284    2.8835 H   0  0  0  0  0  0  0  0  0  0  0  0
    0.9988   -3.9936    4.9811 H   0  0  0  0  0  0  0  0  0  0  0  0
    0.6263   -3.8027    3.2733 H   0  0  0  0  0  0  0  0  0  0  0  0
    2.3895   -7.0325    4.7238 H   0  0  0  0  0  0  0  0  0  0  0  0
    2.3355   -5.3864   -0.0148 H   0  0  0  0  0  0  0  0  0  0  0  0
    4.9021   -8.1463    3.6541 H   0  0  0  0  0  0  0  0  0  0  0  0
    6.5765   -7.8681    2.0119 H   0  0  0  0  0  0  0  0  0  0  0  0
    5.4578   -7.0703    0.8464 H   0  0  0  0  0  0  0  0  0  0  0  0
    6.8845   -5.0617    4.4850 H   0  0  0  0  0  0  0  0  0  0  0  0
    7.8915   -6.2345    3.6213 H   0  0  0  0  0  0  0  0  0  0  0  0
    6.5780   -6.7967    4.5888 H   0  0  0  0  0  0  0  0  0  0  0  0
    6.1992   -3.7440    2.5150 H   0  0  0  0  0  0  0  0  0  0  0  0
    8.0835   -4.7545    2.5651 H   0  0  0  0  0  0  0  0  0  0  0  0
    4.4734   -5.9947    4.2153 H   0  0  0  0  0  0  0  0  0  0  0  0
    3.2987   -1.5037   -1.1829 H   0  0  0  0  0  0  0  0  0  0  0  0
    4.8173   -1.0402   -1.9281 H   0  0  0  0  0  0  0  0  0  0  0  0
    4.6431   -0.9470   -0.1963 H   0  0  0  0  0  0  0  0  0  0  0  0
    3.5963   -3.6613   -2.5840 H   0  0  0  0  0  0  0  0  0  0  0  0
    5.0048   -4.6698   -2.3327 H   0  0  0  0  0  0  0  0  0  0  0  0
    5.1850   -3.1175   -3.1198 H   0  0  0  0  0  0  0  0  0  0  0  0
  1  2  1  0
  1 30  1  0
  1 31  1  0
  1 32  1  0
  2  3  1  0
  3 27  1  0
  3  4  1  0
  3 33  1  1
  4 23  1  0
  4  5  1  0
  4 34  1  6
  5  6  1  0
  5 27  1  0
  5 35  1  6
  6  7  2  3
  6 36  1  0
 26  7  1  6
  7  8  1  0
  8  9  1  0
  8 10  1  0
  8 37  1  1
  9 38  1  0
  9 39  1  0
  9 40  1  0
 10 11  1  0
 10 41  1  0
 10 42  1  0
 11 26  1  0
 11 12  1  1
 11 13  1  0
 12 43  1  0
 13 14  1  0
 14 26  1  0
 14 15  1  6
 14 16  1  0
 15 44  1  0
 16 17  1  0
 17 18  2  0
 17 19  1  0
 19 25  1  0
 19 20  1  0
 19 45  1  1
 20 21  1  0
 20 46  1  0
 20 47  1  0
 21 22  1  1
 21 23  1  0
 21 25  1  0
 22 48  1  0
 22 49  1  0
 22 50  1  0
 23 24  1  0
 23 51  1  1
 24 52  1  0
 25 26  1  0
 25 53  1  1
 27 28  1  0
 27 29  1  0
 28 54  1  0
 28 55  1  0
 28 56  1  0
 29 57  1  0
 29 58  1  0
 29 59  1  0
M  END
>  <i_m_ct_stereo_status>  (369) 
1

>  <s_m_source_file>  (369) 
/var/tmp/pbs.5076255.sched01/tmp1cu33jom/138ve8n868x.sdf

>  <i_m_source_file_index>  (369) 
7

>  <i_lp_mmshare_version>  (369) 
48012

>  <i_f3d_flags>  (369) 
0

>  <s_epik_input>  (369) 
W0NAXTEyM0MvND1bQ0hdXFtDQEBIXTVbQ0BASF0oW0NAQEhdKE9bQ0gzXSlDNShbQ0gzXSlbQ0gzXSlbQ0BIXShbT0hdKVtDQEBdNihbQ0gzXSlbQ0BASF0zW0NASF0oW0NIMl02KUMoPU8pT1tDQEBdMihbT0hdKU9bQ0BdMShbT0hdKVtDSDJdW0NAQEhdNFtDSDNd

>  <s_epik_cmdline>  (369) 
J2VwaWtfcHl0aG9uJywgJy1waHQnLCAnMi4wJywgJy1waCcsICc3LjAnLCAnLXRuJywgJzgnLCAnLW1hJywgJzIwMCcsICctaW1hZScsICc8aW5maWxlLm1hZT4nLCAnLW9tYWUnLCAnPG91dGZpbGUubWFlPic=

>  <r_epik_Ionization_Penalty>  (369) 
0.00322515

>  <r_epik_Ionization_Penalty_Charging>  (369) 
0

>  <r_epik_Ionization_Penalty_Neutral>  (369) 
0.00322515

>  <r_epik_State_Penalty>  (369) 
0.00227213

>  <r_epik_Charging_Adjusted_Penalty>  (369) 
0.00227213

>  <i_epik_Tot_Q>  (369) 
0

>  <i_epik_Tot_abs_Q>  (369) 
0

>  <s_epik_Chemistry_Notes>  (369) 
This compound has an ester and may undergo hydrolysis at high or low pH.

>  <s_lp_Force_Field>  (369) 
OPLS3e

>  <r_lp_Energy>  (369) 
66.9021

>  <b_lp_Chiralities_Consistent>  (369) 
1

>  <s_lp_Variant>  (369) 
98:0-1

>  <s_i_glide_gridfile>  (369) 
pfpi4k_grid

>  <i_i_glide_lignum>  (369) 
7

>  <i_i_glide_rotatable_bonds>  (369) 
4

>  <r_i_docking_score>  (369) 
-2.69517

>  <r_i_glide_ligand_efficiency>  (369) 
-0.0929371

>  <r_i_glide_ligand_efficiency_sa>  (369) 
-0.285532

>  <r_i_glide_ligand_efficiency_ln>  (369) 
-0.617127

>  <r_i_glide_gscore>  (369) 
-2.69517

>  <r_i_glide_lipo>  (369) 
-0.325198

>  <r_i_glide_hbond>  (369) 
0

>  <r_i_glide_metal>  (369) 
-0

>  <r_i_glide_rewards>  (369) 
-0.637709

>  <r_i_glide_evdw>  (369) 
-19.1812

>  <r_i_glide_ecoul>  (369) 
-4.93295

>  <r_i_glide_erotb>  (369) 
0

>  <r_i_glide_esite>  (369) 
-0.0332653

>  <r_i_glide_emodel>  (369) 
-25.7529

>  <r_i_glide_energy>  (369) 
-24.1141

>  <r_i_glide_einternal>  (369) 
3.03723

>  <r_i_glide_intrahb_reward>  (369) 
-0

>  <i_i_glide_confnum>  (369) 
2

>  <i_i_glide_posenum>  (369) 
33

>  <r_i_glide_eff_state_penalty>  (369) 
0

>  <ligand_id>  (369) 
98

>  <original_smiles>  (369) 
COC1C2C(C=C3C(C)CC4(O)OC5(O)OC(=O)C6CC(C)(C2O)C6C345)C1(C)C

>  <smiles>  (369) 
[H]OC12OC(=O)C3([H])C([H])([H])C4(C([H])([H])[H])C([H])(O[H])C5([H])C([H])(OC([H])([H])[H])C(C([H])([H])[H])(C([H])([H])[H])C5([H])C([H])=C5C([H])(C([H])([H])[H])C([H])([H])C(O[H])(O1)C52C34[H]

$$$$
98:0:2
     RDKit          3D

 59 64  0  0  1  0  0  0  0  0999 V2000
    8.6635   -3.3236   -0.8375 C   0  0  0  0  0  0  0  0  0  0  0  0
    7.3047   -3.4077   -1.2723 O   0  0  0  0  0  0  0  0  0  0  0  0
    6.2916   -3.1711   -0.2915 C   0  0  2  0  0  0  0  0  0  0  0  0
    5.8136   -4.4058    0.4915 C   0  0  2  0  0  0  0  0  0  0  0  0
    4.3958   -3.9002    0.2409 C   0  0  1  0  0  0  0  0  0  0  0  0
    3.7690   -3.2226    1.4654 C   0  0  0  0  0  0  0  0  0  0  0  0
    3.2446   -3.8728    2.5157 C   0  0  0  0  0  0  0  0  0  0  0  0
    2.5999   -3.2039    3.7298 C   0  0  1  0  0  0  0  0  0  0  0  0
    2.3063   -1.6993    3.6646 C   0  0  0  0  0  0  0  0  0  0  0  0
    1.3857   -4.0918    3.9675 C   0  0  0  0  0  0  0  0  0  0  0  0
    1.9291   -5.4840    3.6549 C   0  0  1  0  0  0  0  0  0  0  0  0
    2.1444   -6.1381    4.9023 O   0  0  0  0  0  0  0  0  0  0  0  0
    1.1097   -6.2391    2.7395 O   0  0  0  0  0  0  0  0  0  0  0  0
    2.1227   -6.1460    1.7051 C   0  0  2  0  0  0  0  0  0  0  0  0
    1.6152   -5.4625    0.5799 O   0  0  0  0  0  0  0  0  0  0  0  0
    2.6263   -7.4387    1.3259 O   0  0  0  0  0  0  0  0  0  0  0  0
    3.3636   -8.2598    2.1156 C   0  0  0  0  0  0  0  0  0  0  0  0
    3.1029   -9.4571    2.1758 O   0  0  0  0  0  0  0  0  0  0  0  0
    4.5265   -7.5874    2.8070 C   0  0  1  0  0  0  0  0  0  0  0  0
    5.7083   -7.2147    1.9177 C   0  0  0  0  0  0  0  0  0  0  0  0
    5.8797   -5.9002    2.7058 C   0  0  1  0  0  0  0  0  0  0  0  0
    6.8228   -6.0107    3.9368 C   0  0  0  0  0  0  0  0  0  0  0  0
    6.3464   -4.6430    1.9196 C   0  0  1  0  0  0  0  0  0  0  0  0
    7.7278   -4.7866    1.6906 O   0  0  0  0  0  0  0  0  0  0  0  0
    4.4027   -6.1032    3.1389 C   0  0  1  0  0  0  0  0  0  0  0  0
    3.1135   -5.3976    2.6692 C   0  0  1  0  0  0  0  0  0  0  0  0
    4.8957   -3.0089   -0.9305 C   0  0  0  0  0  0  0  0  0  0  0  0
    4.3879   -1.5677   -1.0614 C   0  0  0  0  0  0  0  0  0  0  0  0
    4.6756   -3.6547   -2.3090 C   0  0  0  0  0  0  0  0  0  0  0  0
    9.3398   -3.4690   -1.6835 H   0  0  0  0  0  0  0  0  0  0  0  0
    8.9669   -4.1010   -0.1479 H   0  0  0  0  0  0  0  0  0  0  0  0
    8.8534   -2.3441   -0.3842 H   0  0  0  0  0  0  0  0  0  0  0  0
    6.4761   -2.3398    0.3854 H   0  0  0  0  0  0  0  0  0  0  0  0
    5.9572   -5.2762   -0.1475 H   0  0  0  0  0  0  0  0  0  0  0  0
    3.7770   -4.6903   -0.1590 H   0  0  0  0  0  0  0  0  0  0  0  0
    3.7728   -2.1389    1.4766 H   0  0  0  0  0  0  0  0  0  0  0  0
    3.2814   -3.3715    4.5631 H   0  0  0  0  0  0  0  0  0  0  0  0
    3.2212   -1.1201    3.5588 H   0  0  0  0  0  0  0  0  0  0  0  0
    1.8568   -1.3810    4.6039 H   0  0  0  0  0  0  0  0  0  0  0  0
    1.6206   -1.4329    2.8618 H   0  0  0  0  0  0  0  0  0  0  0  0
    0.9690   -4.0021    4.9751 H   0  0  0  0  0  0  0  0  0  0  0  0
    0.6015   -3.8045    3.2644 H   0  0  0  0  0  0  0  0  0  0  0  0
    2.3262   -7.0366    4.7239 H   0  0  0  0  0  0  0  0  0  0  0  0
    2.3367   -5.4138   -0.0292 H   0  0  0  0  0  0  0  0  0  0  0  0
    4.8759   -8.1507    3.6777 H   0  0  0  0  0  0  0  0  0  0  0  0
    6.5458   -7.9016    2.0419 H   0  0  0  0  0  0  0  0  0  0  0  0
    5.4302   -7.0934    0.8648 H   0  0  0  0  0  0  0  0  0  0  0  0
    6.8458   -5.0718    4.4944 H   0  0  0  0  0  0  0  0  0  0  0  0
    7.8539   -6.2489    3.6744 H   0  0  0  0  0  0  0  0  0  0  0  0
    6.5293   -6.8012    4.6349 H   0  0  0  0  0  0  0  0  0  0  0  0
    6.1718   -3.7633    2.5532 H   0  0  0  0  0  0  0  0  0  0  0  0
    7.8567   -5.6120    1.2489 H   0  0  0  0  0  0  0  0  0  0  0  0
    4.4406   -6.0076    4.2154 H   0  0  0  0  0  0  0  0  0  0  0  0
    3.3060   -1.5265   -1.1872 H   0  0  0  0  0  0  0  0  0  0  0  0
    4.8300   -1.0671   -1.9225 H   0  0  0  0  0  0  0  0  0  0  0  0
    4.6448   -0.9639   -0.1942 H   0  0  0  0  0  0  0  0  0  0  0  0
    3.6170   -3.6753   -2.5773 H   0  0  0  0  0  0  0  0  0  0  0  0
    5.0218   -4.6855   -2.3195 H   0  0  0  0  0  0  0  0  0  0  0  0
    5.2084   -3.1305   -3.1031 H   0  0  0  0  0  0  0  0  0  0  0  0
  1  2  1  0
  1 30  1  0
  1 31  1  0
  1 32  1  0
  2  3  1  0
  3 27  1  0
  3  4  1  0
  3 33  1  1
  4 23  1  0
  4  5  1  0
  4 34  1  6
  5  6  1  0
  5 27  1  0
  5 35  1  6
  6  7  2  3
  6 36  1  0
 26  7  1  6
  7  8  1  0
  8  9  1  0
  8 10  1  0
  8 37  1  1
  9 38  1  0
  9 39  1  0
  9 40  1  0
 10 11  1  0
 10 41  1  0
 10 42  1  0
 11 26  1  0
 11 12  1  1
 11 13  1  0
 12 43  1  0
 13 14  1  0
 14 26  1  0
 14 15  1  6
 14 16  1  0
 15 44  1  0
 16 17  1  0
 17 18  2  0
 17 19  1  0
 19 25  1  0
 19 20  1  0
 19 45  1  1
 20 21  1  0
 20 46  1  0
 20 47  1  0
 21 22  1  1
 21 23  1  0
 21 25  1  0
 22 48  1  0
 22 49  1  0
 22 50  1  0
 23 24  1  0
 23 51  1  1
 24 52  1  0
 25 26  1  0
 25 53  1  1
 27 28  1  0
 27 29  1  0
 28 54  1  0
 28 55  1  0
 28 56  1  0
 29 57  1  0
 29 58  1  0
 29 59  1  0
M  END
>  <i_m_ct_stereo_status>  (370) 
1

>  <s_m_source_file>  (370) 
/var/tmp/pbs.5076255.sched01/tmp1cu33jom/138ve8n868x.sdf

>  <i_m_source_file_index>  (370) 
7

>  <i_lp_mmshare_version>  (370) 
48012

>  <i_f3d_flags>  (370) 
0

>  <s_epik_input>  (370) 
W0NAXTEyM0MvND1bQ0hdXFtDQEBIXTVbQ0BASF0oW0NAQEhdKE9bQ0gzXSlDNShbQ0gzXSlbQ0gzXSlbQ0BIXShbT0hdKVtDQEBdNihbQ0gzXSlbQ0BASF0zW0NASF0oW0NIMl02KUMoPU8pT1tDQEBdMihbT0hdKU9bQ0BdMShbT0hdKVtDSDJdW0NAQEhdNFtDSDNd

>  <s_epik_cmdline>  (370) 
J2VwaWtfcHl0aG9uJywgJy1waHQnLCAnMi4wJywgJy1waCcsICc3LjAnLCAnLXRuJywgJzgnLCAnLW1hJywgJzIwMCcsICctaW1hZScsICc8aW5maWxlLm1hZT4nLCAnLW9tYWUnLCAnPG91dGZpbGUubWFlPic=

>  <r_epik_Ionization_Penalty>  (370) 
0.00322515

>  <r_epik_Ionization_Penalty_Charging>  (370) 
0

>  <r_epik_Ionization_Penalty_Neutral>  (370) 
0.00322515

>  <r_epik_State_Penalty>  (370) 
0.00227213

>  <r_epik_Charging_Adjusted_Penalty>  (370) 
0.00227213

>  <i_epik_Tot_Q>  (370) 
0

>  <i_epik_Tot_abs_Q>  (370) 
0

>  <s_epik_Chemistry_Notes>  (370) 
This compound has an ester and may undergo hydrolysis at high or low pH.

>  <s_lp_Force_Field>  (370) 
OPLS3e

>  <r_lp_Energy>  (370) 
66.9021

>  <b_lp_Chiralities_Consistent>  (370) 
1

>  <s_lp_Variant>  (370) 
98:0-1

>  <s_i_glide_gridfile>  (370) 
pfpi4k_grid

>  <i_i_glide_lignum>  (370) 
7

>  <i_i_glide_rotatable_bonds>  (370) 
4

>  <r_i_docking_score>  (370) 
-2.62633

>  <r_i_glide_ligand_efficiency>  (370) 
-0.090563

>  <r_i_glide_ligand_efficiency_sa>  (370) 
-0.278238

>  <r_i_glide_ligand_efficiency_ln>  (370) 
-0.601362

>  <r_i_glide_gscore>  (370) 
-2.62633

>  <r_i_glide_lipo>  (370) 
-0.32441

>  <r_i_glide_hbond>  (370) 
0

>  <r_i_glide_metal>  (370) 
-0

>  <r_i_glide_rewards>  (370) 
-0.637709

>  <r_i_glide_evdw>  (370) 
-18.7558

>  <r_i_glide_ecoul>  (370) 
-4.6067

>  <r_i_glide_erotb>  (370) 
0

>  <r_i_glide_esite>  (370) 
-0.0354146

>  <r_i_glide_emodel>  (370) 
-25.5699

>  <r_i_glide_energy>  (370) 
-23.3625

>  <r_i_glide_einternal>  (370) 
1.91414

>  <r_i_glide_intrahb_reward>  (370) 
-0

>  <i_i_glide_confnum>  (370) 
2

>  <i_i_glide_posenum>  (370) 
31

>  <r_i_glide_eff_state_penalty>  (370) 
0

>  <ligand_id>  (370) 
98

>  <original_smiles>  (370) 
COC1C2C(C=C3C(C)CC4(O)OC5(O)OC(=O)C6CC(C)(C2O)C6C345)C1(C)C

>  <smiles>  (370) 
[H]OC12OC(=O)C3([H])C([H])([H])C4(C([H])([H])[H])C([H])(O[H])C5([H])C([H])(OC([H])([H])[H])C(C([H])([H])[H])(C([H])([H])[H])C5([H])C([H])=C5C([H])(C([H])([H])[H])C([H])([H])C(O[H])(O1)C52C34[H]

$$$$
98:1:0
     RDKit          3D

 59 64  0  0  1  0  0  0  0  0999 V2000
    0.8564   -7.9882    2.0667 C   0  0  0  0  0  0  0  0  0  0  0  0
    2.2010   -8.1753    1.6391 O   0  0  0  0  0  0  0  0  0  0  0  0
    3.0688   -7.1126    2.0438 C   0  0  2  0  0  0  0  0  0  0  0  0
    2.9890   -5.8836    1.1199 C   0  0  2  0  0  0  0  0  0  0  0  0
    4.1857   -6.5357    0.4108 C   0  0  1  0  0  0  0  0  0  0  0  0
    4.8708   -5.3941   -0.2827 C   0  0  0  0  0  0  0  0  0  0  0  0
    5.8180   -4.5157    0.0071 C   0  0  0  0  0  0  0  0  0  0  0  0
    7.0796   -4.6337    0.8490 C   0  0  1  0  0  0  0  0  0  0  0  0
    7.9151   -5.9151    0.6291 C   0  0  0  0  0  0  0  0  0  0  0  0
    7.8648   -3.3777    0.4617 C   0  0  0  0  0  0  0  0  0  0  0  0
    6.8101   -2.3494    0.0264 C   0  0  1  0  0  0  0  0  0  0  0  0
    6.6488   -1.3539    0.9943 O   0  0  0  0  0  0  0  0  0  0  0  0
    7.0498   -1.8589   -1.2996 O   0  0  0  0  0  0  0  0  0  0  0  0
    5.9980   -2.6625   -1.8457 C   0  0  2  0  0  0  0  0  0  0  0  0
    6.5351   -3.6337   -2.6604 O   0  0  0  0  0  0  0  0  0  0  0  0
    4.9747   -1.9508   -2.5436 O   0  0  0  0  0  0  0  0  0  0  0  0
    3.7302   -2.4685   -2.5610 C   0  0  0  0  0  0  0  0  0  0  0  0
    3.1833   -2.9780   -3.5404 O   0  0  0  0  0  0  0  0  0  0  0  0
    3.1760   -2.2957   -1.1902 C   0  0  1  0  0  0  0  0  0  0  0  0
    2.2845   -3.3804   -0.6134 C   0  0  0  0  0  0  0  0  0  0  0  0
    2.9337   -3.1835    0.7913 C   0  0  1  0  0  0  0  0  0  0  0  0
    2.3051   -2.0560    1.6623 C   0  0  0  0  0  0  0  0  0  0  0  0
    3.1006   -4.4440    1.7270 C   0  0  1  0  0  0  0  0  0  0  0  0
    2.0950   -4.4467    2.7218 O   0  0  0  0  0  0  0  0  0  0  0  0
    4.1274   -2.5526   -0.0300 C   0  0  1  0  0  0  0  0  0  0  0  0
    5.5524   -3.0731   -0.4155 C   0  0  1  0  0  0  0  0  0  0  0  0
    4.5595   -7.3357    1.6802 C   0  0  0  0  0  0  0  0  0  0  0  0
    5.4931   -6.8312    2.7777 C   0  0  0  0  0  0  0  0  0  0  0  0
    4.9775   -8.7812    1.3931 C   0  0  0  0  0  0  0  0  0  0  0  0
    0.2508   -8.8496    1.7947 H   0  0  0  0  0  0  0  0  0  0  0  0
    0.4080   -7.1150    1.5942 H   0  0  0  0  0  0  0  0  0  0  0  0
    0.7768   -7.8669    3.1480 H   0  0  0  0  0  0  0  0  0  0  0  0
    2.9667   -6.8778    3.0996 H   0  0  0  0  0  0  0  0  0  0  0  0
    2.1115   -5.9850    0.4803 H   0  0  0  0  0  0  0  0  0  0  0  0
    3.8341   -7.2405   -0.3357 H   0  0  0  0  0  0  0  0  0  0  0  0
    4.2036   -5.0501   -1.0375 H   0  0  0  0  0  0  0  0  0  0  0  0
    6.7789   -4.5410    1.8891 H   0  0  0  0  0  0  0  0  0  0  0  0
    7.3070   -6.8126    0.6053 H   0  0  0  0  0  0  0  0  0  0  0  0
    8.6580   -6.0297    1.4152 H   0  0  0  0  0  0  0  0  0  0  0  0
    8.4730   -5.8846   -0.2990 H   0  0  0  0  0  0  0  0  0  0  0  0
    8.5117   -3.0541    1.2680 H   0  0  0  0  0  0  0  0  0  0  0  0
    8.5342   -3.6114   -0.3720 H   0  0  0  0  0  0  0  0  0  0  0  0
    6.5306   -1.7937    1.8107 H   0  0  0  0  0  0  0  0  0  0  0  0
    5.8837   -4.3032   -2.7664 H   0  0  0  0  0  0  0  0  0  0  0  0
    2.7419   -1.3073   -1.0771 H   0  0  0  0  0  0  0  0  0  0  0  0
    1.2650   -3.0645   -0.7419 H   0  0  0  0  0  0  0  0  0  0  0  0
    2.3802   -4.3567   -1.0700 H   0  0  0  0  0  0  0  0  0  0  0  0
    2.8984   -1.8547    2.5589 H   0  0  0  0  0  0  0  0  0  0  0  0
    1.2786   -2.2560    1.9734 H   0  0  0  0  0  0  0  0  0  0  0  0
    2.2476   -1.1118    1.1246 H   0  0  0  0  0  0  0  0  0  0  0  0
    4.0514   -4.3306    2.2387 H   0  0  0  0  0  0  0  0  0  0  0  0
    2.2385   -3.6964    3.2778 H   0  0  0  0  0  0  0  0  0  0  0  0
    4.2892   -1.5707    0.3735 H   0  0  0  0  0  0  0  0  0  0  0  0
    6.5414   -7.0189    2.5746 H   0  0  0  0  0  0  0  0  0  0  0  0
    5.2829   -7.3459    3.7176 H   0  0  0  0  0  0  0  0  0  0  0  0
    5.3668   -5.7801    2.9878 H   0  0  0  0  0  0  0  0  0  0  0  0
    5.9619   -8.8337    0.9304 H   0  0  0  0  0  0  0  0  0  0  0  0
    4.2946   -9.2619    0.7003 H   0  0  0  0  0  0  0  0  0  0  0  0
    4.9857   -9.3974    2.2928 H   0  0  0  0  0  0  0  0  0  0  0  0
  1  2  1  0
  1 30  1  0
  1 31  1  0
  1 32  1  0
  2  3  1  0
  3 27  1  0
  3  4  1  0
  3 33  1  1
  4 23  1  0
  4  5  1  0
  4 34  1  6
  5  6  1  0
  5 27  1  0
  5 35  1  6
  6  7  2  3
  6 36  1  0
 26  7  1  6
  7  8  1  0
  8  9  1  0
  8 10  1  0
  8 37  1  1
  9 38  1  0
  9 39  1  0
  9 40  1  0
 10 11  1  0
 10 41  1  0
 10 42  1  0
 11 26  1  0
 11 12  1  1
 11 13  1  0
 12 43  1  0
 13 14  1  0
 14 26  1  0
 14 15  1  6
 14 16  1  0
 15 44  1  0
 16 17  1  0
 17 18  2  0
 17 19  1  0
 19 25  1  0
 19 20  1  0
 19 45  1  6
 20 21  1  0
 20 46  1  0
 20 47  1  0
 21 22  1  1
 21 23  1  0
 21 25  1  0
 22 48  1  0
 22 49  1  0
 22 50  1  0
 23 24  1  0
 23 51  1  1
 24 52  1  0
 25 26  1  0
 25 53  1  1
 27 28  1  0
 27 29  1  0
 28 54  1  0
 28 55  1  0
 28 56  1  0
 29 57  1  0
 29 58  1  0
 29 59  1  0
M  END
>  <i_m_ct_stereo_status>  (371) 
1

>  <s_m_source_file>  (371) 
/var/tmp/pbs.5076255.sched01/tmp1cu33jom/138ve8n868x.sdf

>  <i_m_source_file_index>  (371) 
8

>  <i_lp_mmshare_version>  (371) 
48012

>  <i_f3d_flags>  (371) 
0

>  <s_epik_input>  (371) 
W0NAXTEyM0MvND1bQ0hdXFtDQEBIXTVbQ0BASF0oW0NAQEhdKE9bQ0gzXSlDNShbQ0gzXSlbQ0gzXSlbQ0BIXShbT0hdKVtDQEBdNihbQ0gzXSlbQ0BASF0zW0NASF0oW0NIMl02KUMoPU8pT1tDQEBdMihbT0hdKU9bQ0BdMShbT0hdKVtDSDJdW0NAQEhdNFtDSDNd

>  <s_epik_cmdline>  (371) 
J2VwaWtfcHl0aG9uJywgJy1waHQnLCAnMi4wJywgJy1waCcsICc3LjAnLCAnLXRuJywgJzgnLCAnLW1hJywgJzIwMCcsICctaW1hZScsICc8aW5maWxlLm1hZT4nLCAnLW9tYWUnLCAnPG91dGZpbGUubWFlPic=

>  <r_epik_Ionization_Penalty>  (371) 
0.00322515

>  <r_epik_Ionization_Penalty_Charging>  (371) 
0

>  <r_epik_Ionization_Penalty_Neutral>  (371) 
0.00322515

>  <r_epik_State_Penalty>  (371) 
0.00227213

>  <r_epik_Charging_Adjusted_Penalty>  (371) 
0.00227213

>  <i_epik_Tot_Q>  (371) 
0

>  <i_epik_Tot_abs_Q>  (371) 
0

>  <s_epik_Chemistry_Notes>  (371) 
This compound has an ester and may undergo hydrolysis at high or low pH.

>  <s_lp_Force_Field>  (371) 
OPLS3e

>  <r_lp_Energy>  (371) 
103.764

>  <b_lp_Chiralities_Consistent>  (371) 
1

>  <s_lp_Variant>  (371) 
98:0-2

>  <s_i_glide_gridfile>  (371) 
pfpi4k_grid

>  <i_i_glide_lignum>  (371) 
8

>  <i_i_glide_rotatable_bonds>  (371) 
4

>  <r_i_docking_score>  (371) 
-3.07576

>  <r_i_glide_ligand_efficiency>  (371) 
-0.106061

>  <r_i_glide_ligand_efficiency_sa>  (371) 
-0.325852

>  <r_i_glide_ligand_efficiency_ln>  (371) 
-0.704271

>  <r_i_glide_gscore>  (371) 
-3.07576

>  <r_i_glide_lipo>  (371) 
-0.675207

>  <r_i_glide_hbond>  (371) 
-0.14132

>  <r_i_glide_metal>  (371) 
-0

>  <r_i_glide_rewards>  (371) 
-0.66458

>  <r_i_glide_evdw>  (371) 
-17.2309

>  <r_i_glide_ecoul>  (371) 
-4.83551

>  <r_i_glide_erotb>  (371) 
0

>  <r_i_glide_esite>  (371) 
-0.00778063

>  <r_i_glide_emodel>  (371) 
-24.7757

>  <r_i_glide_energy>  (371) 
-22.0664

>  <r_i_glide_einternal>  (371) 
1.36056

>  <r_i_glide_intrahb_reward>  (371) 
-0

>  <i_i_glide_confnum>  (371) 
1

>  <i_i_glide_posenum>  (371) 
1

>  <r_i_glide_eff_state_penalty>  (371) 
0

>  <ligand_id>  (371) 
98

>  <original_smiles>  (371) 
COC1C2C(C=C3C(C)CC4(O)OC5(O)OC(=O)C6CC(C)(C2O)C6C345)C1(C)C

>  <smiles>  (371) 
[H]OC12OC(=O)C3([H])C([H])([H])C4(C([H])([H])[H])C([H])(O[H])C5([H])C([H])(OC([H])([H])[H])C(C([H])([H])[H])(C([H])([H])[H])C5([H])C([H])=C5C([H])(C([H])([H])[H])C([H])([H])C(O[H])(O1)C52C34[H]

$$$$
98:1:1
     RDKit          3D

 59 64  0  0  1  0  0  0  0  0999 V2000
    1.7992   -7.5283    2.3713 C   0  0  0  0  0  0  0  0  0  0  0  0
    2.4059   -7.0472    3.5709 O   0  0  0  0  0  0  0  0  0  0  0  0
    3.4982   -6.1127    3.5413 C   0  0  2  0  0  0  0  0  0  0  0  0
    3.3276   -4.9641    2.5148 C   0  0  2  0  0  0  0  0  0  0  0  0
    4.1896   -5.8673    1.5914 C   0  0  1  0  0  0  0  0  0  0  0  0
    4.7628   -4.9589    0.5525 C   0  0  0  0  0  0  0  0  0  0  0  0
    5.8617   -4.2075    0.4850 C   0  0  0  0  0  0  0  0  0  0  0  0
    7.2735   -4.4271    0.9855 C   0  0  1  0  0  0  0  0  0  0  0  0
    7.8339   -5.8408    0.7348 C   0  0  0  0  0  0  0  0  0  0  0  0
    8.0742   -3.3668    0.2216 C   0  0  0  0  0  0  0  0  0  0  0  0
    7.0794   -2.2548   -0.0747 C   0  0  1  0  0  0  0  0  0  0  0  0
    7.3450   -1.1223    0.7152 O   0  0  0  0  0  0  0  0  0  0  0  0
    6.9627   -1.9510   -1.4850 O   0  0  0  0  0  0  0  0  0  0  0  0
    5.7329   -2.6921   -1.6079 C   0  0  2  0  0  0  0  0  0  0  0  0
    5.8855   -3.8557   -2.3510 O   0  0  0  0  0  0  0  0  0  0  0  0
    4.6578   -1.8817   -2.1204 O   0  0  0  0  0  0  0  0  0  0  0  0
    3.4077   -2.1602   -1.6840 C   0  0  0  0  0  0  0  0  0  0  0  0
    2.5651   -2.6846   -2.4170 O   0  0  0  0  0  0  0  0  0  0  0  0
    3.2546   -1.7261   -0.2570 C   0  0  1  0  0  0  0  0  0  0  0  0
    2.4267   -2.5357    0.7496 C   0  0  0  0  0  0  0  0  0  0  0  0
    3.5201   -2.3245    1.8224 C   0  0  1  0  0  0  0  0  0  0  0  0
    3.2949   -1.0235    2.6445 C   0  0  0  0  0  0  0  0  0  0  0  0
    3.7915   -3.5051    2.8551 C   0  0  1  0  0  0  0  0  0  0  0  0
    3.1331   -3.2399    4.0882 O   0  0  0  0  0  0  0  0  0  0  0  0
    4.4860   -1.9933    0.6117 C   0  0  1  0  0  0  0  0  0  0  0  0
    5.6664   -2.8116   -0.0579 C   0  0  1  0  0  0  0  0  0  0  0  0
    4.8005   -6.6048    2.8388 C   0  0  0  0  0  0  0  0  0  0  0  0
    6.0501   -6.0899    3.5807 C   0  0  0  0  0  0  0  0  0  0  0  0
    5.0308   -8.1336    2.7194 C   0  0  0  0  0  0  0  0  0  0  0  0
    0.9570   -8.1870    2.5855 H   0  0  0  0  0  0  0  0  0  0  0  0
    2.4688   -8.1161    1.7615 H   0  0  0  0  0  0  0  0  0  0  0  0
    1.4634   -6.7225    1.7300 H   0  0  0  0  0  0  0  0  0  0  0  0
    3.6913   -5.7267    4.5562 H   0  0  0  0  0  0  0  0  0  0  0  0
    2.2802   -4.8842    2.2256 H   0  0  0  0  0  0  0  0  0  0  0  0
    3.6377   -6.5580    0.9786 H   0  0  0  0  0  0  0  0  0  0  0  0
    3.9377   -4.6076   -0.0431 H   0  0  0  0  0  0  0  0  0  0  0  0
    7.2981   -4.1899    2.0424 H   0  0  0  0  0  0  0  0  0  0  0  0
    7.1420   -6.6320    1.0194 H   0  0  0  0  0  0  0  0  0  0  0  0
    8.7636   -5.9973    1.2841 H   0  0  0  0  0  0  0  0  0  0  0  0
    8.0677   -6.0076   -0.3146 H   0  0  0  0  0  0  0  0  0  0  0  0
    8.9495   -3.0363    0.7675 H   0  0  0  0  0  0  0  0  0  0  0  0
    8.4301   -3.7814   -0.7196 H   0  0  0  0  0  0  0  0  0  0  0  0
    7.2812   -1.3937    1.6139 H   0  0  0  0  0  0  0  0  0  0  0  0
    5.0767   -4.3533   -2.2944 H   0  0  0  0  0  0  0  0  0  0  0  0
    2.9933   -0.6679   -0.2206 H   0  0  0  0  0  0  0  0  0  0  0  0
    1.4910   -2.0541    1.0125 H   0  0  0  0  0  0  0  0  0  0  0  0
    2.2425   -3.5554    0.4340 H   0  0  0  0  0  0  0  0  0  0  0  0
    4.1359   -0.8201    3.3097 H   0  0  0  0  0  0  0  0  0  0  0  0
    2.3743   -1.0458    3.2348 H   0  0  0  0  0  0  0  0  0  0  0  0
    3.1955   -0.1482    2.0010 H   0  0  0  0  0  0  0  0  0  0  0  0
    4.8543   -3.4886    3.0718 H   0  0  0  0  0  0  0  0  0  0  0  0
    3.4689   -2.4265    4.4331 H   0  0  0  0  0  0  0  0  0  0  0  0
    4.9103   -1.0121    0.8054 H   0  0  0  0  0  0  0  0  0  0  0  0
    6.9775   -6.4531    3.1430 H   0  0  0  0  0  0  0  0  0  0  0  0
    6.0573   -6.4549    4.6112 H   0  0  0  0  0  0  0  0  0  0  0  0
    6.1173   -5.0045    3.6633 H   0  0  0  0  0  0  0  0  0  0  0  0
    5.8382   -8.3483    2.0207 H   0  0  0  0  0  0  0  0  0  0  0  0
    4.2037   -8.7120    2.3284 H   0  0  0  0  0  0  0  0  0  0  0  0
    5.2237   -8.5907    3.6911 H   0  0  0  0  0  0  0  0  0  0  0  0
  1  2  1  0
  1 30  1  0
  1 31  1  0
  1 32  1  0
  2  3  1  0
  3 27  1  0
  3  4  1  0
  3 33  1  1
  4 23  1  0
  4  5  1  0
  4 34  1  6
  5  6  1  0
  5 27  1  0
  5 35  1  6
  6  7  2  3
  6 36  1  0
 26  7  1  6
  7  8  1  0
  8  9  1  0
  8 10  1  0
  8 37  1  1
  9 38  1  0
  9 39  1  0
  9 40  1  0
 10 11  1  0
 10 41  1  0
 10 42  1  0
 11 26  1  0
 11 12  1  1
 11 13  1  0
 12 43  1  0
 13 14  1  0
 14 26  1  0
 14 15  1  6
 14 16  1  0
 15 44  1  0
 16 17  1  0
 17 18  2  0
 17 19  1  0
 19 25  1  0
 19 20  1  0
 19 45  1  6
 20 21  1  0
 20 46  1  0
 20 47  1  0
 21 22  1  1
 21 23  1  0
 21 25  1  0
 22 48  1  0
 22 49  1  0
 22 50  1  0
 23 24  1  0
 23 51  1  1
 24 52  1  0
 25 26  1  0
 25 53  1  1
 27 28  1  0
 27 29  1  0
 28 54  1  0
 28 55  1  0
 28 56  1  0
 29 57  1  0
 29 58  1  0
 29 59  1  0
M  END
>  <i_m_ct_stereo_status>  (372) 
1

>  <s_m_source_file>  (372) 
/var/tmp/pbs.5076255.sched01/tmp1cu33jom/138ve8n868x.sdf

>  <i_m_source_file_index>  (372) 
8

>  <i_lp_mmshare_version>  (372) 
48012

>  <i_f3d_flags>  (372) 
0

>  <s_epik_input>  (372) 
W0NAXTEyM0MvND1bQ0hdXFtDQEBIXTVbQ0BASF0oW0NAQEhdKE9bQ0gzXSlDNShbQ0gzXSlbQ0gzXSlbQ0BIXShbT0hdKVtDQEBdNihbQ0gzXSlbQ0BASF0zW0NASF0oW0NIMl02KUMoPU8pT1tDQEBdMihbT0hdKU9bQ0BdMShbT0hdKVtDSDJdW0NAQEhdNFtDSDNd

>  <s_epik_cmdline>  (372) 
J2VwaWtfcHl0aG9uJywgJy1waHQnLCAnMi4wJywgJy1waCcsICc3LjAnLCAnLXRuJywgJzgnLCAnLW1hJywgJzIwMCcsICctaW1hZScsICc8aW5maWxlLm1hZT4nLCAnLW9tYWUnLCAnPG91dGZpbGUubWFlPic=

>  <r_epik_Ionization_Penalty>  (372) 
0.00322515

>  <r_epik_Ionization_Penalty_Charging>  (372) 
0

>  <r_epik_Ionization_Penalty_Neutral>  (372) 
0.00322515

>  <r_epik_State_Penalty>  (372) 
0.00227213

>  <r_epik_Charging_Adjusted_Penalty>  (372) 
0.00227213

>  <i_epik_Tot_Q>  (372) 
0

>  <i_epik_Tot_abs_Q>  (372) 
0

>  <s_epik_Chemistry_Notes>  (372) 
This compound has an ester and may undergo hydrolysis at high or low pH.

>  <s_lp_Force_Field>  (372) 
OPLS3e

>  <r_lp_Energy>  (372) 
103.764

>  <b_lp_Chiralities_Consistent>  (372) 
1

>  <s_lp_Variant>  (372) 
98:0-2

>  <s_i_glide_gridfile>  (372) 
pfpi4k_grid

>  <i_i_glide_lignum>  (372) 
8

>  <i_i_glide_rotatable_bonds>  (372) 
4

>  <r_i_docking_score>  (372) 
-2.96321

>  <r_i_glide_ligand_efficiency>  (372) 
-0.10218

>  <r_i_glide_ligand_efficiency_sa>  (372) 
-0.313928

>  <r_i_glide_ligand_efficiency_ln>  (372) 
-0.6785

>  <r_i_glide_gscore>  (372) 
-2.96321

>  <r_i_glide_lipo>  (372) 
-0.611778

>  <r_i_glide_hbond>  (372) 
-0.16

>  <r_i_glide_metal>  (372) 
-0

>  <r_i_glide_rewards>  (372) 
-0.637709

>  <r_i_glide_evdw>  (372) 
-17.1672

>  <r_i_glide_ecoul>  (372) 
-4.08838

>  <r_i_glide_erotb>  (372) 
0

>  <r_i_glide_esite>  (372) 
-0.0821051

>  <r_i_glide_emodel>  (372) 
-17.4702

>  <r_i_glide_energy>  (372) 
-21.2556

>  <r_i_glide_einternal>  (372) 
13.1274

>  <r_i_glide_intrahb_reward>  (372) 
-0

>  <i_i_glide_confnum>  (372) 
1

>  <i_i_glide_posenum>  (372) 
21

>  <r_i_glide_eff_state_penalty>  (372) 
0

>  <ligand_id>  (372) 
98

>  <original_smiles>  (372) 
COC1C2C(C=C3C(C)CC4(O)OC5(O)OC(=O)C6CC(C)(C2O)C6C345)C1(C)C

>  <smiles>  (372) 
[H]OC12OC(=O)C3([H])C([H])([H])C4(C([H])([H])[H])C([H])(O[H])C5([H])C([H])(OC([H])([H])[H])C(C([H])([H])[H])(C([H])([H])[H])C5([H])C([H])=C5C([H])(C([H])([H])[H])C([H])([H])C(O[H])(O1)C52C34[H]

$$$$
98:1:2
     RDKit          3D

 59 64  0  0  1  0  0  0  0  0999 V2000
    5.5287   -3.5197   -3.5103 C   0  0  0  0  0  0  0  0  0  0  0  0
    4.8332   -4.0333   -2.3874 O   0  0  0  0  0  0  0  0  0  0  0  0
    5.2483   -3.5184   -1.1201 C   0  0  2  0  0  0  0  0  0  0  0  0
    4.6071   -4.2877    0.0626 C   0  0  2  0  0  0  0  0  0  0  0  0
    3.5254   -3.1961   -0.0088 C   0  0  1  0  0  0  0  0  0  0  0  0
    2.9135   -3.1509    1.3735 C   0  0  0  0  0  0  0  0  0  0  0  0
    3.1768   -2.5178    2.5165 C   0  0  0  0  0  0  0  0  0  0  0  0
    3.7242   -1.1274    2.8134 C   0  0  1  0  0  0  0  0  0  0  0  0
    3.0774    0.0031    1.9847 C   0  0  0  0  0  0  0  0  0  0  0  0
    3.4460   -0.9359    4.3171 C   0  0  0  0  0  0  0  0  0  0  0  0
    3.4082   -2.3480    4.8909 C   0  0  1  0  0  0  0  0  0  0  0  0
    4.5788   -2.5629    5.6610 O   0  0  0  0  0  0  0  0  0  0  0  0
    2.1530   -2.6202    5.5734 O   0  0  0  0  0  0  0  0  0  0  0  0
    1.6839   -3.3846    4.4178 C   0  0  2  0  0  0  0  0  0  0  0  0
    0.6629   -2.7064    3.7029 O   0  0  0  0  0  0  0  0  0  0  0  0
    1.3224   -4.7366    4.7405 O   0  0  0  0  0  0  0  0  0  0  0  0
    1.5371   -5.7337    3.8378 C   0  0  0  0  0  0  0  0  0  0  0  0
    0.6254   -6.3097    3.2384 O   0  0  0  0  0  0  0  0  0  0  0  0
    3.0159   -5.9722    3.6964 C   0  0  1  0  0  0  0  0  0  0  0  0
    3.5886   -6.3057    2.3099 C   0  0  0  0  0  0  0  0  0  0  0  0
    4.7999   -5.3704    2.5847 C   0  0  1  0  0  0  0  0  0  0  0  0
    5.9725   -6.1012    3.2905 C   0  0  0  0  0  0  0  0  0  0  0  0
    5.4243   -4.5336    1.3898 C   0  0  1  0  0  0  0  0  0  0  0  0
    6.6060   -5.1526    0.9141 O   0  0  0  0  0  0  0  0  0  0  0  0
    3.8790   -4.7208    3.6957 C   0  0  1  0  0  0  0  0  0  0  0  0
    3.1014   -3.3499    3.7875 C   0  0  1  0  0  0  0  0  0  0  0  0
    4.5266   -2.2154   -0.6941 C   0  0  0  0  0  0  0  0  0  0  0  0
    5.4940   -1.2747    0.0289 C   0  0  0  0  0  0  0  0  0  0  0  0
    3.8708   -1.3869   -1.7944 C   0  0  0  0  0  0  0  0  0  0  0  0
    5.1587   -3.9953   -4.4150 H   0  0  0  0  0  0  0  0  0  0  0  0
    6.6023   -3.6962   -3.4313 H   0  0  0  0  0  0  0  0  0  0  0  0
    5.4135   -2.4545   -3.6453 H   0  0  0  0  0  0  0  0  0  0  0  0
    6.3341   -3.4784   -1.0250 H   0  0  0  0  0  0  0  0  0  0  0  0
    4.1898   -5.2204   -0.3209 H   0  0  0  0  0  0  0  0  0  0  0  0
    2.7560   -3.4969   -0.7304 H   0  0  0  0  0  0  0  0  0  0  0  0
    2.3914   -4.0724    1.5149 H   0  0  0  0  0  0  0  0  0  0  0  0
    4.8048   -1.1507    2.6861 H   0  0  0  0  0  0  0  0  0  0  0  0
    3.0255   -0.2316    0.9264 H   0  0  0  0  0  0  0  0  0  0  0  0
    3.6475    0.9244    2.0994 H   0  0  0  0  0  0  0  0  0  0  0  0
    2.0554    0.2119    2.2992 H   0  0  0  0  0  0  0  0  0  0  0  0
    4.1813   -0.2864    4.8048 H   0  0  0  0  0  0  0  0  0  0  0  0
    2.4739   -0.4493    4.4503 H   0  0  0  0  0  0  0  0  0  0  0  0
    4.4960   -3.3910    6.0807 H   0  0  0  0  0  0  0  0  0  0  0  0
    0.9339   -1.8107    3.6158 H   0  0  0  0  0  0  0  0  0  0  0  0
    3.3905   -6.6962    4.4218 H   0  0  0  0  0  0  0  0  0  0  0  0
    3.8753   -7.3555    2.2098 H   0  0  0  0  0  0  0  0  0  0  0  0
    2.9471   -6.0095    1.4755 H   0  0  0  0  0  0  0  0  0  0  0  0
    6.7549   -5.4097    3.5981 H   0  0  0  0  0  0  0  0  0  0  0  0
    6.4306   -6.8721    2.6733 H   0  0  0  0  0  0  0  0  0  0  0  0
    5.6523   -6.6169    4.1934 H   0  0  0  0  0  0  0  0  0  0  0  0
    5.7463   -3.5872    1.8138 H   0  0  0  0  0  0  0  0  0  0  0  0
    6.3812   -5.9977    0.5581 H   0  0  0  0  0  0  0  0  0  0  0  0
    4.4165   -4.7991    4.6288 H   0  0  0  0  0  0  0  0  0  0  0  0
    5.0582   -0.3123    0.2677 H   0  0  0  0  0  0  0  0  0  0  0  0
    6.3381   -1.0575   -0.6208 H   0  0  0  0  0  0  0  0  0  0  0  0
    5.9248   -1.7057    0.9246 H   0  0  0  0  0  0  0  0  0  0  0  0
    3.1407   -0.7035   -1.3749 H   0  0  0  0  0  0  0  0  0  0  0  0
    3.3028   -2.0211   -2.4702 H   0  0  0  0  0  0  0  0  0  0  0  0
    4.5882   -0.8104   -2.3783 H   0  0  0  0  0  0  0  0  0  0  0  0
  1  2  1  0
  1 30  1  0
  1 31  1  0
  1 32  1  0
  2  3  1  0
  3 27  1  0
  3  4  1  0
  3 33  1  1
  4 23  1  0
  4  5  1  0
  4 34  1  6
  5  6  1  0
  5 27  1  0
  5 35  1  6
  6  7  2  3
  6 36  1  0
 26  7  1  6
  7  8  1  0
  8  9  1  0
  8 10  1  0
  8 37  1  1
  9 38  1  0
  9 39  1  0
  9 40  1  0
 10 11  1  0
 10 41  1  0
 10 42  1  0
 11 26  1  0
 11 12  1  1
 11 13  1  0
 12 43  1  0
 13 14  1  0
 14 26  1  0
 14 15  1  6
 14 16  1  0
 15 44  1  0
 16 17  1  0
 17 18  2  0
 17 19  1  0
 19 25  1  0
 19 20  1  0
 19 45  1  1
 20 21  1  0
 20 46  1  0
 20 47  1  0
 21 22  1  1
 21 23  1  0
 21 25  1  0
 22 48  1  0
 22 49  1  0
 22 50  1  0
 23 24  1  0
 23 51  1  1
 24 52  1  0
 25 26  1  0
 25 53  1  1
 27 28  1  0
 27 29  1  0
 28 54  1  0
 28 55  1  0
 28 56  1  0
 29 57  1  0
 29 58  1  0
 29 59  1  0
M  END
>  <i_m_ct_stereo_status>  (373) 
1

>  <s_m_source_file>  (373) 
/var/tmp/pbs.5076255.sched01/tmp1cu33jom/138ve8n868x.sdf

>  <i_m_source_file_index>  (373) 
8

>  <i_lp_mmshare_version>  (373) 
48012

>  <i_f3d_flags>  (373) 
0

>  <s_epik_input>  (373) 
W0NAXTEyM0MvND1bQ0hdXFtDQEBIXTVbQ0BASF0oW0NAQEhdKE9bQ0gzXSlDNShbQ0gzXSlbQ0gzXSlbQ0BIXShbT0hdKVtDQEBdNihbQ0gzXSlbQ0BASF0zW0NASF0oW0NIMl02KUMoPU8pT1tDQEBdMihbT0hdKU9bQ0BdMShbT0hdKVtDSDJdW0NAQEhdNFtDSDNd

>  <s_epik_cmdline>  (373) 
J2VwaWtfcHl0aG9uJywgJy1waHQnLCAnMi4wJywgJy1waCcsICc3LjAnLCAnLXRuJywgJzgnLCAnLW1hJywgJzIwMCcsICctaW1hZScsICc8aW5maWxlLm1hZT4nLCAnLW9tYWUnLCAnPG91dGZpbGUubWFlPic=

>  <r_epik_Ionization_Penalty>  (373) 
0.00322515

>  <r_epik_Ionization_Penalty_Charging>  (373) 
0

>  <r_epik_Ionization_Penalty_Neutral>  (373) 
0.00322515

>  <r_epik_State_Penalty>  (373) 
0.00227213

>  <r_epik_Charging_Adjusted_Penalty>  (373) 
0.00227213

>  <i_epik_Tot_Q>  (373) 
0

>  <i_epik_Tot_abs_Q>  (373) 
0

>  <s_epik_Chemistry_Notes>  (373) 
This compound has an ester and may undergo hydrolysis at high or low pH.

>  <s_lp_Force_Field>  (373) 
OPLS3e

>  <r_lp_Energy>  (373) 
103.764

>  <b_lp_Chiralities_Consistent>  (373) 
1

>  <s_lp_Variant>  (373) 
98:0-2

>  <s_i_glide_gridfile>  (373) 
pfpi4k_grid

>  <i_i_glide_lignum>  (373) 
8

>  <i_i_glide_rotatable_bonds>  (373) 
4

>  <r_i_docking_score>  (373) 
-1.66323

>  <r_i_glide_ligand_efficiency>  (373) 
-0.0573529

>  <r_i_glide_ligand_efficiency_sa>  (373) 
-0.176206

>  <r_i_glide_ligand_efficiency_ln>  (373) 
-0.380839

>  <r_i_glide_gscore>  (373) 
-1.66323

>  <r_i_glide_lipo>  (373) 
-0.271207

>  <r_i_glide_hbond>  (373) 
0

>  <r_i_glide_metal>  (373) 
-0

>  <r_i_glide_rewards>  (373) 
-0.651742

>  <r_i_glide_evdw>  (373) 
-20.4494

>  <r_i_glide_ecoul>  (373) 
1.94206

>  <r_i_glide_erotb>  (373) 
0

>  <r_i_glide_esite>  (373) 
-0.00912187

>  <r_i_glide_emodel>  (373) 
-19.5261

>  <r_i_glide_energy>  (373) 
-18.5074

>  <r_i_glide_einternal>  (373) 
1.5387

>  <r_i_glide_intrahb_reward>  (373) 
-0

>  <i_i_glide_confnum>  (373) 
2

>  <i_i_glide_posenum>  (373) 
29

>  <r_i_glide_eff_state_penalty>  (373) 
0

>  <ligand_id>  (373) 
98

>  <original_smiles>  (373) 
COC1C2C(C=C3C(C)CC4(O)OC5(O)OC(=O)C6CC(C)(C2O)C6C345)C1(C)C

>  <smiles>  (373) 
[H]OC12OC(=O)C3([H])C([H])([H])C4(C([H])([H])[H])C([H])(O[H])C5([H])C([H])(OC([H])([H])[H])C(C([H])([H])[H])(C([H])([H])[H])C5([H])C([H])=C5C([H])(C([H])([H])[H])C([H])([H])C(O[H])(O1)C52C34[H]

$$$$
99:0:0
     RDKit          3D

 42 45  0  0  1  0  0  0  0  0999 V2000
    5.9961   -5.9062    3.6100 C   0  0  0  0  0  0  0  0  0  0  0  0
    5.0033   -4.7369    3.4754 C   0  0  0  0  0  0  0  0  0  0  0  0
    4.9821   -4.0562    2.0874 C   0  0  2  0  0  0  0  0  0  0  0  0
    4.5532   -2.7222    2.3535 O   0  0  0  0  0  0  0  0  0  0  0  0
    4.9069   -1.7077    1.4595 C   0  0  1  0  0  0  0  0  0  0  0  0
    6.2816   -1.4454    1.4285 O   0  0  0  0  0  0  0  0  0  0  0  0
    7.0449   -1.8984    0.3882 C   0  0  0  0  0  0  0  0  0  0  0  0
    8.2464   -1.6617    0.3502 O   0  0  0  0  0  0  0  0  0  0  0  0
    6.3185   -2.6420   -0.6950 C   0  0  2  0  0  0  0  0  0  0  0  0
    6.0487   -1.7535   -1.8163 O   0  0  0  0  0  0  0  0  0  0  0  0
    4.8365   -2.4938   -2.0277 C   0  0  2  0  0  0  0  0  0  0  0  0
    3.4993   -1.9279   -2.4737 C   0  0  1  0  0  0  0  0  0  0  0  0
    3.4496   -1.4362   -3.9333 C   0  0  0  0  0  0  0  0  0  0  0  0
    2.4626   -3.0529   -2.2308 C   0  0  0  0  0  0  0  0  0  0  0  0
    2.5453   -3.7604   -0.8377 C   0  0  0  0  0  0  0  0  0  0  0  0
    3.9790   -4.1143   -0.3425 C   0  0  2  0  0  0  0  0  0  0  0  0
    3.9730   -4.7031    1.0985 C   0  0  1  0  0  0  0  0  0  0  0  0
    4.0764   -6.2289    0.9883 C   0  0  0  0  0  0  0  0  0  0  0  0
    4.8153   -2.8760   -0.5582 C   0  0  1  0  0  0  0  0  0  0  0  0
    4.2994   -1.8137    0.2183 O   0  0  0  0  0  0  0  0  0  0  0  0
    5.9559   -6.3273    4.6145 H   0  0  0  0  0  0  0  0  0  0  0  0
    7.0163   -5.5670    3.4348 H   0  0  0  0  0  0  0  0  0  0  0  0
    5.8123   -6.7294    2.9229 H   0  0  0  0  0  0  0  0  0  0  0  0
    3.9917   -5.0362    3.7515 H   0  0  0  0  0  0  0  0  0  0  0  0
    5.2921   -3.9986    4.2229 H   0  0  0  0  0  0  0  0  0  0  0  0
    5.9990   -4.0627    1.6979 H   0  0  0  0  0  0  0  0  0  0  0  0
    4.4633   -0.8024    1.8746 H   0  0  0  0  0  0  0  0  0  0  0  0
    6.8377   -3.5536   -0.9980 H   0  0  0  0  0  0  0  0  0  0  0  0
    5.0767   -3.3766   -2.6273 H   0  0  0  0  0  0  0  0  0  0  0  0
    3.2242   -1.0765   -1.8519 H   0  0  0  0  0  0  0  0  0  0  0  0
    3.6202   -2.2414   -4.6454 H   0  0  0  0  0  0  0  0  0  0  0  0
    4.1690   -0.6397   -4.1183 H   0  0  0  0  0  0  0  0  0  0  0  0
    2.4590   -1.0265   -4.1474 H   0  0  0  0  0  0  0  0  0  0  0  0
    1.4517   -2.6687   -2.3570 H   0  0  0  0  0  0  0  0  0  0  0  0
    2.5854   -3.8244   -2.9930 H   0  0  0  0  0  0  0  0  0  0  0  0
    2.0959   -3.0905   -0.1082 H   0  0  0  0  0  0  0  0  0  0  0  0
    1.9359   -4.6569   -0.8453 H   0  0  0  0  0  0  0  0  0  0  0  0
    4.3729   -4.8884   -1.0058 H   0  0  0  0  0  0  0  0  0  0  0  0
    2.9922   -4.4936    1.5196 H   0  0  0  0  0  0  0  0  0  0  0  0
    5.0838   -6.5342    0.7062 H   0  0  0  0  0  0  0  0  0  0  0  0
    3.3987   -6.6189    0.2303 H   0  0  0  0  0  0  0  0  0  0  0  0
    3.8047   -6.7150    1.9222 H   0  0  0  0  0  0  0  0  0  0  0  0
  1  2  1  0
  1 21  1  0
  1 22  1  0
  1 23  1  0
  2  3  1  0
  2 24  1  0
  2 25  1  0
  3 17  1  0
  3  4  1  0
  3 26  1  6
  4  5  1  0
  5 20  1  0
  5  6  1  0
  5 27  1  1
  6  7  1  0
  7  8  2  0
  7  9  1  0
  9 19  1  0
  9 10  1  0
  9 28  1  6
 10 11  1  0
 11 19  1  0
 11 12  1  0
 11 29  1  6
 12 13  1  0
 12 14  1  0
 12 30  1  1
 13 31  1  0
 13 32  1  0
 13 33  1  0
 14 15  1  0
 14 34  1  0
 14 35  1  0
 15 16  1  0
 15 36  1  0
 15 37  1  0
 16 17  1  0
 16 19  1  0
 16 38  1  6
 17 18  1  0
 17 39  1  1
 18 40  1  0
 18 41  1  0
 18 42  1  0
 19 20  1  1
M  END
>  <i_m_ct_stereo_status>  (374) 
1

>  <s_m_source_file>  (374) 
/var/tmp/pbs.5076255.sched01/tmp1cu33jom/138ve8n868x.sdf

>  <i_m_source_file_index>  (374) 
9

>  <i_lp_mmshare_version>  (374) 
48012

>  <i_f3d_flags>  (374) 
0

>  <s_epik_input>  (374) 
W0NAXTEyM1tDQEBIXTRDKD1PKU9bQ0BASF0oTzMpT1tDQEBIXShbQ0gyXVtDSDNdKVtDQEhdKFtDSDNdKVtDQEhdMltDSDJdW0NIMl1bQ0BASF0oW0NASF0xTzQpW0NIM10=

>  <s_epik_cmdline>  (374) 
J2VwaWtfcHl0aG9uJywgJy1waHQnLCAnMi4wJywgJy1waCcsICc3LjAnLCAnLXRuJywgJzgnLCAnLW1hJywgJzIwMCcsICctaW1hZScsICc8aW5maWxlLm1hZT4nLCAnLW9tYWUnLCAnPG91dGZpbGUubWFlPic=

>  <r_lp_tautomer_probability>  (374) 
1

>  <r_epik_Ionization_Penalty>  (374) 
3.94675e-15

>  <r_epik_Ionization_Penalty_Charging>  (374) 
0

>  <r_epik_Ionization_Penalty_Neutral>  (374) 
3.94675e-15

>  <r_epik_State_Penalty>  (374) 
-0

>  <r_epik_Charging_Adjusted_Penalty>  (374) 
0

>  <i_epik_Tot_Q>  (374) 
0

>  <i_epik_Tot_abs_Q>  (374) 
0

>  <s_epik_Chemistry_Notes>  (374) 
This compound has an ester and may undergo hydrolysis at high or low pH. This compound contains an acetal/aminal-like group ( X-CH(R)-Y where X, Y are N, S, or O) that may be acid/base labile, releasing an aldehyde.

>  <s_lp_Force_Field>  (374) 
OPLS3e

>  <r_lp_Energy>  (374) 
55.1888

>  <b_lp_Chiralities_Consistent>  (374) 
1

>  <s_lp_Variant>  (374) 
99:0-1

>  <s_i_glide_gridfile>  (374) 
pfpi4k_grid

>  <i_i_glide_lignum>  (374) 
9

>  <i_i_glide_rotatable_bonds>  (374) 
1

>  <r_i_docking_score>  (374) 
-3.31139

>  <r_i_glide_ligand_efficiency>  (374) 
-0.165569

>  <r_i_glide_ligand_efficiency_sa>  (374) 
-0.449424

>  <r_i_glide_ligand_efficiency_ln>  (374) 
-0.828731

>  <r_i_glide_gscore>  (374) 
-3.31139

>  <r_i_glide_lipo>  (374) 
-0.304466

>  <r_i_glide_hbond>  (374) 
-0.138548

>  <r_i_glide_metal>  (374) 
-0

>  <r_i_glide_rewards>  (374) 
-1.56152

>  <r_i_glide_evdw>  (374) 
-20.45

>  <r_i_glide_ecoul>  (374) 
-1.89571

>  <r_i_glide_erotb>  (374) 
0

>  <r_i_glide_esite>  (374) 
0

>  <r_i_glide_emodel>  (374) 
-26.0006

>  <r_i_glide_energy>  (374) 
-22.3457

>  <r_i_glide_einternal>  (374) 
2.10673

>  <r_i_glide_intrahb_reward>  (374) 
-0

>  <i_i_glide_confnum>  (374) 
1

>  <i_i_glide_posenum>  (374) 
15

>  <r_i_glide_eff_state_penalty>  (374) 
0

>  <ligand_id>  (374) 
99

>  <original_smiles>  (374) 
CCC1OC2OC(=O)C3OC4C(C)CCC(C1C)C34O2

>  <smiles>  (374) 
[H]C12OC(=O)C3([H])OC4([H])C([H])(C([H])([H])[H])C([H])([H])C([H])([H])C([H])(C([H])(C([H])([H])[H])C([H])(C([H])([H])C([H])([H])[H])O1)C34O2

$$$$
99:0:1
     RDKit          3D

 42 45  0  0  1  0  0  0  0  0999 V2000
    4.8066   -3.8358    4.5304 C   0  0  0  0  0  0  0  0  0  0  0  0
    3.9758   -4.5112    3.4333 C   0  0  0  0  0  0  0  0  0  0  0  0
    4.1720   -3.8821    2.0382 C   0  0  2  0  0  0  0  0  0  0  0  0
    3.7064   -2.5436    2.1841 O   0  0  0  0  0  0  0  0  0  0  0  0
    4.1976   -1.5692    1.3188 C   0  0  1  0  0  0  0  0  0  0  0  0
    5.5687   -1.3058    1.4862 O   0  0  0  0  0  0  0  0  0  0  0  0
    6.4720   -1.7485    0.5552 C   0  0  0  0  0  0  0  0  0  0  0  0
    7.6570   -1.4598    0.6245 O   0  0  0  0  0  0  0  0  0  0  0  0
    5.9131   -2.5609   -0.5675 C   0  0  2  0  0  0  0  0  0  0  0  0
    5.8120   -1.7045   -1.7517 O   0  0  0  0  0  0  0  0  0  0  0  0
    4.6455   -2.4718   -2.1059 C   0  0  2  0  0  0  0  0  0  0  0  0
    3.3970   -1.9239   -2.7594 C   0  0  1  0  0  0  0  0  0  0  0  0
    3.5684   -1.4799   -4.2146 C   0  0  0  0  0  0  0  0  0  0  0  0
    2.3552   -3.0642   -2.6479 C   0  0  0  0  0  0  0  0  0  0  0  0
    2.2241   -3.7401   -1.2430 C   0  0  0  0  0  0  0  0  0  0  0  0
    3.5666   -4.0524   -0.5104 C   0  0  2  0  0  0  0  0  0  0  0  0
    3.3357   -4.5828    0.9364 C   0  0  1  0  0  0  0  0  0  0  0  0
    3.4885   -6.1103    0.9226 C   0  0  0  0  0  0  0  0  0  0  0  0
    4.4145   -2.8001   -0.6467 C   0  0  1  0  0  0  0  0  0  0  0  0
    3.7780   -1.7232    0.0079 O   0  0  0  0  0  0  0  0  0  0  0  0
    4.6687   -4.3422    5.4864 H   0  0  0  0  0  0  0  0  0  0  0  0
    4.5298   -2.7898    4.6601 H   0  0  0  0  0  0  0  0  0  0  0  0
    5.8645   -3.8795    4.2850 H   0  0  0  0  0  0  0  0  0  0  0  0
    4.2658   -5.5606    3.4146 H   0  0  0  0  0  0  0  0  0  0  0  0
    2.9184   -4.4815    3.7069 H   0  0  0  0  0  0  0  0  0  0  0  0
    5.2359   -3.9210    1.8031 H   0  0  0  0  0  0  0  0  0  0  0  0
    3.6863   -0.6556    1.6234 H   0  0  0  0  0  0  0  0  0  0  0  0
    6.4756   -3.4749   -0.7550 H   0  0  0  0  0  0  0  0  0  0  0  0
    4.9880   -3.3691   -2.6305 H   0  0  0  0  0  0  0  0  0  0  0  0
    3.0304   -1.0584   -2.2080 H   0  0  0  0  0  0  0  0  0  0  0  0
    3.8421   -2.3335   -4.8275 H   0  0  0  0  0  0  0  0  0  0  0  0
    4.3177   -0.6960   -4.3324 H   0  0  0  0  0  0  0  0  0  0  0  0
    2.6225   -1.0883   -4.5947 H   0  0  0  0  0  0  0  0  0  0  0  0
    1.3851   -2.6815   -2.9433 H   0  0  0  0  0  0  0  0  0  0  0  0
    2.6010   -3.8450   -3.3723 H   0  0  0  0  0  0  0  0  0  0  0  0
    1.6643   -3.0546   -0.6095 H   0  0  0  0  0  0  0  0  0  0  0  0
    1.6232   -4.6396   -1.3220 H   0  0  0  0  0  0  0  0  0  0  0  0
    4.0701   -4.8458   -1.0709 H   0  0  0  0  0  0  0  0  0  0  0  0
    2.2979   -4.3775    1.1920 H   0  0  0  0  0  0  0  0  0  0  0  0
    4.5301   -6.4087    0.8040 H   0  0  0  0  0  0  0  0  0  0  0  0
    2.9324   -6.5306    0.0889 H   0  0  0  0  0  0  0  0  0  0  0  0
    3.0939   -6.5740    1.8245 H   0  0  0  0  0  0  0  0  0  0  0  0
  1  2  1  0
  1 21  1  0
  1 22  1  0
  1 23  1  0
  2  3  1  0
  2 24  1  0
  2 25  1  0
  3 17  1  0
  3  4  1  0
  3 26  1  6
  4  5  1  0
  5 20  1  0
  5  6  1  0
  5 27  1  1
  6  7  1  0
  7  8  2  0
  7  9  1  0
  9 19  1  0
  9 10  1  0
  9 28  1  6
 10 11  1  0
 11 19  1  0
 11 12  1  0
 11 29  1  6
 12 13  1  0
 12 14  1  0
 12 30  1  1
 13 31  1  0
 13 32  1  0
 13 33  1  0
 14 15  1  0
 14 34  1  0
 14 35  1  0
 15 16  1  0
 15 36  1  0
 15 37  1  0
 16 17  1  0
 16 19  1  0
 16 38  1  6
 17 18  1  0
 17 39  1  1
 18 40  1  0
 18 41  1  0
 18 42  1  0
 19 20  1  1
M  END
>  <i_m_ct_stereo_status>  (375) 
1

>  <s_m_source_file>  (375) 
/var/tmp/pbs.5076255.sched01/tmp1cu33jom/138ve8n868x.sdf

>  <i_m_source_file_index>  (375) 
9

>  <i_lp_mmshare_version>  (375) 
48012

>  <i_f3d_flags>  (375) 
0

>  <s_epik_input>  (375) 
W0NAXTEyM1tDQEBIXTRDKD1PKU9bQ0BASF0oTzMpT1tDQEBIXShbQ0gyXVtDSDNdKVtDQEhdKFtDSDNdKVtDQEhdMltDSDJdW0NIMl1bQ0BASF0oW0NASF0xTzQpW0NIM10=

>  <s_epik_cmdline>  (375) 
J2VwaWtfcHl0aG9uJywgJy1waHQnLCAnMi4wJywgJy1waCcsICc3LjAnLCAnLXRuJywgJzgnLCAnLW1hJywgJzIwMCcsICctaW1hZScsICc8aW5maWxlLm1hZT4nLCAnLW9tYWUnLCAnPG91dGZpbGUubWFlPic=

>  <r_lp_tautomer_probability>  (375) 
1

>  <r_epik_Ionization_Penalty>  (375) 
3.94675e-15

>  <r_epik_Ionization_Penalty_Charging>  (375) 
0

>  <r_epik_Ionization_Penalty_Neutral>  (375) 
3.94675e-15

>  <r_epik_State_Penalty>  (375) 
-0

>  <r_epik_Charging_Adjusted_Penalty>  (375) 
0

>  <i_epik_Tot_Q>  (375) 
0

>  <i_epik_Tot_abs_Q>  (375) 
0

>  <s_epik_Chemistry_Notes>  (375) 
This compound has an ester and may undergo hydrolysis at high or low pH. This compound contains an acetal/aminal-like group ( X-CH(R)-Y where X, Y are N, S, or O) that may be acid/base labile, releasing an aldehyde.

>  <s_lp_Force_Field>  (375) 
OPLS3e

>  <r_lp_Energy>  (375) 
55.1888

>  <b_lp_Chiralities_Consistent>  (375) 
1

>  <s_lp_Variant>  (375) 
99:0-1

>  <s_i_glide_gridfile>  (375) 
pfpi4k_grid

>  <i_i_glide_lignum>  (375) 
9

>  <i_i_glide_rotatable_bonds>  (375) 
1

>  <r_i_docking_score>  (375) 
-2.93338

>  <r_i_glide_ligand_efficiency>  (375) 
-0.146669

>  <r_i_glide_ligand_efficiency_sa>  (375) 
-0.398121

>  <r_i_glide_ligand_efficiency_ln>  (375) 
-0.734128

>  <r_i_glide_gscore>  (375) 
-2.93338

>  <r_i_glide_lipo>  (375) 
-0.166137

>  <r_i_glide_hbond>  (375) 
-0.0571682

>  <r_i_glide_metal>  (375) 
-0

>  <r_i_glide_rewards>  (375) 
-1.55381

>  <r_i_glide_evdw>  (375) 
-20.0604

>  <r_i_glide_ecoul>  (375) 
-0.995971

>  <r_i_glide_erotb>  (375) 
0

>  <r_i_glide_esite>  (375) 
-0.00385296

>  <r_i_glide_emodel>  (375) 
-25.1465

>  <r_i_glide_energy>  (375) 
-21.0563

>  <r_i_glide_einternal>  (375) 
0.0332666

>  <r_i_glide_intrahb_reward>  (375) 
-0

>  <i_i_glide_confnum>  (375) 
1

>  <i_i_glide_posenum>  (375) 
11

>  <r_i_glide_eff_state_penalty>  (375) 
0

>  <ligand_id>  (375) 
99

>  <original_smiles>  (375) 
CCC1OC2OC(=O)C3OC4C(C)CCC(C1C)C34O2

>  <smiles>  (375) 
[H]C12OC(=O)C3([H])OC4([H])C([H])(C([H])([H])[H])C([H])([H])C([H])([H])C([H])(C([H])(C([H])([H])[H])C([H])(C([H])([H])C([H])([H])[H])O1)C34O2

$$$$
99:0:2
     RDKit          3D

 42 45  0  0  1  0  0  0  0  0999 V2000
    1.4679  -11.0799    3.6179 C   0  0  0  0  0  0  0  0  0  0  0  0
    2.7785  -10.5501    3.0189 C   0  0  0  0  0  0  0  0  0  0  0  0
    2.7541   -9.0381    2.7161 C   0  0  2  0  0  0  0  0  0  0  0  0
    1.7842   -8.9046    1.6784 O   0  0  0  0  0  0  0  0  0  0  0  0
    1.1175   -7.6910    1.5107 C   0  0  1  0  0  0  0  0  0  0  0  0
    0.2544   -7.3565    2.5660 O   0  0  0  0  0  0  0  0  0  0  0  0
    0.6379   -6.4294    3.4905 C   0  0  0  0  0  0  0  0  0  0  0  0
   -0.1158   -6.1445    4.4231 O   0  0  0  0  0  0  0  0  0  0  0  0
    1.9827   -5.7764    3.2601 C   0  0  2  0  0  0  0  0  0  0  0  0
    1.7979   -4.4737    2.6118 O   0  0  0  0  0  0  0  0  0  0  0  0
    3.0489   -4.7162    1.9273 C   0  0  2  0  0  0  0  0  0  0  0  0
    3.3833   -4.3169    0.5019 C   0  0  1  0  0  0  0  0  0  0  0  0
    3.5292   -2.8068    0.2524 C   0  0  0  0  0  0  0  0  0  0  0  0
    4.6968   -5.0773    0.1575 C   0  0  0  0  0  0  0  0  0  0  0  0
    4.7288   -6.5890    0.5472 C   0  0  0  0  0  0  0  0  0  0  0  0
    4.1432   -6.9545    1.9456 C   0  0  2  0  0  0  0  0  0  0  0  0
    4.1053   -8.4916    2.1864 C   0  0  1  0  0  0  0  0  0  0  0  0
    5.3120   -8.8831    3.0591 C   0  0  0  0  0  0  0  0  0  0  0  0
    2.8187   -6.2081    2.0578 C   0  0  1  0  0  0  0  0  0  0  0  0
    1.9232   -6.6598    1.0602 O   0  0  0  0  0  0  0  0  0  0  0  0
    1.5581  -12.1414    3.8552 H   0  0  0  0  0  0  0  0  0  0  0  0
    0.6323  -10.9638    2.9270 H   0  0  0  0  0  0  0  0  0  0  0  0
    1.2226  -10.5571    4.5435 H   0  0  0  0  0  0  0  0  0  0  0  0
    3.5649  -10.7852    3.7319 H   0  0  0  0  0  0  0  0  0  0  0  0
    3.0160  -11.1017    2.1053 H   0  0  0  0  0  0  0  0  0  0  0  0
    2.4578   -8.5229    3.6284 H   0  0  0  0  0  0  0  0  0  0  0  0
    0.4557   -7.8647    0.6650 H   0  0  0  0  0  0  0  0  0  0  0  0
    2.5788   -5.7008    4.1727 H   0  0  0  0  0  0  0  0  0  0  0  0
    3.8517   -4.3979    2.5983 H   0  0  0  0  0  0  0  0  0  0  0  0
    2.6019   -4.6670   -0.1725 H   0  0  0  0  0  0  0  0  0  0  0  0
    4.3465   -2.3699    0.8297 H   0  0  0  0  0  0  0  0  0  0  0  0
    2.6133   -2.2633    0.4909 H   0  0  0  0  0  0  0  0  0  0  0  0
    3.7417   -2.6288   -0.8027 H   0  0  0  0  0  0  0  0  0  0  0  0
    4.9049   -4.9842   -0.9079 H   0  0  0  0  0  0  0  0  0  0  0  0
    5.5229   -4.5899    0.6714 H   0  0  0  0  0  0  0  0  0  0  0  0
    4.1717   -7.1293   -0.2183 H   0  0  0  0  0  0  0  0  0  0  0  0
    5.7494   -6.9587    0.4846 H   0  0  0  0  0  0  0  0  0  0  0  0
    4.8174   -6.5256    2.6904 H   0  0  0  0  0  0  0  0  0  0  0  0
    4.2553   -8.9768    1.2211 H   0  0  0  0  0  0  0  0  0  0  0  0
    5.1727   -8.5602    4.0914 H   0  0  0  0  0  0  0  0  0  0  0  0
    6.2255   -8.4219    2.6869 H   0  0  0  0  0  0  0  0  0  0  0  0
    5.4856   -9.9575    3.0544 H   0  0  0  0  0  0  0  0  0  0  0  0
  1  2  1  0
  1 21  1  0
  1 22  1  0
  1 23  1  0
  2  3  1  0
  2 24  1  0
  2 25  1  0
  3 17  1  0
  3  4  1  0
  3 26  1  1
  4  5  1  0
  5 20  1  0
  5  6  1  0
  5 27  1  6
  6  7  1  0
  7  8  2  0
  7  9  1  0
  9 19  1  0
  9 10  1  0
  9 28  1  1
 10 11  1  0
 11 19  1  0
 11 12  1  0
 11 29  1  1
 12 13  1  0
 12 14  1  0
 12 30  1  6
 13 31  1  0
 13 32  1  0
 13 33  1  0
 14 15  1  0
 14 34  1  0
 14 35  1  0
 15 16  1  0
 15 36  1  0
 15 37  1  0
 16 17  1  0
 16 19  1  0
 16 38  1  1
 17 18  1  0
 17 39  1  6
 18 40  1  0
 18 41  1  0
 18 42  1  0
 19 20  1  6
M  END
>  <i_m_ct_stereo_status>  (376) 
1

>  <s_m_source_file>  (376) 
/var/tmp/pbs.5076255.sched01/tmp1cu33jom/138ve8n868x.sdf

>  <i_m_source_file_index>  (376) 
9

>  <i_lp_mmshare_version>  (376) 
48012

>  <i_f3d_flags>  (376) 
0

>  <s_epik_input>  (376) 
W0NAXTEyM1tDQEBIXTRDKD1PKU9bQ0BASF0oTzMpT1tDQEBIXShbQ0gyXVtDSDNdKVtDQEhdKFtDSDNdKVtDQEhdMltDSDJdW0NIMl1bQ0BASF0oW0NASF0xTzQpW0NIM10=

>  <s_epik_cmdline>  (376) 
J2VwaWtfcHl0aG9uJywgJy1waHQnLCAnMi4wJywgJy1waCcsICc3LjAnLCAnLXRuJywgJzgnLCAnLW1hJywgJzIwMCcsICctaW1hZScsICc8aW5maWxlLm1hZT4nLCAnLW9tYWUnLCAnPG91dGZpbGUubWFlPic=

>  <r_lp_tautomer_probability>  (376) 
1

>  <r_epik_Ionization_Penalty>  (376) 
3.94675e-15

>  <r_epik_Ionization_Penalty_Charging>  (376) 
0

>  <r_epik_Ionization_Penalty_Neutral>  (376) 
3.94675e-15

>  <r_epik_State_Penalty>  (376) 
-0

>  <r_epik_Charging_Adjusted_Penalty>  (376) 
0

>  <i_epik_Tot_Q>  (376) 
0

>  <i_epik_Tot_abs_Q>  (376) 
0

>  <s_epik_Chemistry_Notes>  (376) 
This compound has an ester and may undergo hydrolysis at high or low pH. This compound contains an acetal/aminal-like group ( X-CH(R)-Y where X, Y are N, S, or O) that may be acid/base labile, releasing an aldehyde.

>  <s_lp_Force_Field>  (376) 
OPLS3e

>  <r_lp_Energy>  (376) 
55.1888

>  <b_lp_Chiralities_Consistent>  (376) 
1

>  <s_lp_Variant>  (376) 
99:0-1

>  <s_i_glide_gridfile>  (376) 
pfpi4k_grid

>  <i_i_glide_lignum>  (376) 
9

>  <i_i_glide_rotatable_bonds>  (376) 
1

>  <r_i_docking_score>  (376) 
-2.82591

>  <r_i_glide_ligand_efficiency>  (376) 
-0.141296

>  <r_i_glide_ligand_efficiency_sa>  (376) 
-0.383536

>  <r_i_glide_ligand_efficiency_ln>  (376) 
-0.707233

>  <r_i_glide_gscore>  (376) 
-2.82591

>  <r_i_glide_lipo>  (376) 
-0.344602

>  <r_i_glide_hbond>  (376) 
0

>  <r_i_glide_metal>  (376) 
-0

>  <r_i_glide_rewards>  (376) 
-1.4841

>  <r_i_glide_evdw>  (376) 
-17.2311

>  <r_i_glide_ecoul>  (376) 
-0.29963

>  <r_i_glide_erotb>  (376) 
0

>  <r_i_glide_esite>  (376) 
-0.0907162

>  <r_i_glide_emodel>  (376) 
-21.5629

>  <r_i_glide_energy>  (376) 
-17.5307

>  <r_i_glide_einternal>  (376) 
0.00039846

>  <r_i_glide_intrahb_reward>  (376) 
-0

>  <i_i_glide_confnum>  (376) 
2

>  <i_i_glide_posenum>  (376) 
6

>  <r_i_glide_eff_state_penalty>  (376) 
0

>  <ligand_id>  (376) 
99

>  <original_smiles>  (376) 
CCC1OC2OC(=O)C3OC4C(C)CCC(C1C)C34O2

>  <smiles>  (376) 
[H]C12OC(=O)C3([H])OC4([H])C([H])(C([H])([H])[H])C([H])([H])C([H])([H])C([H])(C([H])(C([H])([H])[H])C([H])(C([H])([H])C([H])([H])[H])O1)C34O2

$$$$
100:0:0
     RDKit          3D

 47 51  0  0  1  0  0  0  0  0999 V2000
    3.8642   -0.0720    1.7076 C   0  0  0  0  0  0  0  0  0  0  0  0
    4.9834   -1.1287    1.6398 C   0  0  2  0  0  0  0  0  0  0  0  0
    5.7631   -1.0920    0.2796 C   0  0  1  0  0  0  0  0  0  0  0  0
    6.9577   -2.0897    0.3003 C   0  0  0  0  0  0  0  0  0  0  0  0
    6.6912   -3.5381   -0.2164 C   0  0  0  0  0  0  0  0  0  0  0  0
    5.4334   -4.2830    0.3276 C   0  0  0  0  0  0  0  0  0  0  0  0
    4.2356   -3.3314    0.5947 C   0  0  1  0  0  0  0  0  0  0  0  0
    4.0752   -2.5111   -0.6306 C   0  0  0  0  0  0  0  0  0  0  0  0
    4.8383   -1.3879   -0.8959 C   0  0  0  0  0  0  0  0  0  0  0  0
    4.6175   -0.7727   -2.1439 C   0  0  0  0  0  0  0  0  0  0  0  0
    3.6846   -1.3615   -3.0481 C   0  0  0  0  0  0  0  0  0  0  0  0
    2.9453   -2.5220   -2.7011 C   0  0  0  0  0  0  0  0  0  0  0  0
    2.0616   -3.0557   -3.5926 O   0  0  0  0  0  0  0  0  0  0  0  0
    3.1054   -3.1026   -1.4255 C   0  0  0  0  0  0  0  0  0  0  0  0
    2.4745   -4.1593   -0.8070 O   0  0  0  0  0  0  0  0  0  0  0  0
    2.8187   -3.8941    0.5497 C   0  0  1  0  0  0  0  0  0  0  0  0
    2.5794   -4.9115    1.6317 C   0  0  0  0  0  0  0  0  0  0  0  0
    2.1577   -6.0469    1.4152 O   0  0  0  0  0  0  0  0  0  0  0  0
    2.8220   -4.3290    3.0445 C   0  0  0  0  0  0  0  0  0  0  0  0
    1.4674   -4.3243    3.7869 C   0  0  0  0  0  0  0  0  0  0  0  0
    3.8154   -5.2408    3.7911 C   0  0  0  0  0  0  0  0  0  0  0  0
    3.3672   -2.8426    2.9741 C   0  0  0  0  0  0  0  0  0  0  0  0
    4.5021   -2.5822    1.9253 C   0  0  2  0  0  0  0  0  0  0  0  0
    3.0415   -0.2951    1.0287 H   0  0  0  0  0  0  0  0  0  0  0  0
    4.2315    0.9167    1.4371 H   0  0  0  0  0  0  0  0  0  0  0  0
    3.4643    0.0094    2.7181 H   0  0  0  0  0  0  0  0  0  0  0  0
    5.6909   -0.8720    2.4276 H   0  0  0  0  0  0  0  0  0  0  0  0
    6.1510   -0.0853    0.1524 H   0  0  0  0  0  0  0  0  0  0  0  0
    7.7294   -1.6909   -0.3504 H   0  0  0  0  0  0  0  0  0  0  0  0
    7.4036   -2.1077    1.2894 H   0  0  0  0  0  0  0  0  0  0  0  0
    6.6189   -3.5073   -1.3070 H   0  0  0  0  0  0  0  0  0  0  0  0
    7.5705   -4.1493   -0.0096 H   0  0  0  0  0  0  0  0  0  0  0  0
    5.1435   -5.0303   -0.4135 H   0  0  0  0  0  0  0  0  0  0  0  0
    5.6871   -4.8485    1.2240 H   0  0  0  0  0  0  0  0  0  0  0  0
    5.1516    0.1192   -2.4195 H   0  0  0  0  0  0  0  0  0  0  0  0
    3.5155   -0.9073   -4.0100 H   0  0  0  0  0  0  0  0  0  0  0  0
    1.5760   -3.8013   -3.2525 H   0  0  0  0  0  0  0  0  0  0  0  0
    2.1275   -3.0898    0.8068 H   0  0  0  0  0  0  0  0  0  0  0  0
    1.5721   -3.9542    4.8081 H   0  0  0  0  0  0  0  0  0  0  0  0
    1.0227   -5.3202    3.8371 H   0  0  0  0  0  0  0  0  0  0  0  0
    0.7484   -3.6781    3.2805 H   0  0  0  0  0  0  0  0  0  0  0  0
    3.9506   -4.9243    4.8278 H   0  0  0  0  0  0  0  0  0  0  0  0
    4.7937   -5.2298    3.3116 H   0  0  0  0  0  0  0  0  0  0  0  0
    3.4775   -6.2789    3.8017 H   0  0  0  0  0  0  0  0  0  0  0  0
    2.5295   -2.1731    2.7648 H   0  0  0  0  0  0  0  0  0  0  0  0
    3.7265   -2.5508    3.9583 H   0  0  0  0  0  0  0  0  0  0  0  0
    5.3656   -3.0568    2.3977 H   0  0  0  0  0  0  0  0  0  0  0  0
  1  2  1  0
  1 24  1  0
  1 25  1  0
  1 26  1  0
  2 23  1  0
  2  3  1  0
  2 27  1  1
  3  9  1  0
  3  4  1  0
  3 28  1  6
  4  5  1  0
  4 29  1  0
  4 30  1  0
  5  6  1  0
  5 31  1  0
  5 32  1  0
  7  6  1  6
  6 33  1  0
  6 34  1  0
  7 16  1  0
  7 23  1  0
  7  8  1  0
  8 14  2  0
  8  9  1  0
  9 10  2  0
 10 11  1  0
 10 35  1  0
 11 12  2  0
 11 36  1  0
 12 13  1  0
 12 14  1  0
 13 37  1  0
 14 15  1  0
 15 16  1  0
 16 17  1  0
 16 38  1  1
 17 18  2  0
 17 19  1  0
 19 20  1  0
 19 21  1  0
 19 22  1  0
 20 39  1  0
 20 40  1  0
 20 41  1  0
 21 42  1  0
 21 43  1  0
 21 44  1  0
 22 23  1  0
 22 45  1  0
 22 46  1  0
 23 47  1  1
M  END
>  <i_m_ct_stereo_status>  (377) 
1

>  <s_m_source_file>  (377) 
/var/tmp/pbs.5076255.sched01/tmp1cu33jom/138ve8n868x.sdf

>  <i_m_source_file_index>  (377) 
10

>  <i_lp_mmshare_version>  (377) 
48012

>  <i_f3d_flags>  (377) 
0

>  <s_epik_input>  (377) 
W0NIMl0xW0NIMl1bQ0gyXVtDQEBIXShjMmMzW0NAXTE0NSlbQ0BASF0oW0NIM10pW0NASF01W0NIMl1DKFtDSDNdKShbQ0gzXSlDKD1PKVtDQEBIXTRPYzNjKFtPSF0pW2NIXVtjSF0y

>  <s_epik_cmdline>  (377) 
J2VwaWtfcHl0aG9uJywgJy1waHQnLCAnMi4wJywgJy1waCcsICc3LjAnLCAnLXRuJywgJzgnLCAnLW1hJywgJzIwMCcsICctaW1hZScsICc8aW5maWxlLm1hZT4nLCAnLW9tYWUnLCAnPG91dGZpbGUubWFlPic=

>  <r_lp_tautomer_probability>  (377) 
1

>  <r_epik_Ionization_Penalty>  (377) 
0.00166186

>  <r_epik_Ionization_Penalty_Charging>  (377) 
0

>  <r_epik_Ionization_Penalty_Neutral>  (377) 
0.00166186

>  <r_epik_State_Penalty>  (377) 
0.00112109

>  <r_epik_Charging_Adjusted_Penalty>  (377) 
0.00112109

>  <i_epik_Tot_Q>  (377) 
0

>  <i_epik_Tot_abs_Q>  (377) 
0

>  <s_lp_Force_Field>  (377) 
OPLS3e

>  <r_lp_Energy>  (377) 
70.7929

>  <b_lp_Chiralities_Consistent>  (377) 
1

>  <s_lp_Variant>  (377) 
100:0-1

>  <s_i_glide_gridfile>  (377) 
pfpi4k_grid

>  <i_i_glide_lignum>  (377) 
10

>  <i_i_glide_rotatable_bonds>  (377) 
1

>  <r_i_docking_score>  (377) 
-3.64865

>  <r_i_glide_ligand_efficiency>  (377) 
-0.158637

>  <r_i_glide_ligand_efficiency_sa>  (377) 
-0.451143

>  <r_i_glide_ligand_efficiency_ln>  (377) 
-0.882277

>  <r_i_glide_gscore>  (377) 
-3.64865

>  <r_i_glide_lipo>  (377) 
-0.491412

>  <r_i_glide_hbond>  (377) 
0

>  <r_i_glide_metal>  (377) 
-0

>  <r_i_glide_rewards>  (377) 
-1.27907

>  <r_i_glide_evdw>  (377) 
-27.7572

>  <r_i_glide_ecoul>  (377) 
-3.1543

>  <r_i_glide_erotb>  (377) 
0

>  <r_i_glide_esite>  (377) 
-0.0171601

>  <r_i_glide_emodel>  (377) 
-37.0226

>  <r_i_glide_energy>  (377) 
-30.9116

>  <r_i_glide_einternal>  (377) 
0.00238494

>  <r_i_glide_intrahb_reward>  (377) 
-0

>  <i_i_glide_confnum>  (377) 
1

>  <i_i_glide_posenum>  (377) 
13

>  <r_i_glide_eff_state_penalty>  (377) 
0

>  <ligand_id>  (377) 
100

>  <original_smiles>  (377) 
CC1C2CCCC34c5c2ccc(O)c5OC3C(=O)C(C)(C)CC14

>  <smiles>  (377) 
[H]Oc1c([H])c([H])c2c3c1OC1([H])C(=O)C(C([H])([H])[H])(C([H])([H])[H])C([H])([H])C4([H])C([H])(C([H])([H])[H])C2([H])C([H])([H])C([H])([H])C([H])([H])C314

$$$$
100:0:1
     RDKit          3D

 47 51  0  0  1  0  0  0  0  0999 V2000
    3.8041   -0.0897    1.6947 C   0  0  0  0  0  0  0  0  0  0  0  0
    4.9433   -1.1244    1.6308 C   0  0  2  0  0  0  0  0  0  0  0  0
    5.7439   -1.0432    0.2848 C   0  0  1  0  0  0  0  0  0  0  0  0
    6.9668   -2.0047    0.3019 C   0  0  0  0  0  0  0  0  0  0  0  0
    6.7521   -3.4565   -0.2315 C   0  0  0  0  0  0  0  0  0  0  0  0
    5.5034   -4.2433    0.2781 C   0  0  0  0  0  0  0  0  0  0  0  0
    4.2703   -3.3298    0.5337 C   0  0  1  0  0  0  0  0  0  0  0  0
    4.1054   -2.4945   -0.6801 C   0  0  0  0  0  0  0  0  0  0  0  0
    4.8398   -1.3462   -0.9080 C   0  0  0  0  0  0  0  0  0  0  0  0
    4.6315   -0.7270   -2.1539 C   0  0  0  0  0  0  0  0  0  0  0  0
    3.7336   -1.3112   -3.0895 C   0  0  0  0  0  0  0  0  0  0  0  0
    3.0216   -2.5018   -2.7842 C   0  0  0  0  0  0  0  0  0  0  0  0
    2.1984   -3.0617   -3.7158 O   0  0  0  0  0  0  0  0  0  0  0  0
    3.1733   -3.0937   -1.5105 C   0  0  0  0  0  0  0  0  0  0  0  0
    2.5550   -4.1732   -0.9173 O   0  0  0  0  0  0  0  0  0  0  0  0
    2.8693   -3.9271    0.4499 C   0  0  1  0  0  0  0  0  0  0  0  0
    2.6306   -4.9694    1.5116 C   0  0  0  0  0  0  0  0  0  0  0  0
    2.2637   -6.1194    1.2720 O   0  0  0  0  0  0  0  0  0  0  0  0
    2.8371   -4.4038    2.9381 C   0  0  0  0  0  0  0  0  0  0  0  0
    1.4703   -4.4517    3.6567 C   0  0  0  0  0  0  0  0  0  0  0  0
    3.8432   -5.3009    3.6884 C   0  0  0  0  0  0  0  0  0  0  0  0
    3.3427   -2.9013    2.9048 C   0  0  0  0  0  0  0  0  0  0  0  0
    4.4881   -2.5937    1.8815 C   0  0  2  0  0  0  0  0  0  0  0  0
    3.0002   -0.3071    0.9874 H   0  0  0  0  0  0  0  0  0  0  0  0
    4.1736    0.9102    1.4619 H   0  0  0  0  0  0  0  0  0  0  0  0
    3.3706   -0.0371    2.6945 H   0  0  0  0  0  0  0  0  0  0  0  0
    5.6266   -0.8581    2.4353 H   0  0  0  0  0  0  0  0  0  0  0  0
    6.1065   -0.0224    0.1800 H   0  0  0  0  0  0  0  0  0  0  0  0
    7.7416   -1.5666   -0.3181 H   0  0  0  0  0  0  0  0  0  0  0  0
    7.4085   -2.0269    1.2908 H   0  0  0  0  0  0  0  0  0  0  0  0
    6.7038   -3.4137   -1.3235 H   0  0  0  0  0  0  0  0  0  0  0  0
    7.6466   -4.0416   -0.0110 H   0  0  0  0  0  0  0  0  0  0  0  0
    5.2522   -4.9863   -0.4796 H   0  0  0  0  0  0  0  0  0  0  0  0
    5.7583   -4.8143    1.1715 H   0  0  0  0  0  0  0  0  0  0  0  0
    5.1628    0.1666   -2.4081 H   0  0  0  0  0  0  0  0  0  0  0  0
    3.5929   -0.8388   -4.0474 H   0  0  0  0  0  0  0  0  0  0  0  0
    2.0346   -2.5098   -4.4662 H   0  0  0  0  0  0  0  0  0  0  0  0
    2.1556   -3.1434    0.7095 H   0  0  0  0  0  0  0  0  0  0  0  0
    1.5444   -4.0957    4.6860 H   0  0  0  0  0  0  0  0  0  0  0  0
    1.0539   -5.4616    3.6798 H   0  0  0  0  0  0  0  0  0  0  0  0
    0.7445   -3.8163    3.1475 H   0  0  0  0  0  0  0  0  0  0  0  0
    3.9488   -4.9988    4.7333 H   0  0  0  0  0  0  0  0  0  0  0  0
    4.8310   -5.2535    3.2312 H   0  0  0  0  0  0  0  0  0  0  0  0
    3.5366   -6.3488    3.6776 H   0  0  0  0  0  0  0  0  0  0  0  0
    2.4915   -2.2527    2.6861 H   0  0  0  0  0  0  0  0  0  0  0  0
    3.6739   -2.6158    3.9004 H   0  0  0  0  0  0  0  0  0  0  0  0
    5.3555   -3.0470    2.3637 H   0  0  0  0  0  0  0  0  0  0  0  0
  1  2  1  0
  1 24  1  0
  1 25  1  0
  1 26  1  0
  2 23  1  0
  2  3  1  0
  2 27  1  1
  3  9  1  0
  3  4  1  0
  3 28  1  6
  4  5  1  0
  4 29  1  0
  4 30  1  0
  5  6  1  0
  5 31  1  0
  5 32  1  0
  7  6  1  6
  6 33  1  0
  6 34  1  0
  7 16  1  0
  7 23  1  0
  7  8  1  0
  8 14  2  0
  8  9  1  0
  9 10  2  0
 10 11  1  0
 10 35  1  0
 11 12  2  0
 11 36  1  0
 12 13  1  0
 12 14  1  0
 13 37  1  0
 14 15  1  0
 15 16  1  0
 16 17  1  0
 16 38  1  1
 17 18  2  0
 17 19  1  0
 19 20  1  0
 19 21  1  0
 19 22  1  0
 20 39  1  0
 20 40  1  0
 20 41  1  0
 21 42  1  0
 21 43  1  0
 21 44  1  0
 22 23  1  0
 22 45  1  0
 22 46  1  0
 23 47  1  1
M  END
>  <i_m_ct_stereo_status>  (378) 
1

>  <s_m_source_file>  (378) 
/var/tmp/pbs.5076255.sched01/tmp1cu33jom/138ve8n868x.sdf

>  <i_m_source_file_index>  (378) 
10

>  <i_lp_mmshare_version>  (378) 
48012

>  <i_f3d_flags>  (378) 
0

>  <s_epik_input>  (378) 
W0NIMl0xW0NIMl1bQ0gyXVtDQEBIXShjMmMzW0NAXTE0NSlbQ0BASF0oW0NIM10pW0NASF01W0NIMl1DKFtDSDNdKShbQ0gzXSlDKD1PKVtDQEBIXTRPYzNjKFtPSF0pW2NIXVtjSF0y

>  <s_epik_cmdline>  (378) 
J2VwaWtfcHl0aG9uJywgJy1waHQnLCAnMi4wJywgJy1waCcsICc3LjAnLCAnLXRuJywgJzgnLCAnLW1hJywgJzIwMCcsICctaW1hZScsICc8aW5maWxlLm1hZT4nLCAnLW9tYWUnLCAnPG91dGZpbGUubWFlPic=

>  <r_lp_tautomer_probability>  (378) 
1

>  <r_epik_Ionization_Penalty>  (378) 
0.00166186

>  <r_epik_Ionization_Penalty_Charging>  (378) 
0

>  <r_epik_Ionization_Penalty_Neutral>  (378) 
0.00166186

>  <r_epik_State_Penalty>  (378) 
0.00112109

>  <r_epik_Charging_Adjusted_Penalty>  (378) 
0.00112109

>  <i_epik_Tot_Q>  (378) 
0

>  <i_epik_Tot_abs_Q>  (378) 
0

>  <s_lp_Force_Field>  (378) 
OPLS3e

>  <r_lp_Energy>  (378) 
70.7929

>  <b_lp_Chiralities_Consistent>  (378) 
1

>  <s_lp_Variant>  (378) 
100:0-1

>  <s_i_glide_gridfile>  (378) 
pfpi4k_grid

>  <i_i_glide_lignum>  (378) 
10

>  <i_i_glide_rotatable_bonds>  (378) 
1

>  <r_i_docking_score>  (378) 
-3.13332

>  <r_i_glide_ligand_efficiency>  (378) 
-0.136231

>  <r_i_glide_ligand_efficiency_sa>  (378) 
-0.387423

>  <r_i_glide_ligand_efficiency_ln>  (378) 
-0.757664

>  <r_i_glide_gscore>  (378) 
-3.13332

>  <r_i_glide_lipo>  (378) 
-0.499211

>  <r_i_glide_hbond>  (378) 
0

>  <r_i_glide_metal>  (378) 
-0

>  <r_i_glide_rewards>  (378) 
-1.27907

>  <r_i_glide_evdw>  (378) 
-28.0187

>  <r_i_glide_ecoul>  (378) 
0.419615

>  <r_i_glide_erotb>  (378) 
0

>  <r_i_glide_esite>  (378) 
-0.0170404

>  <r_i_glide_emodel>  (378) 
-32.7706

>  <r_i_glide_energy>  (378) 
-27.5991

>  <r_i_glide_einternal>  (378) 
0.0525032

>  <r_i_glide_intrahb_reward>  (378) 
-0

>  <i_i_glide_confnum>  (378) 
1

>  <i_i_glide_posenum>  (378) 
24

>  <r_i_glide_eff_state_penalty>  (378) 
0

>  <ligand_id>  (378) 
100

>  <original_smiles>  (378) 
CC1C2CCCC34c5c2ccc(O)c5OC3C(=O)C(C)(C)CC14

>  <smiles>  (378) 
[H]Oc1c([H])c([H])c2c3c1OC1([H])C(=O)C(C([H])([H])[H])(C([H])([H])[H])C([H])([H])C4([H])C([H])(C([H])([H])[H])C2([H])C([H])([H])C([H])([H])C([H])([H])C314

$$$$
100:0:2
     RDKit          3D

 47 51  0  0  1  0  0  0  0  0999 V2000
    1.9670   -5.1324    2.0429 C   0  0  0  0  0  0  0  0  0  0  0  0
    3.3620   -5.6291    1.6485 C   0  0  2  0  0  0  0  0  0  0  0  0
    4.2358   -5.9500    2.9016 C   0  0  1  0  0  0  0  0  0  0  0  0
    5.5820   -6.5969    2.4739 C   0  0  0  0  0  0  0  0  0  0  0  0
    6.7835   -5.6376    2.2150 C   0  0  0  0  0  0  0  0  0  0  0  0
    6.5397   -4.3796    1.3228 C   0  0  0  0  0  0  0  0  0  0  0  0
    5.1141   -3.7804    1.4851 C   0  0  1  0  0  0  0  0  0  0  0  0
    4.8698   -3.6421    2.9423 C   0  0  0  0  0  0  0  0  0  0  0  0
    4.4621   -4.6970    3.7451 C   0  0  0  0  0  0  0  0  0  0  0  0
    4.3672   -4.4246    5.1223 C   0  0  0  0  0  0  0  0  0  0  0  0
    4.6981   -3.1195    5.5880 C   0  0  0  0  0  0  0  0  0  0  0  0
    5.0807   -2.0780    4.6955 C   0  0  0  0  0  0  0  0  0  0  0  0
    5.3815   -0.8327    5.1697 O   0  0  0  0  0  0  0  0  0  0  0  0
    5.1645   -2.3394    3.3138 C   0  0  0  0  0  0  0  0  0  0  0  0
    5.4892   -1.5366    2.2389 O   0  0  0  0  0  0  0  0  0  0  0  0
    4.8923   -2.2951    1.1842 C   0  0  1  0  0  0  0  0  0  0  0  0
    5.1454   -1.9737   -0.2683 C   0  0  0  0  0  0  0  0  0  0  0  0
    5.9518   -1.1245   -0.6531 O   0  0  0  0  0  0  0  0  0  0  0  0
    4.2630   -2.8162   -1.2179 C   0  0  0  0  0  0  0  0  0  0  0  0
    3.3384   -1.8380   -1.9642 C   0  0  0  0  0  0  0  0  0  0  0  0
    5.1605   -3.5108   -2.2536 C   0  0  0  0  0  0  0  0  0  0  0  0
    3.3736   -3.8555   -0.4145 C   0  0  0  0  0  0  0  0  0  0  0  0
    4.1323   -4.6734    0.6863 C   0  0  2  0  0  0  0  0  0  0  0  0
    1.9761   -4.1371    2.4926 H   0  0  0  0  0  0  0  0  0  0  0  0
    1.4725   -5.8148    2.7357 H   0  0  0  0  0  0  0  0  0  0  0  0
    1.3649   -5.0973    1.1423 H   0  0  0  0  0  0  0  0  0  0  0  0
    3.1889   -6.5622    1.1089 H   0  0  0  0  0  0  0  0  0  0  0  0
    3.6852   -6.6603    3.5145 H   0  0  0  0  0  0  0  0  0  0  0  0
    5.8908   -7.2393    3.2969 H   0  0  0  0  0  0  0  0  0  0  0  0
    5.4309   -7.2702    1.6288 H   0  0  0  0  0  0  0  0  0  0  0  0
    7.1497   -5.3016    3.1858 H   0  0  0  0  0  0  0  0  0  0  0  0
    7.6082   -6.2123    1.7920 H   0  0  0  0  0  0  0  0  0  0  0  0
    7.2787   -3.6282    1.6023 H   0  0  0  0  0  0  0  0  0  0  0  0
    6.7550   -4.6111    0.2798 H   0  0  0  0  0  0  0  0  0  0  0  0
    4.0657   -5.1947    5.8172 H   0  0  0  0  0  0  0  0  0  0  0  0
    4.6637   -2.9178    6.6472 H   0  0  0  0  0  0  0  0  0  0  0  0
    5.3605   -0.7832    6.1130 H   0  0  0  0  0  0  0  0  0  0  0  0
    3.8299   -2.0712    1.3102 H   0  0  0  0  0  0  0  0  0  0  0  0
    2.6663   -2.3521   -2.6582 H   0  0  0  0  0  0  0  0  0  0  0  0
    3.8788   -1.0580   -2.5145 H   0  0  0  0  0  0  0  0  0  0  0  0
    2.7005   -1.3242   -1.2515 H   0  0  0  0  0  0  0  0  0  0  0  0
    4.5716   -4.0389   -3.0039 H   0  0  0  0  0  0  0  0  0  0  0  0
    5.8093   -4.2389   -1.7770 H   0  0  0  0  0  0  0  0  0  0  0  0
    5.8043   -2.8020   -2.7767 H   0  0  0  0  0  0  0  0  0  0  0  0
    2.5335   -3.3288    0.0467 H   0  0  0  0  0  0  0  0  0  0  0  0
    2.9212   -4.5573   -1.1118 H   0  0  0  0  0  0  0  0  0  0  0  0
    4.7311   -5.3633    0.0883 H   0  0  0  0  0  0  0  0  0  0  0  0
  1  2  1  0
  1 24  1  0
  1 25  1  0
  1 26  1  0
  2 23  1  0
  2  3  1  0
  2 27  1  6
  3  9  1  0
  3  4  1  0
  3 28  1  1
  4  5  1  0
  4 29  1  0
  4 30  1  0
  5  6  1  0
  5 31  1  0
  5 32  1  0
  7  6  1  1
  6 33  1  0
  6 34  1  0
  7 16  1  0
  7 23  1  0
  7  8  1  0
  8 14  2  0
  8  9  1  0
  9 10  2  0
 10 11  1  0
 10 35  1  0
 11 12  2  0
 11 36  1  0
 12 13  1  0
 12 14  1  0
 13 37  1  0
 14 15  1  0
 15 16  1  0
 16 17  1  0
 16 38  1  6
 17 18  2  0
 17 19  1  0
 19 20  1  0
 19 21  1  0
 19 22  1  0
 20 39  1  0
 20 40  1  0
 20 41  1  0
 21 42  1  0
 21 43  1  0
 21 44  1  0
 22 23  1  0
 22 45  1  0
 22 46  1  0
 23 47  1  6
M  END
>  <i_m_ct_stereo_status>  (379) 
1

>  <s_m_source_file>  (379) 
/var/tmp/pbs.5076255.sched01/tmp1cu33jom/138ve8n868x.sdf

>  <i_m_source_file_index>  (379) 
10

>  <i_lp_mmshare_version>  (379) 
48012

>  <i_f3d_flags>  (379) 
0

>  <s_epik_input>  (379) 
W0NIMl0xW0NIMl1bQ0gyXVtDQEBIXShjMmMzW0NAXTE0NSlbQ0BASF0oW0NIM10pW0NASF01W0NIMl1DKFtDSDNdKShbQ0gzXSlDKD1PKVtDQEBIXTRPYzNjKFtPSF0pW2NIXVtjSF0y

>  <s_epik_cmdline>  (379) 
J2VwaWtfcHl0aG9uJywgJy1waHQnLCAnMi4wJywgJy1waCcsICc3LjAnLCAnLXRuJywgJzgnLCAnLW1hJywgJzIwMCcsICctaW1hZScsICc8aW5maWxlLm1hZT4nLCAnLW9tYWUnLCAnPG91dGZpbGUubWFlPic=

>  <r_lp_tautomer_probability>  (379) 
1

>  <r_epik_Ionization_Penalty>  (379) 
0.00166186

>  <r_epik_Ionization_Penalty_Charging>  (379) 
0

>  <r_epik_Ionization_Penalty_Neutral>  (379) 
0.00166186

>  <r_epik_State_Penalty>  (379) 
0.00112109

>  <r_epik_Charging_Adjusted_Penalty>  (379) 
0.00112109

>  <i_epik_Tot_Q>  (379) 
0

>  <i_epik_Tot_abs_Q>  (379) 
0

>  <s_lp_Force_Field>  (379) 
OPLS3e

>  <r_lp_Energy>  (379) 
70.7929

>  <b_lp_Chiralities_Consistent>  (379) 
1

>  <s_lp_Variant>  (379) 
100:0-1

>  <s_i_glide_gridfile>  (379) 
pfpi4k_grid

>  <i_i_glide_lignum>  (379) 
10

>  <i_i_glide_rotatable_bonds>  (379) 
1

>  <r_i_docking_score>  (379) 
-3.03283

>  <r_i_glide_ligand_efficiency>  (379) 
-0.131862

>  <r_i_glide_ligand_efficiency_sa>  (379) 
-0.374999

>  <r_i_glide_ligand_efficiency_ln>  (379) 
-0.733366

>  <r_i_glide_gscore>  (379) 
-3.03283

>  <r_i_glide_lipo>  (379) 
-0.524442

>  <r_i_glide_hbond>  (379) 
-0.0591653

>  <r_i_glide_metal>  (379) 
-0

>  <r_i_glide_rewards>  (379) 
-1.27907

>  <r_i_glide_evdw>  (379) 
-17.8518

>  <r_i_glide_ecoul>  (379) 
-1.79293

>  <r_i_glide_erotb>  (379) 
0

>  <r_i_glide_esite>  (379) 
-0.00862101

>  <r_i_glide_emodel>  (379) 
-24.6468

>  <r_i_glide_energy>  (379) 
-19.6447

>  <r_i_glide_einternal>  (379) 
0.00582445

>  <r_i_glide_intrahb_reward>  (379) 
-0

>  <i_i_glide_confnum>  (379) 
2

>  <i_i_glide_posenum>  (379) 
19

>  <r_i_glide_eff_state_penalty>  (379) 
0

>  <ligand_id>  (379) 
100

>  <original_smiles>  (379) 
CC1C2CCCC34c5c2ccc(O)c5OC3C(=O)C(C)(C)CC14

>  <smiles>  (379) 
[H]Oc1c([H])c([H])c2c3c1OC1([H])C(=O)C(C([H])([H])[H])(C([H])([H])[H])C([H])([H])C4([H])C([H])(C([H])([H])[H])C2([H])C([H])([H])C([H])([H])C([H])([H])C314

$$$$
101:0:0
     RDKit          3D

 46 50  0  0  1  0  0  0  0  0999 V2000
    4.1673   -8.4842    1.8321 C   0  0  0  0  0  0  0  0  0  0  0  0
    2.9033   -8.3947    2.6833 C   0  0  0  0  0  0  0  0  0  0  0  0
    1.6693   -7.9497    1.8889 C   0  0  0  0  0  0  0  0  0  0  0  0
    1.0008   -6.7544    2.4916 C   0  0  2  0  0  0  0  0  0  0  0  0
   -0.1528   -6.9301    3.4704 C   0  0  0  0  0  0  0  0  0  0  0  0
   -0.3794   -6.5358    2.0720 O   0  0  0  0  0  0  0  0  0  0  0  0
    1.7938   -5.5520    2.6078 O   0  0  0  0  0  0  0  0  0  0  0  0
    2.3230   -5.1349    1.2412 O   0  0  0  0  0  0  0  0  0  0  0  0
    3.7187   -4.7266    1.3191 C   0  0  2  0  0  0  0  0  0  0  0  0
    4.5489   -5.9264    1.9037 C   0  0  0  0  0  0  0  0  0  0  0  0
    4.4804   -7.2055    1.0423 C   0  0  0  0  0  0  0  0  0  0  0  0
    3.9269   -3.4580    2.2203 C   0  0  2  0  0  0  0  0  0  0  0  0
    3.1352   -2.2284    1.6826 C   0  0  0  0  0  0  0  0  0  0  0  0
    3.6163   -1.8972    0.2556 C   0  0  1  0  0  0  0  0  0  0  0  0
    5.1226   -1.5216    0.2688 C   0  0  0  0  0  0  0  0  0  0  0  0
    5.8930   -2.7438    0.7932 C   0  0  1  0  0  0  0  0  0  0  0  0
    5.4193   -3.0458    2.2367 C   0  0  0  0  0  0  0  0  0  0  0  0
    5.6581   -3.9470   -0.1371 C   0  0  0  0  0  0  0  0  0  0  0  0
    4.1838   -4.3268   -0.1178 C   0  0  2  0  0  0  0  0  0  0  0  0
    3.3710   -3.1205   -0.6394 C   0  0  0  0  0  0  0  0  0  0  0  0
    4.0968   -9.3335    1.1552 H   0  0  0  0  0  0  0  0  0  0  0  0
    5.0258   -8.6567    2.4930 H   0  0  0  0  0  0  0  0  0  0  0  0
    2.6925   -9.3463    3.1602 H   0  0  0  0  0  0  0  0  0  0  0  0
    3.0764   -7.7048    3.4902 H   0  0  0  0  0  0  0  0  0  0  0  0
    1.8794   -7.6295    0.8808 H   0  0  0  0  0  0  0  0  0  0  0  0
    0.9649   -8.7764    1.7562 H   0  0  0  0  0  0  0  0  0  0  0  0
   -0.4227   -7.9601    3.6394 H   0  0  0  0  0  0  0  0  0  0  0  0
   -0.4629   -6.1663    4.1616 H   0  0  0  0  0  0  0  0  0  0  0  0
    5.5781   -5.6133    1.9235 H   0  0  0  0  0  0  0  0  0  0  0  0
    4.2448   -6.1230    2.9421 H   0  0  0  0  0  0  0  0  0  0  0  0
    5.4600   -7.3103    0.5769 H   0  0  0  0  0  0  0  0  0  0  0  0
    3.7962   -7.1117    0.2024 H   0  0  0  0  0  0  0  0  0  0  0  0
    3.5881   -3.6339    3.2435 H   0  0  0  0  0  0  0  0  0  0  0  0
    2.0604   -2.4123    1.6770 H   0  0  0  0  0  0  0  0  0  0  0  0
    3.2859   -1.3687    2.3287 H   0  0  0  0  0  0  0  0  0  0  0  0
    3.0631   -1.0346   -0.1209 H   0  0  0  0  0  0  0  0  0  0  0  0
    5.4640   -1.2649   -0.7343 H   0  0  0  0  0  0  0  0  0  0  0  0
    5.3099   -0.6482    0.8861 H   0  0  0  0  0  0  0  0  0  0  0  0
    6.9629   -2.4921    0.8001 H   0  0  0  0  0  0  0  0  0  0  0  0
    5.5571   -2.1554    2.8458 H   0  0  0  0  0  0  0  0  0  0  0  0
    6.0401   -3.8351    2.6561 H   0  0  0  0  0  0  0  0  0  0  0  0
    5.9238   -3.6428   -1.1506 H   0  0  0  0  0  0  0  0  0  0  0  0
    6.2787   -4.7860    0.1855 H   0  0  0  0  0  0  0  0  0  0  0  0
    4.0282   -5.1501   -0.8089 H   0  0  0  0  0  0  0  0  0  0  0  0
    2.2933   -3.3139   -0.6907 H   0  0  0  0  0  0  0  0  0  0  0  0
    3.6788   -2.8721   -1.6518 H   0  0  0  0  0  0  0  0  0  0  0  0
  1 11  1  0
  1  2  1  0
  1 21  1  0
  1 22  1  0
  2  3  1  0
  2 23  1  0
  2 24  1  0
  3  4  1  0
  3 25  1  0
  3 26  1  0
  4  6  1  6
  4  5  1  0
  4  7  1  0
  5  6  1  0
  5 27  1  0
  5 28  1  0
  7  8  1  0
  9  8  1  6
  9 19  1  0
  9 10  1  0
  9 12  1  0
 10 11  1  0
 10 29  1  0
 10 30  1  0
 11 31  1  0
 11 32  1  0
 12 17  1  0
 12 13  1  0
 12 33  1  1
 13 14  1  0
 13 34  1  0
 13 35  1  0
 14 20  1  0
 14 15  1  0
 14 36  1  6
 15 16  1  0
 15 37  1  0
 15 38  1  0
 16 17  1  0
 16 18  1  0
 16 39  1  1
 17 40  1  0
 17 41  1  0
 18 19  1  0
 18 42  1  0
 18 43  1  0
 19 20  1  0
 19 44  1  6
 20 45  1  0
 20 46  1  0
M  END
>  <i_m_ct_stereo_status>  (380) 
1

>  <s_m_source_file>  (380) 
/var/tmp/pbs.5076255.sched01/tmp1cu33jom/138ve8n868x.sdf

>  <i_m_source_file_index>  (380) 
11

>  <i_lp_mmshare_version>  (380) 
48012

>  <i_f3d_flags>  (380) 
0

>  <s_epik_input>  (380) 
TzFbQ0gyXVtDQEBdMTJbQ0gyXVtDSDJdW0NIMl1bQ0gyXVtDSDJdW0NAQF0zKE9PMilbQ0BASF00W0NIMl1bQ0BIXTVbQ0gyXVtDQEBIXShbQ0gyXTQpW0NIMl1bQ0BASF0zW0NIMl01

>  <s_epik_cmdline>  (380) 
J2VwaWtfcHl0aG9uJywgJy1waHQnLCAnMi4wJywgJy1waCcsICc3LjAnLCAnLXRuJywgJzgnLCAnLW1hJywgJzIwMCcsICctaW1hZScsICc8aW5maWxlLm1hZT4nLCAnLW9tYWUnLCAnPG91dGZpbGUubWFlPic=

>  <r_lp_tautomer_probability>  (380) 
1

>  <r_epik_Ionization_Penalty>  (380) 
1.16955e-13

>  <r_epik_Ionization_Penalty_Charging>  (380) 
0

>  <r_epik_Ionization_Penalty_Neutral>  (380) 
1.16955e-13

>  <r_epik_State_Penalty>  (380) 
-0

>  <r_epik_Charging_Adjusted_Penalty>  (380) 
0

>  <i_epik_Tot_Q>  (380) 
0

>  <i_epik_Tot_abs_Q>  (380) 
0

>  <s_lp_Force_Field>  (380) 
OPLS3e

>  <r_lp_Energy>  (380) 
18.3272

>  <b_lp_Chiralities_Consistent>  (380) 
1

>  <s_lp_Variant>  (380) 
101:0-1

>  <s_i_glide_gridfile>  (380) 
pfpi4k_grid

>  <i_i_glide_lignum>  (380) 
11

>  <i_i_glide_rotatable_bonds>  (380) 
0

>  <r_i_docking_score>  (380) 
-3.61444

>  <r_i_glide_ligand_efficiency>  (380) 
-0.180722

>  <r_i_glide_ligand_efficiency_sa>  (380) 
-0.490556

>  <r_i_glide_ligand_efficiency_ln>  (380) 
-0.904576

>  <r_i_glide_gscore>  (380) 
-3.61444

>  <r_i_glide_lipo>  (380) 
-0.363341

>  <r_i_glide_hbond>  (380) 
-0.192732

>  <r_i_glide_metal>  (380) 
-0

>  <r_i_glide_rewards>  (380) 
-1.511

>  <r_i_glide_evdw>  (380) 
-20.5388

>  <r_i_glide_ecoul>  (380) 
-3.17222

>  <r_i_glide_erotb>  (380) 
0

>  <r_i_glide_esite>  (380) 
-0.0446002

>  <r_i_glide_emodel>  (380) 
-28.3068

>  <r_i_glide_energy>  (380) 
-23.711

>  <r_i_glide_einternal>  (380) 
0

>  <r_i_glide_intrahb_reward>  (380) 
-0

>  <i_i_glide_confnum>  (380) 
2

>  <i_i_glide_posenum>  (380) 
1

>  <r_i_glide_eff_state_penalty>  (380) 
0

>  <ligand_id>  (380) 
101

>  <original_smiles>  (380) 
C1CCC2(CO2)OOC2(CC1)C1CC3CC(C1)CC2C3

>  <smiles>  (380) 
[H]C1([H])OC12OOC1(C([H])([H])C([H])([H])C([H])([H])C([H])([H])C2([H])[H])C2([H])C([H])([H])C3([H])C([H])([H])C([H])(C2([H])[H])C([H])([H])C1([H])C3([H])[H]

$$$$
101:0:1
     RDKit          3D

 46 50  0  0  1  0  0  0  0  0999 V2000
    5.3414   -7.6000    2.0283 C   0  0  0  0  0  0  0  0  0  0  0  0
    3.9021   -7.8812    2.5014 C   0  0  0  0  0  0  0  0  0  0  0  0
    2.8428   -7.6407    1.4234 C   0  0  0  0  0  0  0  0  0  0  0  0
    1.8612   -6.5429    1.7840 C   0  0  2  0  0  0  0  0  0  0  0  0
    0.6750   -6.8562    2.6487 C   0  0  0  0  0  0  0  0  0  0  0  0
    0.5502   -6.5923    1.2382 O   0  0  0  0  0  0  0  0  0  0  0  0
    2.4367   -5.2287    1.8423 O   0  0  0  0  0  0  0  0  0  0  0  0
    2.8611   -4.7856    0.4539 O   0  0  0  0  0  0  0  0  0  0  0  0
    4.2398   -4.2974    0.4552 C   0  0  2  0  0  0  0  0  0  0  0  0
    5.1670   -5.5338    0.4894 C   0  0  0  0  0  0  0  0  0  0  0  0
    5.5930   -6.1010    1.8678 C   0  0  0  0  0  0  0  0  0  0  0  0
    4.4985   -3.2429    1.5862 C   0  0  2  0  0  0  0  0  0  0  0  0
    3.5732   -2.0173    1.4855 C   0  0  0  0  0  0  0  0  0  0  0  0
    3.8151   -1.3121    0.1484 C   0  0  1  0  0  0  0  0  0  0  0  0
    5.2578   -0.8119    0.0590 C   0  0  0  0  0  0  0  0  0  0  0  0
    6.1975   -2.0279    0.1328 C   0  0  1  0  0  0  0  0  0  0  0  0
    5.9662   -2.7514    1.4777 C   0  0  0  0  0  0  0  0  0  0  0  0
    5.8851   -2.9563   -1.0636 C   0  0  0  0  0  0  0  0  0  0  0  0
    4.4441   -3.5242   -0.9076 C   0  0  2  0  0  0  0  0  0  0  0  0
    3.4898   -2.3053   -0.9948 C   0  0  0  0  0  0  0  0  0  0  0  0
    5.5547   -8.1363    1.1109 H   0  0  0  0  0  0  0  0  0  0  0  0
    6.0320   -7.9566    2.7924 H   0  0  0  0  0  0  0  0  0  0  0  0
    3.8395   -8.9249    2.8086 H   0  0  0  0  0  0  0  0  0  0  0  0
    3.7054   -7.2740    3.3749 H   0  0  0  0  0  0  0  0  0  0  0  0
    3.2484   -7.3630    0.4791 H   0  0  0  0  0  0  0  0  0  0  0  0
    2.2913   -8.5728    1.2198 H   0  0  0  0  0  0  0  0  0  0  0  0
    0.5840   -7.9025    2.9408 H   0  0  0  0  0  0  0  0  0  0  0  0
    0.1860   -6.0972    3.2864 H   0  0  0  0  0  0  0  0  0  0  0  0
    4.8209   -6.3058   -0.2085 H   0  0  0  0  0  0  0  0  0  0  0  0
    6.1098   -5.2718    0.0399 H   0  0  0  0  0  0  0  0  0  0  0  0
    5.2061   -5.5699    2.7485 H   0  0  0  0  0  0  0  0  0  0  0  0
    6.6702   -5.9819    1.9277 H   0  0  0  0  0  0  0  0  0  0  0  0
    4.3086   -3.6364    2.5816 H   0  0  0  0  0  0  0  0  0  0  0  0
    2.5278   -2.3072    1.5784 H   0  0  0  0  0  0  0  0  0  0  0  0
    3.7679   -1.3339    2.2987 H   0  0  0  0  0  0  0  0  0  0  0  0
    3.1407   -0.4541    0.0734 H   0  0  0  0  0  0  0  0  0  0  0  0
    5.4281   -0.2679   -0.8676 H   0  0  0  0  0  0  0  0  0  0  0  0
    5.4917   -0.1235    0.8663 H   0  0  0  0  0  0  0  0  0  0  0  0
    7.2268   -1.6932    0.0676 H   0  0  0  0  0  0  0  0  0  0  0  0
    6.1946   -2.0781    2.2935 H   0  0  0  0  0  0  0  0  0  0  0  0
    6.6853   -3.5638    1.5710 H   0  0  0  0  0  0  0  0  0  0  0  0
    5.9311   -2.3609   -1.9941 H   0  0  0  0  0  0  0  0  0  0  0  0
    6.6658   -3.7203   -1.1722 H   0  0  0  0  0  0  0  0  0  0  0  0
    4.2334   -4.2197   -1.7559 H   0  0  0  0  0  0  0  0  0  0  0  0
    2.4553   -2.6260   -0.9435 H   0  0  0  0  0  0  0  0  0  0  0  0
    3.6108   -1.8008   -1.9526 H   0  0  0  0  0  0  0  0  0  0  0  0
  1 11  1  0
  1  2  1  0
  1 21  1  0
  1 22  1  0
  2  3  1  0
  2 23  1  0
  2 24  1  0
  3  4  1  0
  3 25  1  0
  3 26  1  0
  4  6  1  6
  4  5  1  0
  4  7  1  0
  5  6  1  0
  5 27  1  0
  5 28  1  0
  7  8  1  0
  9  8  1  6
  9 19  1  0
  9 10  1  0
  9 12  1  0
 10 11  1  0
 10 29  1  0
 10 30  1  0
 11 31  1  0
 11 32  1  0
 12 17  1  0
 12 13  1  0
 12 33  1  1
 13 14  1  0
 13 34  1  0
 13 35  1  0
 14 20  1  0
 14 15  1  0
 14 36  1  6
 15 16  1  0
 15 37  1  0
 15 38  1  0
 16 17  1  0
 16 18  1  0
 16 39  1  6
 17 40  1  0
 17 41  1  0
 18 19  1  0
 18 42  1  0
 18 43  1  0
 19 20  1  0
 19 44  1  6
 20 45  1  0
 20 46  1  0
M  END
>  <i_m_ct_stereo_status>  (381) 
1

>  <s_m_source_file>  (381) 
/var/tmp/pbs.5076255.sched01/tmp1cu33jom/138ve8n868x.sdf

>  <i_m_source_file_index>  (381) 
11

>  <i_lp_mmshare_version>  (381) 
48012

>  <i_f3d_flags>  (381) 
0

>  <s_epik_input>  (381) 
TzFbQ0gyXVtDQEBdMTJbQ0gyXVtDSDJdW0NIMl1bQ0gyXVtDSDJdW0NAQF0zKE9PMilbQ0BASF00W0NIMl1bQ0BIXTVbQ0gyXVtDQEBIXShbQ0gyXTQpW0NIMl1bQ0BASF0zW0NIMl01

>  <s_epik_cmdline>  (381) 
J2VwaWtfcHl0aG9uJywgJy1waHQnLCAnMi4wJywgJy1waCcsICc3LjAnLCAnLXRuJywgJzgnLCAnLW1hJywgJzIwMCcsICctaW1hZScsICc8aW5maWxlLm1hZT4nLCAnLW9tYWUnLCAnPG91dGZpbGUubWFlPic=

>  <r_lp_tautomer_probability>  (381) 
1

>  <r_epik_Ionization_Penalty>  (381) 
1.16955e-13

>  <r_epik_Ionization_Penalty_Charging>  (381) 
0

>  <r_epik_Ionization_Penalty_Neutral>  (381) 
1.16955e-13

>  <r_epik_State_Penalty>  (381) 
-0

>  <r_epik_Charging_Adjusted_Penalty>  (381) 
0

>  <i_epik_Tot_Q>  (381) 
0

>  <i_epik_Tot_abs_Q>  (381) 
0

>  <s_lp_Force_Field>  (381) 
OPLS3e

>  <r_lp_Energy>  (381) 
18.3272

>  <b_lp_Chiralities_Consistent>  (381) 
1

>  <s_lp_Variant>  (381) 
101:0-1

>  <s_i_glide_gridfile>  (381) 
pfpi4k_grid

>  <i_i_glide_lignum>  (381) 
11

>  <i_i_glide_rotatable_bonds>  (381) 
0

>  <r_i_docking_score>  (381) 
-3.451

>  <r_i_glide_ligand_efficiency>  (381) 
-0.17255

>  <r_i_glide_ligand_efficiency_sa>  (381) 
-0.468373

>  <r_i_glide_ligand_efficiency_ln>  (381) 
-0.863671

>  <r_i_glide_gscore>  (381) 
-3.451

>  <r_i_glide_lipo>  (381) 
-0.435246

>  <r_i_glide_hbond>  (381) 
-0.132031

>  <r_i_glide_metal>  (381) 
-0

>  <r_i_glide_rewards>  (381) 
-1.511

>  <r_i_glide_evdw>  (381) 
-22.3875

>  <r_i_glide_ecoul>  (381) 
-1.48955

>  <r_i_glide_erotb>  (381) 
0

>  <r_i_glide_esite>  (381) 
-0.0299159

>  <r_i_glide_emodel>  (381) 
-27.7523

>  <r_i_glide_energy>  (381) 
-23.877

>  <r_i_glide_einternal>  (381) 
0

>  <r_i_glide_intrahb_reward>  (381) 
-0

>  <i_i_glide_confnum>  (381) 
3

>  <i_i_glide_posenum>  (381) 
18

>  <r_i_glide_eff_state_penalty>  (381) 
0

>  <ligand_id>  (381) 
101

>  <original_smiles>  (381) 
C1CCC2(CO2)OOC2(CC1)C1CC3CC(C1)CC2C3

>  <smiles>  (381) 
[H]C1([H])OC12OOC1(C([H])([H])C([H])([H])C([H])([H])C([H])([H])C2([H])[H])C2([H])C([H])([H])C3([H])C([H])([H])C([H])(C2([H])[H])C([H])([H])C1([H])C3([H])[H]

$$$$
101:0:2
     RDKit          3D

 46 50  0  0  1  0  0  0  0  0999 V2000
    7.8534   -6.2687    2.4096 C   0  0  0  0  0  0  0  0  0  0  0  0
    7.0782   -7.5235    2.0503 C   0  0  0  0  0  0  0  0  0  0  0  0
    5.6281   -7.5678    2.6050 C   0  0  0  0  0  0  0  0  0  0  0  0
    4.5374   -7.6151    1.5665 C   0  0  2  0  0  0  0  0  0  0  0  0
    3.5621   -8.7894    1.6035 C   0  0  0  0  0  0  0  0  0  0  0  0
    4.5797   -8.6550    0.5487 O   0  0  0  0  0  0  0  0  0  0  0  0
    3.9997   -6.3635    1.1234 O   0  0  0  0  0  0  0  0  0  0  0  0
    4.9350   -5.7105    0.1158 O   0  0  0  0  0  0  0  0  0  0  0  0
    5.2149   -4.3464    0.4912 C   0  0  2  0  0  0  0  0  0  0  0  0
    6.1437   -4.4381    1.7290 C   0  0  0  0  0  0  0  0  0  0  0  0
    7.4991   -5.1389    1.4577 C   0  0  0  0  0  0  0  0  0  0  0  0
    3.9250   -3.4892    0.7875 C   0  0  2  0  0  0  0  0  0  0  0  0
    3.0118   -3.3981   -0.4545 C   0  0  0  0  0  0  0  0  0  0  0  0
    3.7687   -2.7291   -1.6198 C   0  0  1  0  0  0  0  0  0  0  0  0
    4.2087   -1.3034   -1.2299 C   0  0  0  0  0  0  0  0  0  0  0  0
    5.1179   -1.4046    0.0026 C   0  0  1  0  0  0  0  0  0  0  0  0
    4.3125   -2.0422    1.1631 C   0  0  0  0  0  0  0  0  0  0  0  0
    6.3602   -2.2459   -0.3587 C   0  0  0  0  0  0  0  0  0  0  0  0
    5.9303   -3.6651   -0.7209 C   0  0  2  0  0  0  0  0  0  0  0  0
    4.9954   -3.5885   -1.9500 C   0  0  0  0  0  0  0  0  0  0  0  0
    8.9149   -6.4528    2.2814 H   0  0  0  0  0  0  0  0  0  0  0  0
    7.6896   -5.9611    3.4407 H   0  0  0  0  0  0  0  0  0  0  0  0
    7.0729   -7.6068    0.9638 H   0  0  0  0  0  0  0  0  0  0  0  0
    7.5980   -8.4042    2.4212 H   0  0  0  0  0  0  0  0  0  0  0  0
    5.5674   -8.4403    3.2701 H   0  0  0  0  0  0  0  0  0  0  0  0
    5.3663   -6.7435    3.2904 H   0  0  0  0  0  0  0  0  0  0  0  0
    3.8190   -9.5963    2.2994 H   0  0  0  0  0  0  0  0  0  0  0  0
    2.5510   -8.7500    1.2108 H   0  0  0  0  0  0  0  0  0  0  0  0
    6.3272   -3.4318    2.0872 H   0  0  0  0  0  0  0  0  0  0  0  0
    5.6286   -4.8764    2.5713 H   0  0  0  0  0  0  0  0  0  0  0  0
    8.2460   -4.3633    1.5816 H   0  0  0  0  0  0  0  0  0  0  0  0
    7.6498   -5.4988    0.4314 H   0  0  0  0  0  0  0  0  0  0  0  0
    3.3389   -3.9229    1.5958 H   0  0  0  0  0  0  0  0  0  0  0  0
    2.6441   -4.3802   -0.7586 H   0  0  0  0  0  0  0  0  0  0  0  0
    2.1325   -2.8114   -0.2266 H   0  0  0  0  0  0  0  0  0  0  0  0
    3.1169   -2.6594   -2.4898 H   0  0  0  0  0  0  0  0  0  0  0  0
    4.7463   -0.8206   -2.0444 H   0  0  0  0  0  0  0  0  0  0  0  0
    3.3466   -0.6728   -1.0201 H   0  0  0  0  0  0  0  0  0  0  0  0
    5.4357   -0.3880    0.2756 H   0  0  0  0  0  0  0  0  0  0  0  0
    3.4140   -1.4496    1.3126 H   0  0  0  0  0  0  0  0  0  0  0  0
    4.8969   -2.0130    2.0767 H   0  0  0  0  0  0  0  0  0  0  0  0
    6.8304   -1.8290   -1.2420 H   0  0  0  0  0  0  0  0  0  0  0  0
    7.0781   -2.2257    0.4594 H   0  0  0  0  0  0  0  0  0  0  0  0
    6.8065   -4.2106   -1.0339 H   0  0  0  0  0  0  0  0  0  0  0  0
    4.6709   -4.5796   -2.2856 H   0  0  0  0  0  0  0  0  0  0  0  0
    5.5233   -3.1385   -2.7861 H   0  0  0  0  0  0  0  0  0  0  0  0
  1 11  1  0
  1  2  1  0
  1 21  1  0
  1 22  1  0
  2  3  1  0
  2 23  1  0
  2 24  1  0
  3  4  1  0
  3 25  1  0
  3 26  1  0
  4  6  1  6
  4  5  1  0
  4  7  1  0
  5  6  1  0
  5 27  1  0
  5 28  1  0
  7  8  1  0
  9  8  1  6
  9 19  1  0
  9 10  1  0
  9 12  1  0
 10 11  1  0
 10 29  1  0
 10 30  1  0
 11 31  1  0
 11 32  1  0
 12 17  1  0
 12 13  1  0
 12 33  1  1
 13 14  1  0
 13 34  1  0
 13 35  1  0
 14 20  1  0
 14 15  1  0
 14 36  1  6
 15 16  1  0
 15 37  1  0
 15 38  1  0
 16 17  1  0
 16 18  1  0
 16 39  1  1
 17 40  1  0
 17 41  1  0
 18 19  1  0
 18 42  1  0
 18 43  1  0
 19 20  1  0
 19 44  1  6
 20 45  1  0
 20 46  1  0
M  END
>  <i_m_ct_stereo_status>  (382) 
1

>  <s_m_source_file>  (382) 
/var/tmp/pbs.5076255.sched01/tmp1cu33jom/138ve8n868x.sdf

>  <i_m_source_file_index>  (382) 
11

>  <i_lp_mmshare_version>  (382) 
48012

>  <i_f3d_flags>  (382) 
0

>  <s_epik_input>  (382) 
TzFbQ0gyXVtDQEBdMTJbQ0gyXVtDSDJdW0NIMl1bQ0gyXVtDSDJdW0NAQF0zKE9PMilbQ0BASF00W0NIMl1bQ0BIXTVbQ0gyXVtDQEBIXShbQ0gyXTQpW0NIMl1bQ0BASF0zW0NIMl01

>  <s_epik_cmdline>  (382) 
J2VwaWtfcHl0aG9uJywgJy1waHQnLCAnMi4wJywgJy1waCcsICc3LjAnLCAnLXRuJywgJzgnLCAnLW1hJywgJzIwMCcsICctaW1hZScsICc8aW5maWxlLm1hZT4nLCAnLW9tYWUnLCAnPG91dGZpbGUubWFlPic=

>  <r_lp_tautomer_probability>  (382) 
1

>  <r_epik_Ionization_Penalty>  (382) 
1.16955e-13

>  <r_epik_Ionization_Penalty_Charging>  (382) 
0

>  <r_epik_Ionization_Penalty_Neutral>  (382) 
1.16955e-13

>  <r_epik_State_Penalty>  (382) 
-0

>  <r_epik_Charging_Adjusted_Penalty>  (382) 
0

>  <i_epik_Tot_Q>  (382) 
0

>  <i_epik_Tot_abs_Q>  (382) 
0

>  <s_lp_Force_Field>  (382) 
OPLS3e

>  <r_lp_Energy>  (382) 
18.3272

>  <b_lp_Chiralities_Consistent>  (382) 
1

>  <s_lp_Variant>  (382) 
101:0-1

>  <s_i_glide_gridfile>  (382) 
pfpi4k_grid

>  <i_i_glide_lignum>  (382) 
11

>  <i_i_glide_rotatable_bonds>  (382) 
0

>  <r_i_docking_score>  (382) 
-3.31387

>  <r_i_glide_ligand_efficiency>  (382) 
-0.165694

>  <r_i_glide_ligand_efficiency_sa>  (382) 
-0.449762

>  <r_i_glide_ligand_efficiency_ln>  (382) 
-0.829353

>  <r_i_glide_gscore>  (382) 
-3.31387

>  <r_i_glide_lipo>  (382) 
-0.437008

>  <r_i_glide_hbond>  (382) 
0

>  <r_i_glide_metal>  (382) 
-0

>  <r_i_glide_rewards>  (382) 
-1.58296

>  <r_i_glide_evdw>  (382) 
-24.7278

>  <r_i_glide_ecoul>  (382) 
-0.383395

>  <r_i_glide_erotb>  (382) 
0

>  <r_i_glide_esite>  (382) 
0

>  <r_i_glide_emodel>  (382) 
-28.7309

>  <r_i_glide_energy>  (382) 
-25.1112

>  <r_i_glide_einternal>  (382) 
0

>  <r_i_glide_intrahb_reward>  (382) 
-0

>  <i_i_glide_confnum>  (382) 
1

>  <i_i_glide_posenum>  (382) 
16

>  <r_i_glide_eff_state_penalty>  (382) 
0

>  <ligand_id>  (382) 
101

>  <original_smiles>  (382) 
C1CCC2(CO2)OOC2(CC1)C1CC3CC(C1)CC2C3

>  <smiles>  (382) 
[H]C1([H])OC12OOC1(C([H])([H])C([H])([H])C([H])([H])C([H])([H])C2([H])[H])C2([H])C([H])([H])C3([H])C([H])([H])C([H])(C2([H])[H])C([H])([H])C1([H])C3([H])[H]

$$$$
102:0:0
     RDKit          3D

 40 44  0  0  1  0  0  0  0  0999 V2000
    2.4181    3.5675    2.5227 C   0  0  0  0  0  0  0  0  0  0  0  0
    1.2061    2.9316    3.0962 N   0  0  1  0  0  0  0  0  0  0  0  0
    0.7752    1.7339    2.3214 C   0  0  0  0  0  0  0  0  0  0  0  0
   -0.4997    1.0934    2.9122 C   0  0  0  0  0  0  0  0  0  0  0  0
   -0.3689    0.8685    4.4419 C   0  0  2  0  0  0  0  0  0  0  0  0
    0.7405   -0.0853    4.7339 C   0  0  0  0  0  0  0  0  0  0  0  0
    2.0984    0.2352    4.8904 C   0  0  0  0  0  0  0  0  0  0  0  0
    2.9746   -0.8537    5.0586 C   0  0  0  0  0  0  0  0  0  0  0  0
    2.4525   -2.1745    5.0803 C   0  0  0  0  0  0  0  0  0  0  0  0
    1.0562   -2.4162    4.9801 C   0  0  0  0  0  0  0  0  0  0  0  0
    0.5759   -3.6890    5.0536 O   0  0  0  0  0  0  0  0  0  0  0  0
    0.1626   -1.3341    4.8202 C   0  0  0  0  0  0  0  0  0  0  0  0
   -1.2070   -1.2910    4.7701 O   0  0  0  0  0  0  0  0  0  0  0  0
   -1.5968    0.0510    4.9868 C   0  0  1  0  0  0  0  0  0  0  0  0
   -1.7392    0.2175    6.3778 O   0  0  0  0  0  0  0  0  0  0  0  0
   -1.6937    1.5421    6.8951 C   0  0  0  0  0  0  0  0  0  0  0  0
   -0.3179    2.1543    6.6013 C   0  0  0  0  0  0  0  0  0  0  0  0
   -0.1354    2.2393    5.0844 C   0  0  1  0  0  0  0  0  0  0  0  0
    1.2632    2.7098    4.5817 C   0  0  1  0  0  0  0  0  0  0  0  0
    2.4038    1.7304    4.9898 C   0  0  0  0  0  0  0  0  0  0  0  0
    3.2449    2.8639    2.4771 H   0  0  0  0  0  0  0  0  0  0  0  0
    2.7312    4.4393    3.0934 H   0  0  0  0  0  0  0  0  0  0  0  0
    2.2179    3.9026    1.5080 H   0  0  0  0  0  0  0  0  0  0  0  0
    0.5910    2.0282    1.2885 H   0  0  0  0  0  0  0  0  0  0  0  0
    1.5827    1.0007    2.2888 H   0  0  0  0  0  0  0  0  0  0  0  0
   -1.3536    1.7428    2.7034 H   0  0  0  0  0  0  0  0  0  0  0  0
   -0.6948    0.1567    2.3914 H   0  0  0  0  0  0  0  0  0  0  0  0
    4.0363   -0.6823    5.1921 H   0  0  0  0  0  0  0  0  0  0  0  0
    3.1282   -3.0047    5.2045 H   0  0  0  0  0  0  0  0  0  0  0  0
   -0.3598   -3.7253    4.9477 H   0  0  0  0  0  0  0  0  0  0  0  0
   -2.5404    0.2782    4.4867 H   0  0  0  0  0  0  0  0  0  0  0  0
   -2.5052    2.1473    6.4899 H   0  0  0  0  0  0  0  0  0  0  0  0
   -1.8467    1.4835    7.9727 H   0  0  0  0  0  0  0  0  0  0  0  0
   -0.2465    3.1437    7.0512 H   0  0  0  0  0  0  0  0  0  0  0  0
    0.4566    1.5383    7.0614 H   0  0  0  0  0  0  0  0  0  0  0  0
   -0.8848    2.9416    4.7192 H   0  0  0  0  0  0  0  0  0  0  0  0
    1.4850    3.6813    5.0194 H   0  0  0  0  0  0  0  0  0  0  0  0
    2.6474    1.9145    6.0335 H   0  0  0  0  0  0  0  0  0  0  0  0
    3.3300    1.9303    4.4521 H   0  0  0  0  0  0  0  0  0  0  0  0
    0.4781    3.6215    2.9297 H   0  0  0  0  0  0  0  0  0  0  0  0
  1  2  1  0
  1 21  1  0
  1 22  1  0
  1 23  1  0
  2 19  1  0
  2  3  1  0
  2 40  1  1
  3  4  1  0
  3 24  1  0
  3 25  1  0
  5  4  1  6
  4 26  1  0
  4 27  1  0
  5 14  1  0
  5 18  1  0
  5  6  1  0
  6 12  2  0
  6  7  1  0
  7 20  1  0
  7  8  2  0
  8  9  1  0
  8 28  1  0
  9 10  2  0
  9 29  1  0
 10 11  1  0
 10 12  1  0
 11 30  1  0
 12 13  1  0
 13 14  1  0
 14 15  1  0
 14 31  1  6
 15 16  1  0
 16 17  1  0
 16 32  1  0
 16 33  1  0
 17 18  1  0
 17 34  1  0
 17 35  1  0
 18 19  1  0
 18 36  1  6
 19 20  1  0
 19 37  1  1
 20 38  1  0
 20 39  1  0
M  CHG  1   2   1
M  END
>  <i_m_ct_stereo_status>  (383) 
1

>  <s_m_source_file>  (383) 
/var/tmp/pbs.5076255.sched01/tmp1cu33jom/138ve8n868x.sdf

>  <i_m_source_file_index>  (383) 
12

>  <i_lp_mmshare_version>  (383) 
48012

>  <i_f3d_flags>  (383) 
0

>  <s_epik_input>  (383) 
W0NIMl0xW0NIMl1OKFtDSDNdKVtDQEhdKFtDSDJdMilbQ0BASF0zW0NIMl1bQ0gyXU9bQ0BASF00T2M1YyhbT0hdKVtjSF1bY0hdYzJjNVtDQF0xMzQ=

>  <s_epik_cmdline>  (383) 
J2VwaWtfcHl0aG9uJywgJy1waHQnLCAnMi4wJywgJy1waCcsICc3LjAnLCAnLXRuJywgJzgnLCAnLW1hJywgJzIwMCcsICctaW1hZScsICc8aW5maWxlLm1hZT4nLCAnLW9tYWUnLCAnPG91dGZpbGUubWFlPic=

>  <r_lp_tautomer_probability>  (383) 
1

>  <r_epik_Ionization_Penalty>  (383) 
0.0525229

>  <r_epik_Ionization_Penalty_Charging>  (383) 
0.0379979

>  <r_epik_Ionization_Penalty_Neutral>  (383) 
0.0145249

>  <r_epik_State_Penalty>  (383) 
0.0426153

>  <r_epik_Charging_Adjusted_Penalty>  (383) 
0.0806132

>  <i_epik_Tot_Q>  (383) 
1

>  <i_epik_Tot_abs_Q>  (383) 
1

>  <s_epik_Chemistry_Notes>  (383) 
This compound contains an acetal/aminal-like group ( X-CH(R)-Y where X, Y are N, S, or O) that may be acid/base labile, releasing an aldehyde.

>  <s_lp_Force_Field>  (383) 
OPLS3e

>  <r_lp_Energy>  (383) 
49.6755

>  <b_lp_Chiralities_Consistent>  (383) 
1

>  <s_lp_Variant>  (383) 
102:0-1

>  <s_i_glide_gridfile>  (383) 
pfpi4k_grid

>  <i_i_glide_lignum>  (383) 
12

>  <i_i_glide_rotatable_bonds>  (383) 
1

>  <r_i_docking_score>  (383) 
-3.5673

>  <r_i_glide_ligand_efficiency>  (383) 
-0.178365

>  <r_i_glide_ligand_efficiency_sa>  (383) 
-0.484157

>  <r_i_glide_ligand_efficiency_ln>  (383) 
-0.892777

>  <r_i_glide_gscore>  (383) 
-3.5673

>  <r_i_glide_lipo>  (383) 
-0.00141255

>  <r_i_glide_hbond>  (383) 
-0.180878

>  <r_i_glide_metal>  (383) 
-0

>  <r_i_glide_rewards>  (383) 
-1.53863

>  <r_i_glide_evdw>  (383) 
-14.0836

>  <r_i_glide_ecoul>  (383) 
-6.79876

>  <r_i_glide_erotb>  (383) 
0

>  <r_i_glide_esite>  (383) 
-0.122389

>  <r_i_glide_emodel>  (383) 
-27.9698

>  <r_i_glide_energy>  (383) 
-20.8823

>  <r_i_glide_einternal>  (383) 
0.0162594

>  <r_i_glide_intrahb_reward>  (383) 
-0

>  <i_i_glide_confnum>  (383) 
1

>  <i_i_glide_posenum>  (383) 
1

>  <r_i_glide_eff_state_penalty>  (383) 
0

>  <ligand_id>  (383) 
102

>  <original_smiles>  (383) 
CN1CCC23c4c5ccc(O)c4OC2OCCC3C1C5

>  <smiles>  (383) 
[H]Oc1c([H])c([H])c2c3c1OC1([H])OC([H])([H])C([H])([H])C4([H])C31C([H])([H])C([H])([H])[N+]([H])(C([H])([H])[H])C4([H])C2([H])[H]

$$$$
102:0:1
     RDKit          3D

 40 44  0  0  1  0  0  0  0  0999 V2000
    2.3918    3.5245    2.5218 C   0  0  0  0  0  0  0  0  0  0  0  0
    1.1577    2.9301    3.0928 N   0  0  1  0  0  0  0  0  0  0  0  0
    0.7135    1.7229    2.3410 C   0  0  0  0  0  0  0  0  0  0  0  0
   -0.5821    1.1243    2.9294 C   0  0  0  0  0  0  0  0  0  0  0  0
   -0.4742    0.9341    4.4653 C   0  0  2  0  0  0  0  0  0  0  0  0
    0.6080   -0.0376    4.7956 C   0  0  0  0  0  0  0  0  0  0  0  0
    1.9667    0.2550    4.9651 C   0  0  0  0  0  0  0  0  0  0  0  0
    2.8179   -0.8477    5.1741 C   0  0  0  0  0  0  0  0  0  0  0  0
    2.2637   -2.1550    5.2197 C   0  0  0  0  0  0  0  0  0  0  0  0
    0.8630   -2.3702    5.1052 C   0  0  0  0  0  0  0  0  0  0  0  0
    0.3482   -3.6291    5.2110 O   0  0  0  0  0  0  0  0  0  0  0  0
    0.0007   -1.2726    4.9031 C   0  0  0  0  0  0  0  0  0  0  0  0
   -1.3647   -1.1936    4.8320 O   0  0  0  0  0  0  0  0  0  0  0  0
   -1.7159    0.1587    5.0158 C   0  0  1  0  0  0  0  0  0  0  0  0
   -1.8747    0.3643    6.3976 O   0  0  0  0  0  0  0  0  0  0  0  0
   -1.8265    1.7009    6.8785 C   0  0  0  0  0  0  0  0  0  0  0  0
   -0.4341    2.2744    6.5921 C   0  0  0  0  0  0  0  0  0  0  0  0
   -0.2256    2.3152    5.0765 C   0  0  1  0  0  0  0  0  0  0  0  0
    1.1893    2.7417    4.5825 C   0  0  1  0  0  0  0  0  0  0  0  0
    2.3013    1.7473    5.0328 C   0  0  0  0  0  0  0  0  0  0  0  0
    3.2043    2.8023    2.4891 H   0  0  0  0  0  0  0  0  0  0  0  0
    2.7188    4.4026    3.0776 H   0  0  0  0  0  0  0  0  0  0  0  0
    2.2166    3.8435    1.4993 H   0  0  0  0  0  0  0  0  0  0  0  0
    0.5499    1.9955    1.2973 H   0  0  0  0  0  0  0  0  0  0  0  0
    1.5043    0.9709    2.3392 H   0  0  0  0  0  0  0  0  0  0  0  0
   -1.4185    1.7865    2.6950 H   0  0  0  0  0  0  0  0  0  0  0  0
   -0.7896    0.1802    2.4276 H   0  0  0  0  0  0  0  0  0  0  0  0
    3.8801   -0.6937    5.3220 H   0  0  0  0  0  0  0  0  0  0  0  0
    2.9277   -2.9895    5.3750 H   0  0  0  0  0  0  0  0  0  0  0  0
    1.0153   -4.2844    5.3431 H   0  0  0  0  0  0  0  0  0  0  0  0
   -2.6308    0.4006    4.4873 H   0  0  0  0  0  0  0  0  0  0  0  0
   -2.6186    2.3100    6.4409 H   0  0  0  0  0  0  0  0  0  0  0  0
   -2.0010    1.6743    7.9542 H   0  0  0  0  0  0  0  0  0  0  0  0
   -0.3496    3.2733    7.0164 H   0  0  0  0  0  0  0  0  0  0  0  0
    0.3186    1.6519    7.0778 H   0  0  0  0  0  0  0  0  0  0  0  0
   -0.9563    3.0209    4.6800 H   0  0  0  0  0  0  0  0  0  0  0  0
    1.4238    3.7201    5.0011 H   0  0  0  0  0  0  0  0  0  0  0  0
    2.5268    1.9562    6.0761 H   0  0  0  0  0  0  0  0  0  0  0  0
    3.2385    1.9210    4.5044 H   0  0  0  0  0  0  0  0  0  0  0  0
    0.4496    3.6323    2.8959 H   0  0  0  0  0  0  0  0  0  0  0  0
  1  2  1  0
  1 21  1  0
  1 22  1  0
  1 23  1  0
  2 19  1  0
  2  3  1  0
  2 40  1  1
  3  4  1  0
  3 24  1  0
  3 25  1  0
  5  4  1  6
  4 26  1  0
  4 27  1  0
  5 14  1  0
  5 18  1  0
  5  6  1  0
  6 12  2  0
  6  7  1  0
  7 20  1  0
  7  8  2  0
  8  9  1  0
  8 28  1  0
  9 10  2  0
  9 29  1  0
 10 11  1  0
 10 12  1  0
 11 30  1  0
 12 13  1  0
 13 14  1  0
 14 15  1  0
 14 31  1  6
 15 16  1  0
 16 17  1  0
 16 32  1  0
 16 33  1  0
 17 18  1  0
 17 34  1  0
 17 35  1  0
 18 19  1  0
 18 36  1  6
 19 20  1  0
 19 37  1  1
 20 38  1  0
 20 39  1  0
M  CHG  1   2   1
M  END
>  <i_m_ct_stereo_status>  (384) 
1

>  <s_m_source_file>  (384) 
/var/tmp/pbs.5076255.sched01/tmp1cu33jom/138ve8n868x.sdf

>  <i_m_source_file_index>  (384) 
12

>  <i_lp_mmshare_version>  (384) 
48012

>  <i_f3d_flags>  (384) 
0

>  <s_epik_input>  (384) 
W0NIMl0xW0NIMl1OKFtDSDNdKVtDQEhdKFtDSDJdMilbQ0BASF0zW0NIMl1bQ0gyXU9bQ0BASF00T2M1YyhbT0hdKVtjSF1bY0hdYzJjNVtDQF0xMzQ=

>  <s_epik_cmdline>  (384) 
J2VwaWtfcHl0aG9uJywgJy1waHQnLCAnMi4wJywgJy1waCcsICc3LjAnLCAnLXRuJywgJzgnLCAnLW1hJywgJzIwMCcsICctaW1hZScsICc8aW5maWxlLm1hZT4nLCAnLW9tYWUnLCAnPG91dGZpbGUubWFlPic=

>  <r_lp_tautomer_probability>  (384) 
1

>  <r_epik_Ionization_Penalty>  (384) 
0.0525229

>  <r_epik_Ionization_Penalty_Charging>  (384) 
0.0379979

>  <r_epik_Ionization_Penalty_Neutral>  (384) 
0.0145249

>  <r_epik_State_Penalty>  (384) 
0.0426153

>  <r_epik_Charging_Adjusted_Penalty>  (384) 
0.0806132

>  <i_epik_Tot_Q>  (384) 
1

>  <i_epik_Tot_abs_Q>  (384) 
1

>  <s_epik_Chemistry_Notes>  (384) 
This compound contains an acetal/aminal-like group ( X-CH(R)-Y where X, Y are N, S, or O) that may be acid/base labile, releasing an aldehyde.

>  <s_lp_Force_Field>  (384) 
OPLS3e

>  <r_lp_Energy>  (384) 
49.6755

>  <b_lp_Chiralities_Consistent>  (384) 
1

>  <s_lp_Variant>  (384) 
102:0-1

>  <s_i_glide_gridfile>  (384) 
pfpi4k_grid

>  <i_i_glide_lignum>  (384) 
12

>  <i_i_glide_rotatable_bonds>  (384) 
1

>  <r_i_docking_score>  (384) 
-3.53039

>  <r_i_glide_ligand_efficiency>  (384) 
-0.176519

>  <r_i_glide_ligand_efficiency_sa>  (384) 
-0.479147

>  <r_i_glide_ligand_efficiency_ln>  (384) 
-0.88354

>  <r_i_glide_gscore>  (384) 
-3.53039

>  <r_i_glide_lipo>  (384) 
-5.88428e-05

>  <r_i_glide_hbond>  (384) 
-0.190614

>  <r_i_glide_metal>  (384) 
-0

>  <r_i_glide_rewards>  (384) 
-1.53863

>  <r_i_glide_evdw>  (384) 
-14.0872

>  <r_i_glide_ecoul>  (384) 
-6.46924

>  <r_i_glide_erotb>  (384) 
0

>  <r_i_glide_esite>  (384) 
-0.126346

>  <r_i_glide_emodel>  (384) 
-27.5791

>  <r_i_glide_energy>  (384) 
-20.5564

>  <r_i_glide_einternal>  (384) 
0.00206823

>  <r_i_glide_intrahb_reward>  (384) 
-0

>  <i_i_glide_confnum>  (384) 
1

>  <i_i_glide_posenum>  (384) 
34

>  <r_i_glide_eff_state_penalty>  (384) 
0

>  <ligand_id>  (384) 
102

>  <original_smiles>  (384) 
CN1CCC23c4c5ccc(O)c4OC2OCCC3C1C5

>  <smiles>  (384) 
[H]Oc1c([H])c([H])c2c3c1OC1([H])OC([H])([H])C([H])([H])C4([H])C31C([H])([H])C([H])([H])[N+]([H])(C([H])([H])[H])C4([H])C2([H])[H]

$$$$
102:0:2
     RDKit          3D

 40 44  0  0  1  0  0  0  0  0999 V2000
    3.1007    0.3132    4.0473 C   0  0  0  0  0  0  0  0  0  0  0  0
    2.8229    1.7597    4.2413 N   0  0  1  0  0  0  0  0  0  0  0  0
    2.4409    2.4292    2.9685 C   0  0  0  0  0  0  0  0  0  0  0  0
    2.1929    3.9376    3.1659 C   0  0  0  0  0  0  0  0  0  0  0  0
    1.2250    4.1966    4.3485 C   0  0  2  0  0  0  0  0  0  0  0  0
   -0.1109    3.5828    4.0900 C   0  0  0  0  0  0  0  0  0  0  0  0
   -0.4961    2.2620    4.3532 C   0  0  0  0  0  0  0  0  0  0  0  0
   -1.7793    1.8892    3.9137 C   0  0  0  0  0  0  0  0  0  0  0  0
   -2.5950    2.8502    3.2566 C   0  0  0  0  0  0  0  0  0  0  0  0
   -2.1638    4.1821    3.0786 C   0  0  0  0  0  0  0  0  0  0  0  0
   -2.9838    5.0961    2.4833 O   0  0  0  0  0  0  0  0  0  0  0  0
   -0.8887    4.5772    3.5395 C   0  0  0  0  0  0  0  0  0  0  0  0
   -0.2667    5.7913    3.5347 O   0  0  0  0  0  0  0  0  0  0  0  0
    0.8318    5.7123    4.4105 C   0  0  1  0  0  0  0  0  0  0  0  0
    0.3483    6.0486    5.6860 O   0  0  0  0  0  0  0  0  0  0  0  0
    1.1017    5.6463    6.8203 C   0  0  0  0  0  0  0  0  0  0  0  0
    1.1537    4.1146    6.8612 C   0  0  0  0  0  0  0  0  0  0  0  0
    1.8805    3.6178    5.6066 C   0  0  1  0  0  0  0  0  0  0  0  0
    1.9136    2.0747    5.3916 C   0  0  1  0  0  0  0  0  0  0  0  0
    0.4913    1.4647    5.2059 C   0  0  0  0  0  0  0  0  0  0  0  0
    2.2469   -0.2153    3.6190 H   0  0  0  0  0  0  0  0  0  0  0  0
    3.3686   -0.1749    4.9853 H   0  0  0  0  0  0  0  0  0  0  0  0
    3.9343    0.1771    3.3577 H   0  0  0  0  0  0  0  0  0  0  0  0
    3.2318    2.2745    2.2395 H   0  0  0  0  0  0  0  0  0  0  0  0
    1.5582    1.9555    2.5393 H   0  0  0  0  0  0  0  0  0  0  0  0
    3.1460    4.4388    3.3427 H   0  0  0  0  0  0  0  0  0  0  0  0
    1.8134    4.3607    2.2369 H   0  0  0  0  0  0  0  0  0  0  0  0
   -2.1447    0.8850    4.0823 H   0  0  0  0  0  0  0  0  0  0  0  0
   -3.5719    2.5489    2.9104 H   0  0  0  0  0  0  0  0  0  0  0  0
   -3.7111    4.6880    2.0396 H   0  0  0  0  0  0  0  0  0  0  0  0
    1.6241    6.3981    4.0986 H   0  0  0  0  0  0  0  0  0  0  0  0
    2.0972    6.0924    6.8090 H   0  0  0  0  0  0  0  0  0  0  0  0
    0.5937    6.0234    7.7080 H   0  0  0  0  0  0  0  0  0  0  0  0
    1.6719    3.7851    7.7604 H   0  0  0  0  0  0  0  0  0  0  0  0
    0.1361    3.7229    6.9152 H   0  0  0  0  0  0  0  0  0  0  0  0
    2.9075    3.9795    5.6816 H   0  0  0  0  0  0  0  0  0  0  0  0
    2.3637    1.6113    6.2673 H   0  0  0  0  0  0  0  0  0  0  0  0
    0.0310    1.3826    6.1896 H   0  0  0  0  0  0  0  0  0  0  0  0
    0.5285    0.4438    4.8293 H   0  0  0  0  0  0  0  0  0  0  0  0
    3.7166    2.1583    4.4941 H   0  0  0  0  0  0  0  0  0  0  0  0
  1  2  1  0
  1 21  1  0
  1 22  1  0
  1 23  1  0
  2 19  1  0
  2  3  1  0
  2 40  1  1
  3  4  1  0
  3 24  1  0
  3 25  1  0
  5  4  1  6
  4 26  1  0
  4 27  1  0
  5 14  1  0
  5 18  1  0
  5  6  1  0
  6 12  2  0
  6  7  1  0
  7 20  1  0
  7  8  2  0
  8  9  1  0
  8 28  1  0
  9 10  2  0
  9 29  1  0
 10 11  1  0
 10 12  1  0
 11 30  1  0
 12 13  1  0
 13 14  1  0
 14 15  1  0
 14 31  1  6
 15 16  1  0
 16 17  1  0
 16 32  1  0
 16 33  1  0
 17 18  1  0
 17 34  1  0
 17 35  1  0
 18 19  1  0
 18 36  1  1
 19 20  1  0
 19 37  1  1
 20 38  1  0
 20 39  1  0
M  CHG  1   2   1
M  END
>  <i_m_ct_stereo_status>  (385) 
1

>  <s_m_source_file>  (385) 
/var/tmp/pbs.5076255.sched01/tmp1cu33jom/138ve8n868x.sdf

>  <i_m_source_file_index>  (385) 
12

>  <i_lp_mmshare_version>  (385) 
48012

>  <i_f3d_flags>  (385) 
0

>  <s_epik_input>  (385) 
W0NIMl0xW0NIMl1OKFtDSDNdKVtDQEhdKFtDSDJdMilbQ0BASF0zW0NIMl1bQ0gyXU9bQ0BASF00T2M1YyhbT0hdKVtjSF1bY0hdYzJjNVtDQF0xMzQ=

>  <s_epik_cmdline>  (385) 
J2VwaWtfcHl0aG9uJywgJy1waHQnLCAnMi4wJywgJy1waCcsICc3LjAnLCAnLXRuJywgJzgnLCAnLW1hJywgJzIwMCcsICctaW1hZScsICc8aW5maWxlLm1hZT4nLCAnLW9tYWUnLCAnPG91dGZpbGUubWFlPic=

>  <r_lp_tautomer_probability>  (385) 
1

>  <r_epik_Ionization_Penalty>  (385) 
0.0525229

>  <r_epik_Ionization_Penalty_Charging>  (385) 
0.0379979

>  <r_epik_Ionization_Penalty_Neutral>  (385) 
0.0145249

>  <r_epik_State_Penalty>  (385) 
0.0426153

>  <r_epik_Charging_Adjusted_Penalty>  (385) 
0.0806132

>  <i_epik_Tot_Q>  (385) 
1

>  <i_epik_Tot_abs_Q>  (385) 
1

>  <s_epik_Chemistry_Notes>  (385) 
This compound contains an acetal/aminal-like group ( X-CH(R)-Y where X, Y are N, S, or O) that may be acid/base labile, releasing an aldehyde.

>  <s_lp_Force_Field>  (385) 
OPLS3e

>  <r_lp_Energy>  (385) 
49.6755

>  <b_lp_Chiralities_Consistent>  (385) 
1

>  <s_lp_Variant>  (385) 
102:0-1

>  <s_i_glide_gridfile>  (385) 
pfpi4k_grid

>  <i_i_glide_lignum>  (385) 
12

>  <i_i_glide_rotatable_bonds>  (385) 
1

>  <r_i_docking_score>  (385) 
-3.24579

>  <r_i_glide_ligand_efficiency>  (385) 
-0.16229

>  <r_i_glide_ligand_efficiency_sa>  (385) 
-0.440522

>  <r_i_glide_ligand_efficiency_ln>  (385) 
-0.812315

>  <r_i_glide_gscore>  (385) 
-3.24579

>  <r_i_glide_lipo>  (385) 
0

>  <r_i_glide_hbond>  (385) 
-0.0361504

>  <r_i_glide_metal>  (385) 
-0

>  <r_i_glide_rewards>  (385) 
-1.53863

>  <r_i_glide_evdw>  (385) 
-12.2963

>  <r_i_glide_ecoul>  (385) 
-6.72337

>  <r_i_glide_erotb>  (385) 
0

>  <r_i_glide_esite>  (385) 
-0.0476939

>  <r_i_glide_emodel>  (385) 
-25.3154

>  <r_i_glide_energy>  (385) 
-19.0197

>  <r_i_glide_einternal>  (385) 
0.225836

>  <r_i_glide_intrahb_reward>  (385) 
-0

>  <i_i_glide_confnum>  (385) 
2

>  <i_i_glide_posenum>  (385) 
20

>  <r_i_glide_eff_state_penalty>  (385) 
0

>  <ligand_id>  (385) 
102

>  <original_smiles>  (385) 
CN1CCC23c4c5ccc(O)c4OC2OCCC3C1C5

>  <smiles>  (385) 
[H]Oc1c([H])c([H])c2c3c1OC1([H])OC([H])([H])C([H])([H])C4([H])C31C([H])([H])C([H])([H])[N+]([H])(C([H])([H])[H])C4([H])C2([H])[H]

$$$$
102:1:0
     RDKit          3D

 39 43  0  0  1  0  0  0  0  0999 V2000
    6.0167   -5.9382    2.5734 C   0  0  0  0  0  0  0  0  0  0  0  0
    5.2348   -5.5007    1.4243 N   0  0  0  0  0  0  0  0  0  0  0  0
    6.0582   -5.2517    0.2333 C   0  0  0  0  0  0  0  0  0  0  0  0
    6.6358   -3.8207    0.1688 C   0  0  0  0  0  0  0  0  0  0  0  0
    5.5444   -2.7640    0.4597 C   0  0  2  0  0  0  0  0  0  0  0  0
    4.4621   -2.7914   -0.5749 C   0  0  0  0  0  0  0  0  0  0  0  0
    3.3246   -3.6024   -0.5681 C   0  0  0  0  0  0  0  0  0  0  0  0
    2.4523   -3.4542   -1.6696 C   0  0  0  0  0  0  0  0  0  0  0  0
    2.7734   -2.5429   -2.7064 C   0  0  0  0  0  0  0  0  0  0  0  0
    3.9211   -1.7081   -2.6144 C   0  0  0  0  0  0  0  0  0  0  0  0
    4.1635   -0.7769   -3.5847 O   0  0  0  0  0  0  0  0  0  0  0  0
    4.7835   -1.8199   -1.5052 C   0  0  0  0  0  0  0  0  0  0  0  0
    5.8725   -1.0786   -1.1345 O   0  0  0  0  0  0  0  0  0  0  0  0
    6.1034   -1.3173    0.2389 C   0  0  1  0  0  0  0  0  0  0  0  0
    5.3471   -0.3658    0.9397 O   0  0  0  0  0  0  0  0  0  0  0  0
    4.9969   -0.6222    2.2914 C   0  0  0  0  0  0  0  0  0  0  0  0
    4.1552   -1.8995    2.3572 C   0  0  0  0  0  0  0  0  0  0  0  0
    5.0090   -3.0634    1.8592 C   0  0  1  0  0  0  0  0  0  0  0  0
    4.2801   -4.4290    1.7481 C   0  0  1  0  0  0  0  0  0  0  0  0
    3.1376   -4.4482    0.6915 C   0  0  0  0  0  0  0  0  0  0  0  0
    6.5916   -6.8326    2.3226 H   0  0  0  0  0  0  0  0  0  0  0  0
    5.3527   -6.2074    3.3986 H   0  0  0  0  0  0  0  0  0  0  0  0
    6.7092   -5.1694    2.9193 H   0  0  0  0  0  0  0  0  0  0  0  0
    6.8615   -5.9852    0.1851 H   0  0  0  0  0  0  0  0  0  0  0  0
    5.4428   -5.4227   -0.6505 H   0  0  0  0  0  0  0  0  0  0  0  0
    7.4421   -3.7244    0.8985 H   0  0  0  0  0  0  0  0  0  0  0  0
    7.0956   -3.6577   -0.8101 H   0  0  0  0  0  0  0  0  0  0  0  0
    1.5573   -4.0516   -1.7360 H   0  0  0  0  0  0  0  0  0  0  0  0
    2.1067   -2.4662   -3.5569 H   0  0  0  0  0  0  0  0  0  0  0  0
    3.3863   -0.5692   -4.0800 H   0  0  0  0  0  0  0  0  0  0  0  0
    7.1602   -1.2119    0.4954 H   0  0  0  0  0  0  0  0  0  0  0  0
    5.8853   -0.6882    2.9197 H   0  0  0  0  0  0  0  0  0  0  0  0
    4.4074    0.2240    2.6507 H   0  0  0  0  0  0  0  0  0  0  0  0
    3.8297   -2.0814    3.3795 H   0  0  0  0  0  0  0  0  0  0  0  0
    3.2574   -1.7757    1.7464 H   0  0  0  0  0  0  0  0  0  0  0  0
    5.8443   -3.1415    2.5541 H   0  0  0  0  0  0  0  0  0  0  0  0
    3.8352   -4.6807    2.7089 H   0  0  0  0  0  0  0  0  0  0  0  0
    2.2476   -4.0581    1.1758 H   0  0  0  0  0  0  0  0  0  0  0  0
    2.9044   -5.4739    0.3993 H   0  0  0  0  0  0  0  0  0  0  0  0
  1  2  1  0
  1 21  1  0
  1 22  1  0
  1 23  1  0
  2 19  1  0
  2  3  1  0
  3  4  1  0
  3 24  1  0
  3 25  1  0
  5  4  1  6
  4 26  1  0
  4 27  1  0
  5 14  1  0
  5 18  1  0
  5  6  1  0
  6 12  2  0
  6  7  1  0
  7 20  1  0
  7  8  2  0
  8  9  1  0
  8 28  1  0
  9 10  2  0
  9 29  1  0
 10 11  1  0
 10 12  1  0
 11 30  1  0
 12 13  1  0
 13 14  1  0
 14 15  1  0
 14 31  1  6
 15 16  1  0
 16 17  1  0
 16 32  1  0
 16 33  1  0
 17 18  1  0
 17 34  1  0
 17 35  1  0
 18 19  1  0
 18 36  1  1
 19 20  1  0
 19 37  1  1
 20 38  1  0
 20 39  1  0
M  END
>  <i_m_ct_stereo_status>  (386) 
1

>  <s_m_source_file>  (386) 
/var/tmp/pbs.5076255.sched01/tmp1cu33jom/138ve8n868x.sdf

>  <i_m_source_file_index>  (386) 
13

>  <i_lp_mmshare_version>  (386) 
48012

>  <i_f3d_flags>  (386) 
0

>  <s_epik_input>  (386) 
W0NIMl0xW0NIMl1OKFtDSDNdKVtDQEhdKFtDSDJdMilbQ0BASF0zW0NIMl1bQ0gyXU9bQ0BASF00T2M1YyhbT0hdKVtjSF1bY0hdYzJjNVtDQF0xMzQ=

>  <s_epik_cmdline>  (386) 
J2VwaWtfcHl0aG9uJywgJy1waHQnLCAnMi4wJywgJy1waCcsICc3LjAnLCAnLXRuJywgJzgnLCAnLW1hJywgJzIwMCcsICctaW1hZScsICc8aW5maWxlLm1hZT4nLCAnLW9tYWUnLCAnPG91dGZpbGUubWFlPic=

>  <r_lp_tautomer_probability>  (386) 
1

>  <r_epik_Ionization_Penalty>  (386) 
1.64927

>  <r_epik_Ionization_Penalty_Charging>  (386) 
0

>  <r_epik_Ionization_Penalty_Neutral>  (386) 
1.64927

>  <r_epik_State_Penalty>  (386) 
1.75884

>  <r_epik_Charging_Adjusted_Penalty>  (386) 
1.75884

>  <i_epik_Tot_Q>  (386) 
0

>  <i_epik_Tot_abs_Q>  (386) 
0

>  <s_epik_Chemistry_Notes>  (386) 
This compound contains an acetal/aminal-like group ( X-CH(R)-Y where X, Y are N, S, or O) that may be acid/base labile, releasing an aldehyde.

>  <s_lp_Force_Field>  (386) 
OPLS3e

>  <r_lp_Energy>  (386) 
45.2873

>  <b_lp_Chiralities_Consistent>  (386) 
1

>  <s_lp_Variant>  (386) 
102:0-2

>  <s_i_glide_gridfile>  (386) 
pfpi4k_grid

>  <i_i_glide_lignum>  (386) 
13

>  <i_i_glide_rotatable_bonds>  (386) 
1

>  <r_i_docking_score>  (386) 
-3.52118

>  <r_i_glide_ligand_efficiency>  (386) 
-0.176059

>  <r_i_glide_ligand_efficiency_sa>  (386) 
-0.477897

>  <r_i_glide_ligand_efficiency_ln>  (386) 
-0.881234

>  <r_i_glide_gscore>  (386) 
-3.52118

>  <r_i_glide_lipo>  (386) 
-0.616113

>  <r_i_glide_hbond>  (386) 
-0.0879394

>  <r_i_glide_metal>  (386) 
-0

>  <r_i_glide_rewards>  (386) 
-1.62306

>  <r_i_glide_evdw>  (386) 
-21.1853

>  <r_i_glide_ecoul>  (386) 
-0.898636

>  <r_i_glide_erotb>  (386) 
0

>  <r_i_glide_esite>  (386) 
0

>  <r_i_glide_emodel>  (386) 
-26.4827

>  <r_i_glide_energy>  (386) 
-22.0839

>  <r_i_glide_einternal>  (386) 
0.43755

>  <r_i_glide_intrahb_reward>  (386) 
-0

>  <i_i_glide_confnum>  (386) 
1

>  <i_i_glide_posenum>  (386) 
5

>  <r_i_glide_eff_state_penalty>  (386) 
0

>  <ligand_id>  (386) 
102

>  <original_smiles>  (386) 
CN1CCC23c4c5ccc(O)c4OC2OCCC3C1C5

>  <smiles>  (386) 
[H]Oc1c([H])c([H])c2c3c1OC1([H])OC([H])([H])C([H])([H])C4([H])C([H])(N(C([H])([H])[H])C([H])([H])C([H])([H])C314)C2([H])[H]

$$$$
102:1:1
     RDKit          3D

 39 43  0  0  1  0  0  0  0  0999 V2000
    4.2289   -2.6365   -3.7149 C   0  0  0  0  0  0  0  0  0  0  0  0
    3.9470   -3.0306   -2.3419 N   0  0  0  0  0  0  0  0  0  0  0  0
    3.3365   -1.9523   -1.5504 C   0  0  0  0  0  0  0  0  0  0  0  0
    4.3688   -1.0186   -0.8810 C   0  0  0  0  0  0  0  0  0  0  0  0
    5.4764   -1.8268   -0.1712 C   0  0  2  0  0  0  0  0  0  0  0  0
    4.9274   -2.6506    0.9493 C   0  0  0  0  0  0  0  0  0  0  0  0
    4.3993   -3.9423    0.8509 C   0  0  0  0  0  0  0  0  0  0  0  0
    3.9089   -4.5087    2.0433 C   0  0  0  0  0  0  0  0  0  0  0  0
    3.9834   -3.7653    3.2531 C   0  0  0  0  0  0  0  0  0  0  0  0
    4.5853   -2.4802    3.2874 C   0  0  0  0  0  0  0  0  0  0  0  0
    4.6936   -1.8068    4.4695 O   0  0  0  0  0  0  0  0  0  0  0  0
    5.0905   -1.9053    2.0997 C   0  0  0  0  0  0  0  0  0  0  0  0
    5.7791   -0.7403    1.8838 O   0  0  0  0  0  0  0  0  0  0  0  0
    6.4188   -0.8666    0.6298 C   0  0  1  0  0  0  0  0  0  0  0  0
    7.6677   -1.4678    0.8660 O   0  0  0  0  0  0  0  0  0  0  0  0
    8.3381   -2.1630   -0.1819 C   0  0  0  0  0  0  0  0  0  0  0  0
    7.4518   -3.2932   -0.7069 C   0  0  0  0  0  0  0  0  0  0  0  0
    6.1512   -2.6884   -1.2398 C   0  0  1  0  0  0  0  0  0  0  0  0
    5.0711   -3.7179   -1.6855 C   0  0  1  0  0  0  0  0  0  0  0  0
    4.5278   -4.5941   -0.5205 C   0  0  0  0  0  0  0  0  0  0  0  0
    3.3166   -2.2831   -4.1981 H   0  0  0  0  0  0  0  0  0  0  0  0
    4.5819   -3.4991   -4.2844 H   0  0  0  0  0  0  0  0  0  0  0  0
    4.9790   -1.8477   -3.7703 H   0  0  0  0  0  0  0  0  0  0  0  0
    2.6493   -1.3789   -2.1731 H   0  0  0  0  0  0  0  0  0  0  0  0
    2.7187   -2.4032   -0.7735 H   0  0  0  0  0  0  0  0  0  0  0  0
    4.8109   -0.3713   -1.6403 H   0  0  0  0  0  0  0  0  0  0  0  0
    3.8545   -0.3552   -0.1791 H   0  0  0  0  0  0  0  0  0  0  0  0
    3.4945   -5.5058    2.0414 H   0  0  0  0  0  0  0  0  0  0  0  0
    3.5971   -4.1980    4.1638 H   0  0  0  0  0  0  0  0  0  0  0  0
    5.0896   -0.9579    4.3554 H   0  0  0  0  0  0  0  0  0  0  0  0
    6.5572    0.1120    0.1660 H   0  0  0  0  0  0  0  0  0  0  0  0
    8.6259   -1.4841   -0.9759 H   0  0  0  0  0  0  0  0  0  0  0  0
    9.2739   -2.5686    0.2033 H   0  0  0  0  0  0  0  0  0  0  0  0
    7.9716   -3.8360   -1.4957 H   0  0  0  0  0  0  0  0  0  0  0  0
    7.2561   -3.9952    0.1028 H   0  0  0  0  0  0  0  0  0  0  0  0
    6.4305   -2.0616   -2.0850 H   0  0  0  0  0  0  0  0  0  0  0  0
    5.4919   -4.3913   -2.4289 H   0  0  0  0  0  0  0  0  0  0  0  0
    5.2042   -5.4327   -0.3969 H   0  0  0  0  0  0  0  0  0  0  0  0
    3.5569   -5.0270   -0.7430 H   0  0  0  0  0  0  0  0  0  0  0  0
  1  2  1  0
  1 21  1  0
  1 22  1  0
  1 23  1  0
  2 19  1  0
  2  3  1  0
  3  4  1  0
  3 24  1  0
  3 25  1  0
  5  4  1  6
  4 26  1  0
  4 27  1  0
  5 14  1  0
  5 18  1  0
  5  6  1  0
  6 12  2  0
  6  7  1  0
  7 20  1  0
  7  8  2  0
  8  9  1  0
  8 28  1  0
  9 10  2  0
  9 29  1  0
 10 11  1  0
 10 12  1  0
 11 30  1  0
 12 13  1  0
 13 14  1  0
 14 15  1  0
 14 31  1  6
 15 16  1  0
 16 17  1  0
 16 32  1  0
 16 33  1  0
 17 18  1  0
 17 34  1  0
 17 35  1  0
 18 19  1  0
 18 36  1  6
 19 20  1  0
 19 37  1  6
 20 38  1  0
 20 39  1  0
M  END
>  <i_m_ct_stereo_status>  (387) 
1

>  <s_m_source_file>  (387) 
/var/tmp/pbs.5076255.sched01/tmp1cu33jom/138ve8n868x.sdf

>  <i_m_source_file_index>  (387) 
13

>  <i_lp_mmshare_version>  (387) 
48012

>  <i_f3d_flags>  (387) 
0

>  <s_epik_input>  (387) 
W0NIMl0xW0NIMl1OKFtDSDNdKVtDQEhdKFtDSDJdMilbQ0BASF0zW0NIMl1bQ0gyXU9bQ0BASF00T2M1YyhbT0hdKVtjSF1bY0hdYzJjNVtDQF0xMzQ=

>  <s_epik_cmdline>  (387) 
J2VwaWtfcHl0aG9uJywgJy1waHQnLCAnMi4wJywgJy1waCcsICc3LjAnLCAnLXRuJywgJzgnLCAnLW1hJywgJzIwMCcsICctaW1hZScsICc8aW5maWxlLm1hZT4nLCAnLW9tYWUnLCAnPG91dGZpbGUubWFlPic=

>  <r_lp_tautomer_probability>  (387) 
1

>  <r_epik_Ionization_Penalty>  (387) 
1.64927

>  <r_epik_Ionization_Penalty_Charging>  (387) 
0

>  <r_epik_Ionization_Penalty_Neutral>  (387) 
1.64927

>  <r_epik_State_Penalty>  (387) 
1.75884

>  <r_epik_Charging_Adjusted_Penalty>  (387) 
1.75884

>  <i_epik_Tot_Q>  (387) 
0

>  <i_epik_Tot_abs_Q>  (387) 
0

>  <s_epik_Chemistry_Notes>  (387) 
This compound contains an acetal/aminal-like group ( X-CH(R)-Y where X, Y are N, S, or O) that may be acid/base labile, releasing an aldehyde.

>  <s_lp_Force_Field>  (387) 
OPLS3e

>  <r_lp_Energy>  (387) 
45.2873

>  <b_lp_Chiralities_Consistent>  (387) 
1

>  <s_lp_Variant>  (387) 
102:0-2

>  <s_i_glide_gridfile>  (387) 
pfpi4k_grid

>  <i_i_glide_lignum>  (387) 
13

>  <i_i_glide_rotatable_bonds>  (387) 
1

>  <r_i_docking_score>  (387) 
-2.88908

>  <r_i_glide_ligand_efficiency>  (387) 
-0.144454

>  <r_i_glide_ligand_efficiency_sa>  (387) 
-0.392108

>  <r_i_glide_ligand_efficiency_ln>  (387) 
-0.723041

>  <r_i_glide_gscore>  (387) 
-2.88908

>  <r_i_glide_lipo>  (387) 
-0.468498

>  <r_i_glide_hbond>  (387) 
0

>  <r_i_glide_metal>  (387) 
-0

>  <r_i_glide_rewards>  (387) 
-1.58508

>  <r_i_glide_evdw>  (387) 
-20.1566

>  <r_i_glide_ecoul>  (387) 
1.14885

>  <r_i_glide_erotb>  (387) 
0

>  <r_i_glide_esite>  (387) 
0

>  <r_i_glide_emodel>  (387) 
-22.8694

>  <r_i_glide_energy>  (387) 
-19.0077

>  <r_i_glide_einternal>  (387) 
0.0166589

>  <r_i_glide_intrahb_reward>  (387) 
-0

>  <i_i_glide_confnum>  (387) 
1

>  <i_i_glide_posenum>  (387) 
1

>  <r_i_glide_eff_state_penalty>  (387) 
0

>  <ligand_id>  (387) 
102

>  <original_smiles>  (387) 
CN1CCC23c4c5ccc(O)c4OC2OCCC3C1C5

>  <smiles>  (387) 
[H]Oc1c([H])c([H])c2c3c1OC1([H])OC([H])([H])C([H])([H])C4([H])C([H])(N(C([H])([H])[H])C([H])([H])C([H])([H])C314)C2([H])[H]

$$$$
102:1:2
     RDKit          3D

 39 43  0  0  1  0  0  0  0  0999 V2000
    4.3496   -1.3602   -4.1689 C   0  0  0  0  0  0  0  0  0  0  0  0
    4.5009   -2.5218   -3.3008 N   0  0  0  0  0  0  0  0  0  0  0  0
    3.1948   -3.0387   -2.8791 C   0  0  0  0  0  0  0  0  0  0  0  0
    2.6604   -2.3252   -1.6402 C   0  0  0  0  0  0  0  0  0  0  0  0
    3.6694   -2.2069   -0.4901 C   0  0  2  0  0  0  0  0  0  0  0  0
    4.0518   -3.5639    0.0178 C   0  0  0  0  0  0  0  0  0  0  0  0
    5.0348   -4.3669   -0.5305 C   0  0  0  0  0  0  0  0  0  0  0  0
    5.2388   -5.6258    0.0828 C   0  0  0  0  0  0  0  0  0  0  0  0
    4.4157   -6.0083    1.1764 C   0  0  0  0  0  0  0  0  0  0  0  0
    3.4456   -5.1096    1.7131 C   0  0  0  0  0  0  0  0  0  0  0  0
    2.7145   -5.4673    2.8071 O   0  0  0  0  0  0  0  0  0  0  0  0
    3.2850   -3.8328    1.1198 C   0  0  0  0  0  0  0  0  0  0  0  0
    2.5043   -2.7584    1.4686 O   0  0  0  0  0  0  0  0  0  0  0  0
    3.0400   -1.6239    0.8217 C   0  0  1  0  0  0  0  0  0  0  0  0
    4.0426   -1.1238    1.6689 O   0  0  0  0  0  0  0  0  0  0  0  0
    5.0310   -0.2703    1.1132 C   0  0  0  0  0  0  0  0  0  0  0  0
    5.8185   -1.0589    0.0688 C   0  0  0  0  0  0  0  0  0  0  0  0
    4.8503   -1.4364   -1.0547 C   0  0  1  0  0  0  0  0  0  0  0  0
    5.4342   -2.3462   -2.1699 C   0  0  1  0  0  0  0  0  0  0  0  0
    5.8384   -3.7463   -1.6636 C   0  0  0  0  0  0  0  0  0  0  0  0
    3.7249   -1.6092   -5.0277 H   0  0  0  0  0  0  0  0  0  0  0  0
    5.2918   -1.0427   -4.6034 H   0  0  0  0  0  0  0  0  0  0  0  0
    3.9299   -0.5007   -3.6479 H   0  0  0  0  0  0  0  0  0  0  0  0
    2.4685   -2.9410   -3.6835 H   0  0  0  0  0  0  0  0  0  0  0  0
    3.2731   -4.0927   -2.6422 H   0  0  0  0  0  0  0  0  0  0  0  0
    2.4140   -1.3157   -1.9705 H   0  0  0  0  0  0  0  0  0  0  0  0
    1.7833   -2.8713   -1.3040 H   0  0  0  0  0  0  0  0  0  0  0  0
    6.0361   -6.2420   -0.2861 H   0  0  0  0  0  0  0  0  0  0  0  0
    4.5516   -6.9886    1.6137 H   0  0  0  0  0  0  0  0  0  0  0  0
    2.9776   -6.3075    3.1391 H   0  0  0  0  0  0  0  0  0  0  0  0
    2.2713   -0.8637    0.6633 H   0  0  0  0  0  0  0  0  0  0  0  0
    4.5850    0.6282    0.6805 H   0  0  0  0  0  0  0  0  0  0  0  0
    5.7151    0.0393    1.9029 H   0  0  0  0  0  0  0  0  0  0  0  0
    6.6205   -0.4207   -0.2893 H   0  0  0  0  0  0  0  0  0  0  0  0
    6.2701   -1.9470    0.5210 H   0  0  0  0  0  0  0  0  0  0  0  0
    4.4942   -0.5054   -1.4948 H   0  0  0  0  0  0  0  0  0  0  0  0
    6.3294   -1.8948   -2.5802 H   0  0  0  0  0  0  0  0  0  0  0  0
    6.8658   -3.6744   -1.3047 H   0  0  0  0  0  0  0  0  0  0  0  0
    5.7957   -4.3913   -2.5370 H   0  0  0  0  0  0  0  0  0  0  0  0
  1  2  1  0
  1 21  1  0
  1 22  1  0
  1 23  1  0
  2 19  1  0
  2  3  1  0
  3  4  1  0
  3 24  1  0
  3 25  1  0
  5  4  1  6
  4 26  1  0
  4 27  1  0
  5 14  1  0
  5 18  1  0
  5  6  1  0
  6 12  2  0
  6  7  1  0
  7 20  1  0
  7  8  2  0
  8  9  1  0
  8 28  1  0
  9 10  2  0
  9 29  1  0
 10 11  1  0
 10 12  1  0
 11 30  1  0
 12 13  1  0
 13 14  1  0
 14 15  1  0
 14 31  1  6
 15 16  1  0
 16 17  1  0
 16 32  1  0
 16 33  1  0
 17 18  1  0
 17 34  1  0
 17 35  1  0
 18 19  1  0
 18 36  1  6
 19 20  1  0
 19 37  1  6
 20 38  1  0
 20 39  1  0
M  END
>  <i_m_ct_stereo_status>  (388) 
1

>  <s_m_source_file>  (388) 
/var/tmp/pbs.5076255.sched01/tmp1cu33jom/138ve8n868x.sdf

>  <i_m_source_file_index>  (388) 
13

>  <i_lp_mmshare_version>  (388) 
48012

>  <i_f3d_flags>  (388) 
0

>  <s_epik_input>  (388) 
W0NIMl0xW0NIMl1OKFtDSDNdKVtDQEhdKFtDSDJdMilbQ0BASF0zW0NIMl1bQ0gyXU9bQ0BASF00T2M1YyhbT0hdKVtjSF1bY0hdYzJjNVtDQF0xMzQ=

>  <s_epik_cmdline>  (388) 
J2VwaWtfcHl0aG9uJywgJy1waHQnLCAnMi4wJywgJy1waCcsICc3LjAnLCAnLXRuJywgJzgnLCAnLW1hJywgJzIwMCcsICctaW1hZScsICc8aW5maWxlLm1hZT4nLCAnLW9tYWUnLCAnPG91dGZpbGUubWFlPic=

>  <r_lp_tautomer_probability>  (388) 
1

>  <r_epik_Ionization_Penalty>  (388) 
1.64927

>  <r_epik_Ionization_Penalty_Charging>  (388) 
0

>  <r_epik_Ionization_Penalty_Neutral>  (388) 
1.64927

>  <r_epik_State_Penalty>  (388) 
1.75884

>  <r_epik_Charging_Adjusted_Penalty>  (388) 
1.75884

>  <i_epik_Tot_Q>  (388) 
0

>  <i_epik_Tot_abs_Q>  (388) 
0

>  <s_epik_Chemistry_Notes>  (388) 
This compound contains an acetal/aminal-like group ( X-CH(R)-Y where X, Y are N, S, or O) that may be acid/base labile, releasing an aldehyde.

>  <s_lp_Force_Field>  (388) 
OPLS3e

>  <r_lp_Energy>  (388) 
45.2873

>  <b_lp_Chiralities_Consistent>  (388) 
1

>  <s_lp_Variant>  (388) 
102:0-2

>  <s_i_glide_gridfile>  (388) 
pfpi4k_grid

>  <i_i_glide_lignum>  (388) 
13

>  <i_i_glide_rotatable_bonds>  (388) 
1

>  <r_i_docking_score>  (388) 
-2.817

>  <r_i_glide_ligand_efficiency>  (388) 
-0.14085

>  <r_i_glide_ligand_efficiency_sa>  (388) 
-0.382326

>  <r_i_glide_ligand_efficiency_ln>  (388) 
-0.705003

>  <r_i_glide_gscore>  (388) 
-2.817

>  <r_i_glide_lipo>  (388) 
-0.478097

>  <r_i_glide_hbond>  (388) 
0

>  <r_i_glide_metal>  (388) 
-0

>  <r_i_glide_rewards>  (388) 
-1.5455

>  <r_i_glide_evdw>  (388) 
-13.0075

>  <r_i_glide_ecoul>  (388) 
-0.551034

>  <r_i_glide_erotb>  (388) 
0

>  <r_i_glide_esite>  (388) 
-0.0603758

>  <r_i_glide_emodel>  (388) 
-17.0893

>  <r_i_glide_energy>  (388) 
-13.5586

>  <r_i_glide_einternal>  (388) 
0.00685394

>  <r_i_glide_intrahb_reward>  (388) 
-0

>  <i_i_glide_confnum>  (388) 
1

>  <i_i_glide_posenum>  (388) 
8

>  <r_i_glide_eff_state_penalty>  (388) 
0

>  <ligand_id>  (388) 
102

>  <original_smiles>  (388) 
CN1CCC23c4c5ccc(O)c4OC2OCCC3C1C5

>  <smiles>  (388) 
[H]Oc1c([H])c([H])c2c3c1OC1([H])OC([H])([H])C([H])([H])C4([H])C([H])(N(C([H])([H])[H])C([H])([H])C([H])([H])C314)C2([H])[H]

$$$$
102:2:0
     RDKit          3D

 39 43  0  0  1  0  0  0  0  0999 V2000
    2.6189   -3.0589   -3.1069 C   0  0  0  0  0  0  0  0  0  0  0  0
    3.7857   -2.4115   -2.4554 N   0  0  1  0  0  0  0  0  0  0  0  0
    3.3644   -1.4260   -1.4292 C   0  0  0  0  0  0  0  0  0  0  0  0
    4.5658   -0.7307   -0.7660 C   0  0  0  0  0  0  0  0  0  0  0  0
    5.6132   -1.7587   -0.2810 C   0  0  2  0  0  0  0  0  0  0  0  0
    5.0306   -2.6478    0.7665 C   0  0  0  0  0  0  0  0  0  0  0  0
    4.3133   -3.8263    0.5403 C   0  0  0  0  0  0  0  0  0  0  0  0
    3.7599   -4.4426    1.6786 C   0  0  0  0  0  0  0  0  0  0  0  0
    3.9783   -3.8612    2.9530 C   0  0  0  0  0  0  0  0  0  0  0  0
    4.7782   -2.6987    3.1140 C   0  0  0  0  0  0  0  0  0  0  0  0
    5.0109   -2.1968    4.3652 O   0  0  0  0  0  0  0  0  0  0  0  0
    5.3460   -2.0772    1.9750 C   0  0  0  0  0  0  0  0  0  0  0  0
    6.1927   -1.0080    1.8504 O   0  0  0  0  0  0  0  0  0  0  0  0
    6.7250   -1.0410    0.5440 C   0  0  1  0  0  0  0  0  0  0  0  0
    7.8964   -1.8106    0.5813 O   0  0  0  0  0  0  0  0  0  0  0  0
    8.4099   -2.4085   -0.5957 C   0  0  0  0  0  0  0  0  0  0  0  0
    7.3522   -3.3443   -1.1797 C   0  0  0  0  0  0  0  0  0  0  0  0
    6.0907   -2.5347   -1.5121 C   0  0  1  0  0  0  0  0  0  0  0  0
    4.8550   -3.3535   -1.9896 C   0  0  1  0  0  0  0  0  0  0  0  0
    4.3435   -4.3291   -0.8924 C   0  0  0  0  0  0  0  0  0  0  0  0
    1.9620   -3.5509   -2.3854 H   0  0  0  0  0  0  0  0  0  0  0  0
    2.9290   -3.7999   -3.8452 H   0  0  0  0  0  0  0  0  0  0  0  0
    2.0108   -2.3138   -3.6244 H   0  0  0  0  0  0  0  0  0  0  0  0
    2.7273   -0.6806   -1.9079 H   0  0  0  0  0  0  0  0  0  0  0  0
    2.7577   -1.9128   -0.6631 H   0  0  0  0  0  0  0  0  0  0  0  0
    5.0105   -0.0680   -1.5058 H   0  0  0  0  0  0  0  0  0  0  0  0
    4.2176   -0.1008    0.0574 H   0  0  0  0  0  0  0  0  0  0  0  0
    3.1999   -5.3599    1.5748 H   0  0  0  0  0  0  0  0  0  0  0  0
    3.5529   -4.3343    3.8242 H   0  0  0  0  0  0  0  0  0  0  0  0
    6.9418   -0.0325    0.1988 H   0  0  0  0  0  0  0  0  0  0  0  0
    8.7369   -1.6655   -1.3096 H   0  0  0  0  0  0  0  0  0  0  0  0
    9.3094   -2.9635   -0.3320 H   0  0  0  0  0  0  0  0  0  0  0  0
    7.7487   -3.8164   -2.0784 H   0  0  0  0  0  0  0  0  0  0  0  0
    7.1370   -4.1279   -0.4506 H   0  0  0  0  0  0  0  0  0  0  0  0
    6.3670   -1.8410   -2.3012 H   0  0  0  0  0  0  0  0  0  0  0  0
    5.1394   -3.9437   -2.8634 H   0  0  0  0  0  0  0  0  0  0  0  0
    4.9798   -5.2160   -0.8999 H   0  0  0  0  0  0  0  0  0  0  0  0
    3.3380   -4.6562   -1.1227 H   0  0  0  0  0  0  0  0  0  0  0  0
    4.2152   -1.8612   -3.1851 H   0  0  0  0  0  0  0  0  0  0  0  0
  1  2  1  0
  1 21  1  0
  1 22  1  0
  1 23  1  0
  2 19  1  0
  2  3  1  0
  2 39  1  6
  3  4  1  0
  3 24  1  0
  3 25  1  0
  5  4  1  6
  4 26  1  0
  4 27  1  0
  5 14  1  0
  5 18  1  0
  5  6  1  0
  6 12  2  0
  6  7  1  0
  7 20  1  0
  7  8  2  0
  8  9  1  0
  8 28  1  0
  9 10  2  0
  9 29  1  0
 10 11  1  0
 10 12  1  0
 12 13  1  0
 13 14  1  0
 14 15  1  0
 14 30  1  6
 15 16  1  0
 16 17  1  0
 16 31  1  0
 16 32  1  0
 17 18  1  0
 17 33  1  0
 17 34  1  0
 18 19  1  0
 18 35  1  6
 19 20  1  0
 19 36  1  6
 20 37  1  0
 20 38  1  0
M  CHG  2   2   1  11  -1
M  END
>  <i_m_ct_stereo_status>  (389) 
1

>  <s_m_source_file>  (389) 
/var/tmp/pbs.5076255.sched01/tmp1cu33jom/138ve8n868x.sdf

>  <i_m_source_file_index>  (389) 
14

>  <i_lp_mmshare_version>  (389) 
48012

>  <i_f3d_flags>  (389) 
0

>  <s_epik_input>  (389) 
W0NIMl0xW0NIMl1OKFtDSDNdKVtDQEhdKFtDSDJdMilbQ0BASF0zW0NIMl1bQ0gyXU9bQ0BASF00T2M1YyhbT0hdKVtjSF1bY0hdYzJjNVtDQF0xMzQ=

>  <s_epik_cmdline>  (389) 
J2VwaWtfcHl0aG9uJywgJy1waHQnLCAnMi4wJywgJy1waCcsICc3LjAnLCAnLXRuJywgJzgnLCAnLW1hJywgJzIwMCcsICctaW1hZScsICc8aW5maWxlLm1hZT4nLCAnLW9tYWUnLCAnPG91dGZpbGUubWFlPic=

>  <r_epik_Ionization_Penalty>  (389) 
2.23853

>  <r_epik_Ionization_Penalty_Charging>  (389) 
2.23853

>  <r_epik_Ionization_Penalty_Neutral>  (389) 
5.78856e-15

>  <r_epik_State_Penalty>  (389) 
2.37945

>  <r_epik_Charging_Adjusted_Penalty>  (389) 
4.61798

>  <i_epik_Tot_Q>  (389) 
0

>  <i_epik_Tot_abs_Q>  (389) 
2

>  <s_epik_Chemistry_Notes>  (389) 
This compound contains an acetal/aminal-like group ( X-CH(R)-Y where X, Y are N, S, or O) that may be acid/base labile, releasing an aldehyde.

>  <s_lp_Force_Field>  (389) 
OPLS3e

>  <r_lp_Energy>  (389) 
46.422

>  <b_lp_Chiralities_Consistent>  (389) 
1

>  <s_lp_Variant>  (389) 
102:0-3

>  <s_i_glide_gridfile>  (389) 
pfpi4k_grid

>  <i_i_glide_lignum>  (389) 
14

>  <i_i_glide_rotatable_bonds>  (389) 
0

>  <r_i_docking_score>  (389) 
-3.34326

>  <r_i_glide_ligand_efficiency>  (389) 
-0.167163

>  <r_i_glide_ligand_efficiency_sa>  (389) 
-0.45375

>  <r_i_glide_ligand_efficiency_ln>  (389) 
-0.836708

>  <r_i_glide_gscore>  (389) 
-3.34326

>  <r_i_glide_lipo>  (389) 
-0.481433

>  <r_i_glide_hbond>  (389) 
0

>  <r_i_glide_metal>  (389) 
-0

>  <r_i_glide_rewards>  (389) 
-1.5455

>  <r_i_glide_evdw>  (389) 
-16.7742

>  <r_i_glide_ecoul>  (389) 
-3.06748

>  <r_i_glide_erotb>  (389) 
0

>  <r_i_glide_esite>  (389) 
-0.0174977

>  <r_i_glide_emodel>  (389) 
-28.3487

>  <r_i_glide_energy>  (389) 
-19.8417

>  <r_i_glide_einternal>  (389) 
0

>  <r_i_glide_intrahb_reward>  (389) 
-0

>  <i_i_glide_confnum>  (389) 
1

>  <i_i_glide_posenum>  (389) 
25

>  <r_i_glide_eff_state_penalty>  (389) 
0

>  <ligand_id>  (389) 
102

>  <original_smiles>  (389) 
CN1CCC23c4c5ccc(O)c4OC2OCCC3C1C5

>  <smiles>  (389) 
[H]c1c([H])c2c3c(c1[O-])OC1([H])OC([H])([H])C([H])([H])C4([H])C31C([H])([H])C([H])([H])[N+]([H])(C([H])([H])[H])C4([H])C2([H])[H]

$$$$
102:2:1
     RDKit          3D

 39 43  0  0  1  0  0  0  0  0999 V2000
    2.2434    3.9771    2.6309 C   0  0  0  0  0  0  0  0  0  0  0  0
    1.4378    3.8339    3.8672 N   0  0  1  0  0  0  0  0  0  0  0  0
    0.0240    3.4754    3.5737 C   0  0  0  0  0  0  0  0  0  0  0  0
   -0.8180    3.3526    4.8630 C   0  0  0  0  0  0  0  0  0  0  0  0
   -0.1228    2.4526    5.9110 C   0  0  2  0  0  0  0  0  0  0  0  0
    0.0319    1.0636    5.3776 C   0  0  0  0  0  0  0  0  0  0  0  0
    1.0928    0.5811    4.5925 C   0  0  0  0  0  0  0  0  0  0  0  0
    0.9667   -0.7377    4.1228 C   0  0  0  0  0  0  0  0  0  0  0  0
   -0.1802   -1.4882    4.4753 C   0  0  0  0  0  0  0  0  0  0  0  0
   -1.1832   -0.9568    5.3302 C   0  0  0  0  0  0  0  0  0  0  0  0
   -2.2376   -1.7411    5.6818 O   0  0  0  0  0  0  0  0  0  0  0  0
   -1.0699    0.3650    5.8208 C   0  0  0  0  0  0  0  0  0  0  0  0
   -1.8483    1.0831    6.6975 O   0  0  0  0  0  0  0  0  0  0  0  0
   -1.0811    2.1914    7.1232 C   0  0  1  0  0  0  0  0  0  0  0  0
   -0.3502    1.7798    8.2487 O   0  0  0  0  0  0  0  0  0  0  0  0
    0.8009    2.5274    8.6250 C   0  0  0  0  0  0  0  0  0  0  0  0
    1.8291    2.4513    7.4933 C   0  0  0  0  0  0  0  0  0  0  0  0
    1.2259    3.0970    6.2396 C   0  0  1  0  0  0  0  0  0  0  0  0
    2.0720    2.9962    4.9369 C   0  0  1  0  0  0  0  0  0  0  0  0
    2.2839    1.5173    4.4725 C   0  0  0  0  0  0  0  0  0  0  0  0
    2.2124    3.0746    2.0143 H   0  0  0  0  0  0  0  0  0  0  0  0
    3.2873    4.2122    2.8429 H   0  0  0  0  0  0  0  0  0  0  0  0
    1.8438    4.7967    2.0361 H   0  0  0  0  0  0  0  0  0  0  0  0
   -0.4117    4.2325    2.9260 H   0  0  0  0  0  0  0  0  0  0  0  0
   -0.0202    2.5413    3.0104 H   0  0  0  0  0  0  0  0  0  0  0  0
   -0.9805    4.3523    5.2829 H   0  0  0  0  0  0  0  0  0  0  0  0
   -1.8095    2.9681    4.6062 H   0  0  0  0  0  0  0  0  0  0  0  0
    1.7478   -1.1774    3.5134 H   0  0  0  0  0  0  0  0  0  0  0  0
   -0.2806   -2.4965    4.1122 H   0  0  0  0  0  0  0  0  0  0  0  0
   -1.7202    3.0383    7.3776 H   0  0  0  0  0  0  0  0  0  0  0  0
    0.5368    3.5565    8.8713 H   0  0  0  0  0  0  0  0  0  0  0  0
    1.2107    2.0768    9.5289 H   0  0  0  0  0  0  0  0  0  0  0  0
    2.7443    2.9651    7.7875 H   0  0  0  0  0  0  0  0  0  0  0  0
    2.0917    1.4053    7.3152 H   0  0  0  0  0  0  0  0  0  0  0  0
    1.0795    4.1524    6.4780 H   0  0  0  0  0  0  0  0  0  0  0  0
    3.0515    3.4298    5.1169 H   0  0  0  0  0  0  0  0  0  0  0  0
    3.0681    1.0900    5.0987 H   0  0  0  0  0  0  0  0  0  0  0  0
    2.6750    1.4675    3.4604 H   0  0  0  0  0  0  0  0  0  0  0  0
    1.4067    4.7697    4.2491 H   0  0  0  0  0  0  0  0  0  0  0  0
  1  2  1  0
  1 21  1  0
  1 22  1  0
  1 23  1  0
  2 19  1  0
  2  3  1  0
  2 39  1  1
  3  4  1  0
  3 24  1  0
  3 25  1  0
  5  4  1  6
  4 26  1  0
  4 27  1  0
  5 14  1  0
  5 18  1  0
  5  6  1  0
  6 12  2  0
  6  7  1  0
  7 20  1  0
  7  8  2  0
  8  9  1  0
  8 28  1  0
  9 10  2  0
  9 29  1  0
 10 11  1  0
 10 12  1  0
 12 13  1  0
 13 14  1  0
 14 15  1  0
 14 30  1  1
 15 16  1  0
 16 17  1  0
 16 31  1  0
 16 32  1  0
 17 18  1  0
 17 33  1  0
 17 34  1  0
 18 19  1  0
 18 35  1  1
 19 20  1  0
 19 36  1  1
 20 37  1  0
 20 38  1  0
M  CHG  2   2   1  11  -1
M  END
>  <i_m_ct_stereo_status>  (390) 
1

>  <s_m_source_file>  (390) 
/var/tmp/pbs.5076255.sched01/tmp1cu33jom/138ve8n868x.sdf

>  <i_m_source_file_index>  (390) 
14

>  <i_lp_mmshare_version>  (390) 
48012

>  <i_f3d_flags>  (390) 
0

>  <s_epik_input>  (390) 
W0NIMl0xW0NIMl1OKFtDSDNdKVtDQEhdKFtDSDJdMilbQ0BASF0zW0NIMl1bQ0gyXU9bQ0BASF00T2M1YyhbT0hdKVtjSF1bY0hdYzJjNVtDQF0xMzQ=

>  <s_epik_cmdline>  (390) 
J2VwaWtfcHl0aG9uJywgJy1waHQnLCAnMi4wJywgJy1waCcsICc3LjAnLCAnLXRuJywgJzgnLCAnLW1hJywgJzIwMCcsICctaW1hZScsICc8aW5maWxlLm1hZT4nLCAnLW9tYWUnLCAnPG91dGZpbGUubWFlPic=

>  <r_epik_Ionization_Penalty>  (390) 
2.23853

>  <r_epik_Ionization_Penalty_Charging>  (390) 
2.23853

>  <r_epik_Ionization_Penalty_Neutral>  (390) 
5.78856e-15

>  <r_epik_State_Penalty>  (390) 
2.37945

>  <r_epik_Charging_Adjusted_Penalty>  (390) 
4.61798

>  <i_epik_Tot_Q>  (390) 
0

>  <i_epik_Tot_abs_Q>  (390) 
2

>  <s_epik_Chemistry_Notes>  (390) 
This compound contains an acetal/aminal-like group ( X-CH(R)-Y where X, Y are N, S, or O) that may be acid/base labile, releasing an aldehyde.

>  <s_lp_Force_Field>  (390) 
OPLS3e

>  <r_lp_Energy>  (390) 
46.422

>  <b_lp_Chiralities_Consistent>  (390) 
1

>  <s_lp_Variant>  (390) 
102:0-3

>  <s_i_glide_gridfile>  (390) 
pfpi4k_grid

>  <i_i_glide_lignum>  (390) 
14

>  <i_i_glide_rotatable_bonds>  (390) 
0

>  <r_i_docking_score>  (390) 
-3.21843

>  <r_i_glide_ligand_efficiency>  (390) 
-0.160922

>  <r_i_glide_ligand_efficiency_sa>  (390) 
-0.436808

>  <r_i_glide_ligand_efficiency_ln>  (390) 
-0.805467

>  <r_i_glide_gscore>  (390) 
-3.21843

>  <r_i_glide_lipo>  (390) 
0

>  <r_i_glide_hbond>  (390) 
-0.109277

>  <r_i_glide_metal>  (390) 
-0

>  <r_i_glide_rewards>  (390) 
-1.5455

>  <r_i_glide_evdw>  (390) 
-12.7694

>  <r_i_glide_ecoul>  (390) 
-5.77539

>  <r_i_glide_erotb>  (390) 
0

>  <r_i_glide_esite>  (390) 
-0.05888

>  <r_i_glide_emodel>  (390) 
-26.8187

>  <r_i_glide_energy>  (390) 
-18.5448

>  <r_i_glide_einternal>  (390) 
0

>  <r_i_glide_intrahb_reward>  (390) 
-0

>  <i_i_glide_confnum>  (390) 
2

>  <i_i_glide_posenum>  (390) 
7

>  <r_i_glide_eff_state_penalty>  (390) 
0

>  <ligand_id>  (390) 
102

>  <original_smiles>  (390) 
CN1CCC23c4c5ccc(O)c4OC2OCCC3C1C5

>  <smiles>  (390) 
[H]c1c([H])c2c3c(c1[O-])OC1([H])OC([H])([H])C([H])([H])C4([H])C31C([H])([H])C([H])([H])[N+]([H])(C([H])([H])[H])C4([H])C2([H])[H]

$$$$
102:2:2
     RDKit          3D

 39 43  0  0  1  0  0  0  0  0999 V2000
    3.2295    0.3727    4.5128 C   0  0  0  0  0  0  0  0  0  0  0  0
    2.9455    1.8239    4.6431 N   0  0  1  0  0  0  0  0  0  0  0  0
    2.5889    2.4386    3.3360 C   0  0  0  0  0  0  0  0  0  0  0  0
    2.3262    3.9557    3.4639 C   0  0  0  0  0  0  0  0  0  0  0  0
    1.3311    4.2514    4.6136 C   0  0  2  0  0  0  0  0  0  0  0  0
    0.0063    3.6133    4.3436 C   0  0  0  0  0  0  0  0  0  0  0  0
   -0.3709    2.3023    4.6618 C   0  0  0  0  0  0  0  0  0  0  0  0
   -1.6403    1.8952    4.2039 C   0  0  0  0  0  0  0  0  0  0  0  0
   -2.4436    2.8144    3.4900 C   0  0  0  0  0  0  0  0  0  0  0  0
   -2.0251    4.1452    3.2578 C   0  0  0  0  0  0  0  0  0  0  0  0
   -2.8489    4.9885    2.5705 O   0  0  0  0  0  0  0  0  0  0  0  0
   -0.7580    4.5732    3.7215 C   0  0  0  0  0  0  0  0  0  0  0  0
   -0.1502    5.8012    3.6859 O   0  0  0  0  0  0  0  0  0  0  0  0
    0.9238    5.7648    4.6004 C   0  0  1  0  0  0  0  0  0  0  0  0
    0.4131    6.1551    5.8507 O   0  0  0  0  0  0  0  0  0  0  0  0
    1.1366    5.8007    7.0216 C   0  0  0  0  0  0  0  0  0  0  0  0
    1.1988    4.2721    7.1263 C   0  0  0  0  0  0  0  0  0  0  0  0
    1.9628    3.7314    5.9096 C   0  0  1  0  0  0  0  0  0  0  0  0
    2.0087    2.1803    5.7588 C   0  0  1  0  0  0  0  0  0  0  0  0
    0.5955    1.5531    5.5704 C   0  0  0  0  0  0  0  0  0  0  0  0
    2.3889   -0.1717    4.0741 H   0  0  0  0  0  0  0  0  0  0  0  0
    3.4659   -0.0795    5.4777 H   0  0  0  0  0  0  0  0  0  0  0  0
    4.0880    0.2166    3.8547 H   0  0  0  0  0  0  0  0  0  0  0  0
    3.4010    2.2652    2.6301 H   0  0  0  0  0  0  0  0  0  0  0  0
    1.7099    1.9464    2.9094 H   0  0  0  0  0  0  0  0  0  0  0  0
    3.2732    4.4703    3.6431 H   0  0  0  0  0  0  0  0  0  0  0  0
    1.9490    4.3345    2.5097 H   0  0  0  0  0  0  0  0  0  0  0  0
   -1.9993    0.8979    4.4034 H   0  0  0  0  0  0  0  0  0  0  0  0
   -3.4095    2.5085    3.1190 H   0  0  0  0  0  0  0  0  0  0  0  0
    1.7238    6.4389    4.2909 H   0  0  0  0  0  0  0  0  0  0  0  0
    2.1295    6.2510    7.0206 H   0  0  0  0  0  0  0  0  0  0  0  0
    0.6028    6.2066    7.8816 H   0  0  0  0  0  0  0  0  0  0  0  0
    1.6936    3.9799    8.0525 H   0  0  0  0  0  0  0  0  0  0  0  0
    0.1829    3.8758    7.1668 H   0  0  0  0  0  0  0  0  0  0  0  0
    2.9826    4.1059    5.9963 H   0  0  0  0  0  0  0  0  0  0  0  0
    2.4435    1.7573    6.6659 H   0  0  0  0  0  0  0  0  0  0  0  0
    0.1128    1.5121    6.5476 H   0  0  0  0  0  0  0  0  0  0  0  0
    0.6517    0.5164    5.2409 H   0  0  0  0  0  0  0  0  0  0  0  0
    3.8275    2.2411    4.9017 H   0  0  0  0  0  0  0  0  0  0  0  0
  1  2  1  0
  1 21  1  0
  1 22  1  0
  1 23  1  0
  2 19  1  0
  2  3  1  0
  2 39  1  1
  3  4  1  0
  3 24  1  0
  3 25  1  0
  5  4  1  6
  4 26  1  0
  4 27  1  0
  5 14  1  0
  5 18  1  0
  5  6  1  0
  6 12  2  0
  6  7  1  0
  7 20  1  0
  7  8  2  0
  8  9  1  0
  8 28  1  0
  9 10  2  0
  9 29  1  0
 10 11  1  0
 10 12  1  0
 12 13  1  0
 13 14  1  0
 14 15  1  0
 14 30  1  6
 15 16  1  0
 16 17  1  0
 16 31  1  0
 16 32  1  0
 17 18  1  0
 17 33  1  0
 17 34  1  0
 18 19  1  0
 18 35  1  1
 19 20  1  0
 19 36  1  1
 20 37  1  0
 20 38  1  0
M  CHG  2   2   1  11  -1
M  END
>  <i_m_ct_stereo_status>  (391) 
1

>  <s_m_source_file>  (391) 
/var/tmp/pbs.5076255.sched01/tmp1cu33jom/138ve8n868x.sdf

>  <i_m_source_file_index>  (391) 
14

>  <i_lp_mmshare_version>  (391) 
48012

>  <i_f3d_flags>  (391) 
0

>  <s_epik_input>  (391) 
W0NIMl0xW0NIMl1OKFtDSDNdKVtDQEhdKFtDSDJdMilbQ0BASF0zW0NIMl1bQ0gyXU9bQ0BASF00T2M1YyhbT0hdKVtjSF1bY0hdYzJjNVtDQF0xMzQ=

>  <s_epik_cmdline>  (391) 
J2VwaWtfcHl0aG9uJywgJy1waHQnLCAnMi4wJywgJy1waCcsICc3LjAnLCAnLXRuJywgJzgnLCAnLW1hJywgJzIwMCcsICctaW1hZScsICc8aW5maWxlLm1hZT4nLCAnLW9tYWUnLCAnPG91dGZpbGUubWFlPic=

>  <r_epik_Ionization_Penalty>  (391) 
2.23853

>  <r_epik_Ionization_Penalty_Charging>  (391) 
2.23853

>  <r_epik_Ionization_Penalty_Neutral>  (391) 
5.78856e-15

>  <r_epik_State_Penalty>  (391) 
2.37945

>  <r_epik_Charging_Adjusted_Penalty>  (391) 
4.61798

>  <i_epik_Tot_Q>  (391) 
0

>  <i_epik_Tot_abs_Q>  (391) 
2

>  <s_epik_Chemistry_Notes>  (391) 
This compound contains an acetal/aminal-like group ( X-CH(R)-Y where X, Y are N, S, or O) that may be acid/base labile, releasing an aldehyde.

>  <s_lp_Force_Field>  (391) 
OPLS3e

>  <r_lp_Energy>  (391) 
46.422

>  <b_lp_Chiralities_Consistent>  (391) 
1

>  <s_lp_Variant>  (391) 
102:0-3

>  <s_i_glide_gridfile>  (391) 
pfpi4k_grid

>  <i_i_glide_lignum>  (391) 
14

>  <i_i_glide_rotatable_bonds>  (391) 
0

>  <r_i_docking_score>  (391) 
-3.2108

>  <r_i_glide_ligand_efficiency>  (391) 
-0.16054

>  <r_i_glide_ligand_efficiency_sa>  (391) 
-0.435772

>  <r_i_glide_ligand_efficiency_ln>  (391) 
-0.803557

>  <r_i_glide_gscore>  (391) 
-3.2108

>  <r_i_glide_lipo>  (391) 
-0.000653984

>  <r_i_glide_hbond>  (391) 
-0.215673

>  <r_i_glide_metal>  (391) 
-0

>  <r_i_glide_rewards>  (391) 
-1.5455

>  <r_i_glide_evdw>  (391) 
-12.7135

>  <r_i_glide_ecoul>  (391) 
-5.16499

>  <r_i_glide_erotb>  (391) 
0

>  <r_i_glide_esite>  (391) 
-0.0385496

>  <r_i_glide_emodel>  (391) 
-26.1384

>  <r_i_glide_energy>  (391) 
-17.8785

>  <r_i_glide_einternal>  (391) 
0

>  <r_i_glide_intrahb_reward>  (391) 
-0

>  <i_i_glide_confnum>  (391) 
2

>  <i_i_glide_posenum>  (391) 
12

>  <r_i_glide_eff_state_penalty>  (391) 
0

>  <ligand_id>  (391) 
102

>  <original_smiles>  (391) 
CN1CCC23c4c5ccc(O)c4OC2OCCC3C1C5

>  <smiles>  (391) 
[H]c1c([H])c2c3c(c1[O-])OC1([H])OC([H])([H])C([H])([H])C4([H])C31C([H])([H])C([H])([H])[N+]([H])(C([H])([H])[H])C4([H])C2([H])[H]

$$$$
103:0:0
     RDKit          3D

 36 39  0  0  1  0  0  0  0  0999 V2000
    3.8802   -0.7789   -3.1422 C   0  0  0  0  0  0  0  0  0  0  0  0
    4.0459   -2.2586   -2.7594 C   0  0  2  0  0  0  0  0  0  0  0  0
    2.7207   -3.0257   -2.7521 C   0  0  0  0  0  0  0  0  0  0  0  0
    2.2770   -3.4533   -1.3282 C   0  0  0  0  0  0  0  0  0  0  0  0
    3.1028   -2.8660   -0.0794 C   0  0  1  0  0  0  0  0  0  0  0  0
    4.2596   -3.5522    0.8494 C   0  0  1  0  0  0  0  0  0  0  0  0
    5.7485   -3.0454    1.2077 C   0  0  0  0  0  0  0  0  0  0  0  0
    6.0581   -1.5314    1.1382 C   0  0  0  0  0  0  0  0  0  0  0  0
    5.0182   -0.7421    0.3216 C   0  0  0  0  0  0  0  0  0  0  0  0
    3.8244   -1.5763   -0.2784 C   0  0  2  0  0  0  0  0  0  0  0  0
    3.4664   -1.6337    1.2088 O   0  0  0  0  0  0  0  0  0  0  0  0
    3.5288   -2.8482    1.8986 C   0  0  0  0  0  0  0  0  0  0  0  0
    3.1927   -3.2483    3.0131 O   0  0  0  0  0  0  0  0  0  0  0  0
    4.7154   -2.4651   -1.3950 C   0  0  1  0  0  0  0  0  0  0  0  0
    5.0254   -4.0876   -1.2287 C   0  0  0  0  0  0  0  0  0  0  0  0
    4.4408   -4.8100    0.0735 C   0  0  0  0  0  0  0  0  0  0  0  0
    3.2033   -0.2563   -2.4663 H   0  0  0  0  0  0  0  0  0  0  0  0
    3.4793   -0.6599   -4.1475 H   0  0  0  0  0  0  0  0  0  0  0  0
    4.8370   -0.2655   -3.0993 H   0  0  0  0  0  0  0  0  0  0  0  0
    4.6707   -2.7131   -3.5329 H   0  0  0  0  0  0  0  0  0  0  0  0
    1.9274   -2.4134   -3.1971 H   0  0  0  0  0  0  0  0  0  0  0  0
    2.7937   -3.8925   -3.3956 H   0  0  0  0  0  0  0  0  0  0  0  0
    1.2365   -3.1270   -1.3023 H   0  0  0  0  0  0  0  0  0  0  0  0
    2.1488   -4.5310   -1.2795 H   0  0  0  0  0  0  0  0  0  0  0  0
    2.0579   -2.7570    0.3417 H   0  0  0  0  0  0  0  0  0  0  0  0
    5.9832   -3.3741    2.2271 H   0  0  0  0  0  0  0  0  0  0  0  0
    6.5426   -3.5504    0.6605 H   0  0  0  0  0  0  0  0  0  0  0  0
    6.0974   -1.1202    2.1509 H   0  0  0  0  0  0  0  0  0  0  0  0
    7.0602   -1.3752    0.7262 H   0  0  0  0  0  0  0  0  0  0  0  0
    4.6828    0.1347    0.8866 H   0  0  0  0  0  0  0  0  0  0  0  0
    5.5444   -0.2521   -0.4958 H   0  0  0  0  0  0  0  0  0  0  0  0
    5.7142   -2.0390   -1.5372 H   0  0  0  0  0  0  0  0  0  0  0  0
    4.7051   -4.6546   -2.1050 H   0  0  0  0  0  0  0  0  0  0  0  0
    6.1056   -4.2203   -1.2608 H   0  0  0  0  0  0  0  0  0  0  0  0
    5.1718   -5.4820    0.5257 H   0  0  0  0  0  0  0  0  0  0  0  0
    3.5326   -5.3944   -0.0582 H   0  0  0  0  0  0  0  0  0  0  0  0
  1  2  1  0
  1 17  1  0
  1 18  1  0
  1 19  1  0
  2 14  1  0
  2  3  1  0
  2 20  1  6
  3  4  1  0
  3 21  1  0
  3 22  1  0
  4  5  1  0
  4 23  1  0
  4 24  1  0
  5 10  1  0
  5  6  1  0
  5 25  1  1
  6 12  1  0
  6 16  1  1
  6  7  1  0
  7  8  1  0
  7 26  1  0
  7 27  1  0
  8  9  1  0
  8 28  1  0
  8 29  1  0
  9 10  1  0
  9 30  1  0
  9 31  1  0
 10 11  1  6
 10 14  1  0
 11 12  1  0
 12 13  2  0
 14 15  1  0
 14 32  1  6
 15 16  1  0
 15 33  1  0
 15 34  1  0
 16 35  1  0
 16 36  1  0
M  END
>  <i_m_ct_stereo_status>  (392) 
1

>  <s_m_source_file>  (392) 
/var/tmp/pbs.5076255.sched01/tmp1cu33jom/138ve8n868x.sdf

>  <i_m_source_file_index>  (392) 
15

>  <i_lp_mmshare_version>  (392) 
48012

>  <i_f3d_flags>  (392) 
0

>  <s_epik_input>  (392) 
W0NIMl0xW0NIMl1bQ0BASF0oW0NIM10pW0NASF0oW0NIMl1bQ0gyXTIpW0NAQF0oW0NAQEhdMVtDQEBdMjM0KShPQzQ9TylbQ0gyXVtDSDJdW0NIMl0z

>  <s_epik_cmdline>  (392) 
J2VwaWtfcHl0aG9uJywgJy1waHQnLCAnMi4wJywgJy1waCcsICc3LjAnLCAnLXRuJywgJzgnLCAnLW1hJywgJzIwMCcsICctaW1hZScsICc8aW5maWxlLm1hZT4nLCAnLW9tYWUnLCAnPG91dGZpbGUubWFlPic=

>  <r_lp_tautomer_probability>  (392) 
1

>  <r_epik_Ionization_Penalty>  (392) 
0

>  <r_epik_Ionization_Penalty_Charging>  (392) 
0

>  <r_epik_Ionization_Penalty_Neutral>  (392) 
0

>  <r_epik_State_Penalty>  (392) 
-0

>  <r_epik_Charging_Adjusted_Penalty>  (392) 
0

>  <i_epik_Tot_Q>  (392) 
0

>  <i_epik_Tot_abs_Q>  (392) 
0

>  <s_epik_Chemistry_Notes>  (392) 
This compound has an ester and may undergo hydrolysis at high or low pH.

>  <s_lp_Force_Field>  (392) 
OPLS3e

>  <r_lp_Energy>  (392) 
294.809

>  <b_lp_Chiralities_Consistent>  (392) 
1

>  <s_lp_Variant>  (392) 
103:0-1

>  <s_i_glide_gridfile>  (392) 
pfpi4k_grid

>  <i_i_glide_lignum>  (392) 
15

>  <i_i_glide_rotatable_bonds>  (392) 
0

>  <r_i_docking_score>  (392) 
-3.67401

>  <r_i_glide_ligand_efficiency>  (392) 
-0.229625

>  <r_i_glide_ligand_efficiency_sa>  (392) 
-0.57862

>  <r_i_glide_ligand_efficiency_ln>  (392) 
-0.973869

>  <r_i_glide_gscore>  (392) 
-3.67401

>  <r_i_glide_lipo>  (392) 
-0.656582

>  <r_i_glide_hbond>  (392) 
0

>  <r_i_glide_metal>  (392) 
-0

>  <r_i_glide_rewards>  (392) 
-1.907

>  <r_i_glide_evdw>  (392) 
-21.9934

>  <r_i_glide_ecoul>  (392) 
-0.0601182

>  <r_i_glide_erotb>  (392) 
0

>  <r_i_glide_esite>  (392) 
-0.00173928

>  <r_i_glide_emodel>  (392) 
-26.789

>  <r_i_glide_energy>  (392) 
-22.0535

>  <r_i_glide_einternal>  (392) 
0

>  <r_i_glide_intrahb_reward>  (392) 
-0

>  <i_i_glide_confnum>  (392) 
1

>  <i_i_glide_posenum>  (392) 
33

>  <r_i_glide_eff_state_penalty>  (392) 
0

>  <ligand_id>  (392) 
103

>  <original_smiles>  (392) 
CC1CCC2C34CCCC2(OC3=O)C1CC4

>  <smiles>  (392) 
[H]C([H])([H])C1([H])C([H])([H])C([H])([H])C2([H])C34OC(=O)C2(C([H])([H])C([H])([H])C3([H])[H])C([H])([H])C([H])([H])C14[H]

$$$$
103:0:1
     RDKit          3D

 36 39  0  0  1  0  0  0  0  0999 V2000
    4.5878   -4.0972    3.6447 C   0  0  0  0  0  0  0  0  0  0  0  0
    4.4662   -2.7899    2.8432 C   0  0  2  0  0  0  0  0  0  0  0  0
    3.0651   -2.5702    2.2633 C   0  0  0  0  0  0  0  0  0  0  0  0
    3.0203   -2.6989    0.7225 C   0  0  0  0  0  0  0  0  0  0  0  0
    4.3428   -3.2163   -0.0296 C   0  0  1  0  0  0  0  0  0  0  0  0
    5.5126   -2.4010   -0.8247 C   0  0  1  0  0  0  0  0  0  0  0  0
    7.1119   -2.4182   -0.6270 C   0  0  0  0  0  0  0  0  0  0  0  0
    7.7773   -3.6547    0.0217 C   0  0  0  0  0  0  0  0  0  0  0  0
    6.7764   -4.5504    0.7754 C   0  0  0  0  0  0  0  0  0  0  0  0
    5.2732   -4.0723    0.7581 C   0  0  2  0  0  0  0  0  0  0  0  0
    5.4213   -4.4932   -0.7050 O   0  0  0  0  0  0  0  0  0  0  0  0
    5.3886   -3.5278   -1.7289 C   0  0  0  0  0  0  0  0  0  0  0  0
    5.3683   -3.5221   -2.9601 O   0  0  0  0  0  0  0  0  0  0  0  0
    5.4681   -2.6859    1.6855 C   0  0  1  0  0  0  0  0  0  0  0  0
    5.3652   -1.1444    1.0723 C   0  0  0  0  0  0  0  0  0  0  0  0
    5.0762   -1.0205   -0.4910 C   0  0  0  0  0  0  0  0  0  0  0  0
    4.3504   -4.9758    3.0418 H   0  0  0  0  0  0  0  0  0  0  0  0
    3.9163   -4.1062    4.5027 H   0  0  0  0  0  0  0  0  0  0  0  0
    5.6024   -4.2241    4.0210 H   0  0  0  0  0  0  0  0  0  0  0  0
    4.6482   -1.9741    3.5486 H   0  0  0  0  0  0  0  0  0  0  0  0
    2.3573   -3.2871    2.6944 H   0  0  0  0  0  0  0  0  0  0  0  0
    2.6886   -1.5874    2.5416 H   0  0  0  0  0  0  0  0  0  0  0  0
    2.1803   -3.3744    0.5450 H   0  0  0  0  0  0  0  0  0  0  0  0
    2.6421   -1.7648    0.3097 H   0  0  0  0  0  0  0  0  0  0  0  0
    3.5669   -3.7741   -0.6376 H   0  0  0  0  0  0  0  0  0  0  0  0
    7.5834   -2.2922   -1.6083 H   0  0  0  0  0  0  0  0  0  0  0  0
    7.5144   -1.5565   -0.0991 H   0  0  0  0  0  0  0  0  0  0  0  0
    8.2707   -4.2520   -0.7505 H   0  0  0  0  0  0  0  0  0  0  0  0
    8.5814   -3.3359    0.6934 H   0  0  0  0  0  0  0  0  0  0  0  0
    6.8952   -5.5916    0.4562 H   0  0  0  0  0  0  0  0  0  0  0  0
    7.1133   -4.6298    1.8112 H   0  0  0  0  0  0  0  0  0  0  0  0
    6.4382   -2.6833    2.1919 H   0  0  0  0  0  0  0  0  0  0  0  0
    4.6240   -0.5397    1.5991 H   0  0  0  0  0  0  0  0  0  0  0  0
    6.2888   -0.6204    1.3165 H   0  0  0  0  0  0  0  0  0  0  0  0
    5.7043   -0.2625   -0.9539 H   0  0  0  0  0  0  0  0  0  0  0  0
    4.0581   -0.7913   -0.7869 H   0  0  0  0  0  0  0  0  0  0  0  0
  1  2  1  0
  1 17  1  0
  1 18  1  0
  1 19  1  0
  2 14  1  0
  2  3  1  0
  2 20  1  1
  3  4  1  0
  3 21  1  0
  3 22  1  0
  4  5  1  0
  4 23  1  0
  4 24  1  0
  5 10  1  0
  5  6  1  0
  5 25  1  6
  6 12  1  0
  6 16  1  6
  6  7  1  0
  7  8  1  0
  7 26  1  0
  7 27  1  0
  8  9  1  0
  8 28  1  0
  8 29  1  0
  9 10  1  0
  9 30  1  0
  9 31  1  0
 10 11  1  1
 10 14  1  0
 11 12  1  0
 12 13  2  0
 14 15  1  0
 14 32  1  1
 15 16  1  0
 15 33  1  0
 15 34  1  0
 16 35  1  0
 16 36  1  0
M  END
>  <i_m_ct_stereo_status>  (393) 
1

>  <s_m_source_file>  (393) 
/var/tmp/pbs.5076255.sched01/tmp1cu33jom/138ve8n868x.sdf

>  <i_m_source_file_index>  (393) 
15

>  <i_lp_mmshare_version>  (393) 
48012

>  <i_f3d_flags>  (393) 
0

>  <s_epik_input>  (393) 
W0NIMl0xW0NIMl1bQ0BASF0oW0NIM10pW0NASF0oW0NIMl1bQ0gyXTIpW0NAQF0oW0NAQEhdMVtDQEBdMjM0KShPQzQ9TylbQ0gyXVtDSDJdW0NIMl0z

>  <s_epik_cmdline>  (393) 
J2VwaWtfcHl0aG9uJywgJy1waHQnLCAnMi4wJywgJy1waCcsICc3LjAnLCAnLXRuJywgJzgnLCAnLW1hJywgJzIwMCcsICctaW1hZScsICc8aW5maWxlLm1hZT4nLCAnLW9tYWUnLCAnPG91dGZpbGUubWFlPic=

>  <r_lp_tautomer_probability>  (393) 
1

>  <r_epik_Ionization_Penalty>  (393) 
0

>  <r_epik_Ionization_Penalty_Charging>  (393) 
0

>  <r_epik_Ionization_Penalty_Neutral>  (393) 
0

>  <r_epik_State_Penalty>  (393) 
-0

>  <r_epik_Charging_Adjusted_Penalty>  (393) 
0

>  <i_epik_Tot_Q>  (393) 
0

>  <i_epik_Tot_abs_Q>  (393) 
0

>  <s_epik_Chemistry_Notes>  (393) 
This compound has an ester and may undergo hydrolysis at high or low pH.

>  <s_lp_Force_Field>  (393) 
OPLS3e

>  <r_lp_Energy>  (393) 
294.809

>  <b_lp_Chiralities_Consistent>  (393) 
1

>  <s_lp_Variant>  (393) 
103:0-1

>  <s_i_glide_gridfile>  (393) 
pfpi4k_grid

>  <i_i_glide_lignum>  (393) 
15

>  <i_i_glide_rotatable_bonds>  (393) 
0

>  <r_i_docking_score>  (393) 
-3.65626

>  <r_i_glide_ligand_efficiency>  (393) 
-0.228516

>  <r_i_glide_ligand_efficiency_sa>  (393) 
-0.575825

>  <r_i_glide_ligand_efficiency_ln>  (393) 
-0.969165

>  <r_i_glide_gscore>  (393) 
-3.65626

>  <r_i_glide_lipo>  (393) 
-0.575734

>  <r_i_glide_hbond>  (393) 
0

>  <r_i_glide_metal>  (393) 
-0

>  <r_i_glide_rewards>  (393) 
-2.03202

>  <r_i_glide_evdw>  (393) 
-20.4704

>  <r_i_glide_ecoul>  (393) 
-0.166601

>  <r_i_glide_erotb>  (393) 
0

>  <r_i_glide_esite>  (393) 
0

>  <r_i_glide_emodel>  (393) 
-25.3538

>  <r_i_glide_energy>  (393) 
-20.637

>  <r_i_glide_einternal>  (393) 
0

>  <r_i_glide_intrahb_reward>  (393) 
-0

>  <i_i_glide_confnum>  (393) 
1

>  <i_i_glide_posenum>  (393) 
26

>  <r_i_glide_eff_state_penalty>  (393) 
0

>  <ligand_id>  (393) 
103

>  <original_smiles>  (393) 
CC1CCC2C34CCCC2(OC3=O)C1CC4

>  <smiles>  (393) 
[H]C([H])([H])C1([H])C([H])([H])C([H])([H])C2([H])C34OC(=O)C2(C([H])([H])C([H])([H])C3([H])[H])C([H])([H])C([H])([H])C14[H]

$$$$
103:0:2
     RDKit          3D

 36 39  0  0  1  0  0  0  0  0999 V2000
    2.3610   -1.3710    2.5322 C   0  0  0  0  0  0  0  0  0  0  0  0
    3.8687   -1.4166    2.2192 C   0  0  2  0  0  0  0  0  0  0  0  0
    4.3319   -0.2500    1.3522 C   0  0  0  0  0  0  0  0  0  0  0  0
    4.7419   -0.6614   -0.0745 C   0  0  0  0  0  0  0  0  0  0  0  0
    4.4423   -2.1787   -0.5200 C   0  0  1  0  0  0  0  0  0  0  0  0
    5.4243   -3.4769   -0.6202 C   0  0  1  0  0  0  0  0  0  0  0  0
    5.2781   -4.9364    0.0460 C   0  0  0  0  0  0  0  0  0  0  0  0
    3.8714   -5.4509    0.4230 C   0  0  0  0  0  0  0  0  0  0  0  0
    2.8131   -4.3358    0.4843 C   0  0  0  0  0  0  0  0  0  0  0  0
    3.3312   -2.8765    0.1808 C   0  0  2  0  0  0  0  0  0  0  0  0
    3.4056   -3.4709   -1.2237 O   0  0  0  0  0  0  0  0  0  0  0  0
    4.6541   -3.6686   -1.8386 C   0  0  0  0  0  0  0  0  0  0  0  0
    5.0459   -3.9265   -2.9668 O   0  0  0  0  0  0  0  0  0  0  0  0
    4.3112   -2.7099    1.5250 C   0  0  1  0  0  0  0  0  0  0  0  0
    5.9777   -2.6890    1.4540 C   0  0  0  0  0  0  0  0  0  0  0  0
    6.6367   -2.8736    0.0118 C   0  0  0  0  0  0  0  0  0  0  0  0
    1.7509   -1.3740    1.6284 H   0  0  0  0  0  0  0  0  0  0  0  0
    2.0986   -0.4734    3.0923 H   0  0  0  0  0  0  0  0  0  0  0  0
    2.0706   -2.2316    3.1326 H   0  0  0  0  0  0  0  0  0  0  0  0
    4.3897   -1.3262    3.1742 H   0  0  0  0  0  0  0  0  0  0  0  0
    3.5460    0.5110    1.2795 H   0  0  0  0  0  0  0  0  0  0  0  0
    5.1854    0.2353    1.8245 H   0  0  0  0  0  0  0  0  0  0  0  0
    4.2144    0.0451   -0.7134 H   0  0  0  0  0  0  0  0  0  0  0  0
    5.7730   -0.3683   -0.2401 H   0  0  0  0  0  0  0  0  0  0  0  0
    4.1483   -1.6424   -1.4711 H   0  0  0  0  0  0  0  0  0  0  0  0
    5.6968   -5.6649   -0.6481 H   0  0  0  0  0  0  0  0  0  0  0  0
    5.9109   -5.1118    0.9159 H   0  0  0  0  0  0  0  0  0  0  0  0
    3.5492   -6.1924   -0.3121 H   0  0  0  0  0  0  0  0  0  0  0  0
    3.9091   -5.9957    1.3704 H   0  0  0  0  0  0  0  0  0  0  0  0
    1.9460   -4.6169   -0.1222 H   0  0  0  0  0  0  0  0  0  0  0  0
    2.3719   -4.3503    1.4825 H   0  0  0  0  0  0  0  0  0  0  0  0
    4.1043   -3.4774    2.2715 H   0  0  0  0  0  0  0  0  0  0  0  0
    6.3963   -1.7864    1.8988 H   0  0  0  0  0  0  0  0  0  0  0  0
    6.3514   -3.4646    2.1216 H   0  0  0  0  0  0  0  0  0  0  0  0
    7.4789   -3.5677    0.0400 H   0  0  0  0  0  0  0  0  0  0  0  0
    6.9977   -1.9777   -0.4810 H   0  0  0  0  0  0  0  0  0  0  0  0
  1  2  1  0
  1 17  1  0
  1 18  1  0
  1 19  1  0
  2 14  1  0
  2  3  1  0
  2 20  1  1
  3  4  1  0
  3 21  1  0
  3 22  1  0
  4  5  1  0
  4 23  1  0
  4 24  1  0
  5 10  1  0
  5  6  1  0
  5 25  1  6
  6 12  1  0
  6 16  1  6
  6  7  1  0
  7  8  1  0
  7 26  1  0
  7 27  1  0
  8  9  1  0
  8 28  1  0
  8 29  1  0
  9 10  1  0
  9 30  1  0
  9 31  1  0
 10 11  1  1
 10 14  1  0
 11 12  1  0
 12 13  2  0
 14 15  1  0
 14 32  1  1
 15 16  1  0
 15 33  1  0
 15 34  1  0
 16 35  1  0
 16 36  1  0
M  END
>  <i_m_ct_stereo_status>  (394) 
1

>  <s_m_source_file>  (394) 
/var/tmp/pbs.5076255.sched01/tmp1cu33jom/138ve8n868x.sdf

>  <i_m_source_file_index>  (394) 
15

>  <i_lp_mmshare_version>  (394) 
48012

>  <i_f3d_flags>  (394) 
0

>  <s_epik_input>  (394) 
W0NIMl0xW0NIMl1bQ0BASF0oW0NIM10pW0NASF0oW0NIMl1bQ0gyXTIpW0NAQF0oW0NAQEhdMVtDQEBdMjM0KShPQzQ9TylbQ0gyXVtDSDJdW0NIMl0z

>  <s_epik_cmdline>  (394) 
J2VwaWtfcHl0aG9uJywgJy1waHQnLCAnMi4wJywgJy1waCcsICc3LjAnLCAnLXRuJywgJzgnLCAnLW1hJywgJzIwMCcsICctaW1hZScsICc8aW5maWxlLm1hZT4nLCAnLW9tYWUnLCAnPG91dGZpbGUubWFlPic=

>  <r_lp_tautomer_probability>  (394) 
1

>  <r_epik_Ionization_Penalty>  (394) 
0

>  <r_epik_Ionization_Penalty_Charging>  (394) 
0

>  <r_epik_Ionization_Penalty_Neutral>  (394) 
0

>  <r_epik_State_Penalty>  (394) 
-0

>  <r_epik_Charging_Adjusted_Penalty>  (394) 
0

>  <i_epik_Tot_Q>  (394) 
0

>  <i_epik_Tot_abs_Q>  (394) 
0

>  <s_epik_Chemistry_Notes>  (394) 
This compound has an ester and may undergo hydrolysis at high or low pH.

>  <s_lp_Force_Field>  (394) 
OPLS3e

>  <r_lp_Energy>  (394) 
294.809

>  <b_lp_Chiralities_Consistent>  (394) 
1

>  <s_lp_Variant>  (394) 
103:0-1

>  <s_i_glide_gridfile>  (394) 
pfpi4k_grid

>  <i_i_glide_lignum>  (394) 
15

>  <i_i_glide_rotatable_bonds>  (394) 
0

>  <r_i_docking_score>  (394) 
-3.22605

>  <r_i_glide_ligand_efficiency>  (394) 
-0.201628

>  <r_i_glide_ligand_efficiency_sa>  (394) 
-0.508071

>  <r_i_glide_ligand_efficiency_ln>  (394) 
-0.85513

>  <r_i_glide_gscore>  (394) 
-3.22605

>  <r_i_glide_lipo>  (394) 
-0.424057

>  <r_i_glide_hbond>  (394) 
0

>  <r_i_glide_metal>  (394) 
-0

>  <r_i_glide_rewards>  (394) 
-1.907

>  <r_i_glide_evdw>  (394) 
-19.5069

>  <r_i_glide_ecoul>  (394) 
0.610404

>  <r_i_glide_erotb>  (394) 
0

>  <r_i_glide_esite>  (394) 
-0.0112174

>  <r_i_glide_emodel>  (394) 
-23.0313

>  <r_i_glide_energy>  (394) 
-18.8965

>  <r_i_glide_einternal>  (394) 
0

>  <r_i_glide_intrahb_reward>  (394) 
-0

>  <i_i_glide_confnum>  (394) 
1

>  <i_i_glide_posenum>  (394) 
2

>  <r_i_glide_eff_state_penalty>  (394) 
0

>  <ligand_id>  (394) 
103

>  <original_smiles>  (394) 
CC1CCC2C34CCCC2(OC3=O)C1CC4

>  <smiles>  (394) 
[H]C([H])([H])C1([H])C([H])([H])C([H])([H])C2([H])C34OC(=O)C2(C([H])([H])C([H])([H])C3([H])[H])C([H])([H])C([H])([H])C14[H]

$$$$
104:0:0
     RDKit          3D

 42 45  0  0  1  0  0  0  0  0999 V2000
    5.3576   -0.8616    3.2140 C   0  0  0  0  0  0  0  0  0  0  0  0
    5.2878   -1.4530    1.7940 C   0  0  2  0  0  0  0  0  0  0  0  0
    4.8916   -0.3483    0.8088 C   0  0  0  0  0  0  0  0  0  0  0  0
    4.8539   -0.8872   -0.6200 C   0  0  0  0  0  0  0  0  0  0  0  0
    3.8125   -2.0001   -0.7415 C   0  0  1  0  0  0  0  0  0  0  0  0
    3.5543   -2.5107   -2.1614 C   0  0  1  0  0  0  0  0  0  0  0  0
    3.2816   -1.3797   -3.1881 C   0  0  0  0  0  0  0  0  0  0  0  0
    4.6514   -3.4497   -2.6634 C   0  0  0  0  0  0  0  0  0  0  0  0
    4.8235   -3.5325   -3.8709 O   0  0  0  0  0  0  0  0  0  0  0  0
    5.3012   -4.2368   -1.7465 O   0  0  0  0  0  0  0  0  0  0  0  0
    5.2641   -4.0186   -0.3520 C   0  0  2  0  0  0  0  0  0  0  0  0
    5.4215   -5.2320    0.3298 O   0  0  0  0  0  0  0  0  0  0  0  0
    4.2658   -5.7285    0.9608 C   0  0  1  0  0  0  0  0  0  0  0  0
    4.3386   -7.2590    0.9012 C   0  0  0  0  0  0  0  0  0  0  0  0
    4.2646   -5.2253    2.4227 C   0  0  0  0  0  0  0  0  0  0  0  0
    4.8856   -3.8307    2.6078 C   0  0  0  0  0  0  0  0  0  0  0  0
    4.3707   -2.7052    1.6861 C   0  0  2  0  0  0  0  0  0  0  0  0
    4.0719   -3.1679    0.2158 C   0  0  1  0  0  0  0  0  0  0  0  0
    2.8514   -3.9000    0.3313 O   0  0  0  0  0  0  0  0  0  0  0  0
    3.0945   -5.3871    0.2332 O   0  0  0  0  0  0  0  0  0  0  0  0
    4.3725   -0.5814    3.5898 H   0  0  0  0  0  0  0  0  0  0  0  0
    5.9835    0.0313    3.2381 H   0  0  0  0  0  0  0  0  0  0  0  0
    5.7971   -1.5625    3.9235 H   0  0  0  0  0  0  0  0  0  0  0  0
    6.3040   -1.7521    1.5310 H   0  0  0  0  0  0  0  0  0  0  0  0
    3.9207    0.0790    1.0764 H   0  0  0  0  0  0  0  0  0  0  0  0
    5.6201    0.4627    0.8681 H   0  0  0  0  0  0  0  0  0  0  0  0
    4.6006   -0.0641   -1.2837 H   0  0  0  0  0  0  0  0  0  0  0  0
    5.8464   -1.2334   -0.9114 H   0  0  0  0  0  0  0  0  0  0  0  0
    2.8799   -1.5490   -0.4102 H   0  0  0  0  0  0  0  0  0  0  0  0
    2.6435   -3.1124   -2.1161 H   0  0  0  0  0  0  0  0  0  0  0  0
    2.8559   -1.7830   -4.1110 H   0  0  0  0  0  0  0  0  0  0  0  0
    4.1888   -0.8331   -3.4615 H   0  0  0  0  0  0  0  0  0  0  0  0
    2.5669   -0.6516   -2.7947 H   0  0  0  0  0  0  0  0  0  0  0  0
    6.1781   -3.4741   -0.1423 H   0  0  0  0  0  0  0  0  0  0  0  0
    4.3009   -7.5910   -0.1360 H   0  0  0  0  0  0  0  0  0  0  0  0
    3.5065   -7.7278    1.4300 H   0  0  0  0  0  0  0  0  0  0  0  0
    5.2679   -7.6384    1.3290 H   0  0  0  0  0  0  0  0  0  0  0  0
    3.2695   -5.2873    2.8595 H   0  0  0  0  0  0  0  0  0  0  0  0
    4.8886   -5.8967    3.0150 H   0  0  0  0  0  0  0  0  0  0  0  0
    4.7501   -3.5374    3.6459 H   0  0  0  0  0  0  0  0  0  0  0  0
    5.9646   -3.9102    2.4723 H   0  0  0  0  0  0  0  0  0  0  0  0
    3.3983   -2.4013    2.0757 H   0  0  0  0  0  0  0  0  0  0  0  0
  1  2  1  0
  1 21  1  0
  1 22  1  0
  1 23  1  0
  2 17  1  0
  2  3  1  0
  2 24  1  6
  3  4  1  0
  3 25  1  0
  3 26  1  0
  4  5  1  0
  4 27  1  0
  4 28  1  0
  5 18  1  0
  5  6  1  0
  5 29  1  1
  6  7  1  0
  6  8  1  0
  6 30  1  1
  7 31  1  0
  7 32  1  0
  7 33  1  0
  8  9  2  0
  8 10  1  0
 10 11  1  0
 11 18  1  0
 11 12  1  0
 11 34  1  1
 12 13  1  0
 13 20  1  0
 13 14  1  1
 13 15  1  0
 14 35  1  0
 14 36  1  0
 14 37  1  0
 15 16  1  0
 15 38  1  0
 15 39  1  0
 16 17  1  0
 16 40  1  0
 16 41  1  0
 17 18  1  0
 17 42  1  1
 18 19  1  1
 19 20  1  0
M  END
>  <i_m_ct_stereo_status>  (395) 
1

>  <s_m_source_file>  (395) 
/var/tmp/pbs.5076255.sched01/tmp1cu33jom/138ve8n868x.sdf

>  <i_m_source_file_index>  (395) 
16

>  <i_lp_mmshare_version>  (395) 
48012

>  <i_f3d_flags>  (395) 
0

>  <s_epik_input>  (395) 
W0NAXTEyM1tDQEhdNFtDSDJdW0NIMl1bQ0BASF0oW0NIM10pW0NAQEhdMltDSDJdW0NIMl1bQ0BAXShbQ0gzXSkoT08zKU9bQ0BIXTFPQyg9TylbQ0BASF00W0NIM10=

>  <s_epik_cmdline>  (395) 
J2VwaWtfcHl0aG9uJywgJy1waHQnLCAnMi4wJywgJy1waCcsICc3LjAnLCAnLXRuJywgJzgnLCAnLW1hJywgJzIwMCcsICctaW1hZScsICc8aW5maWxlLm1hZT4nLCAnLW9tYWUnLCAnPG91dGZpbGUubWFlPic=

>  <r_lp_tautomer_probability>  (395) 
1

>  <r_epik_Ionization_Penalty>  (395) 
1.7205e-10

>  <r_epik_Ionization_Penalty_Charging>  (395) 
0

>  <r_epik_Ionization_Penalty_Neutral>  (395) 
1.7205e-10

>  <r_epik_State_Penalty>  (395) 
-0

>  <r_epik_Charging_Adjusted_Penalty>  (395) 
0

>  <i_epik_Tot_Q>  (395) 
0

>  <i_epik_Tot_abs_Q>  (395) 
0

>  <s_epik_Chemistry_Notes>  (395) 
This compound has an ester and may undergo hydrolysis at high or low pH. This compound contains an acetal/aminal-like group ( X-CH(R)-Y where X, Y are N, S, or O) that may be acid/base labile, releasing an aldehyde.

>  <s_lp_Force_Field>  (395) 
OPLS3e

>  <r_lp_Energy>  (395) 
36.9221

>  <b_lp_Chiralities_Consistent>  (395) 
1

>  <s_lp_Variant>  (395) 
104:0-1

>  <s_i_glide_gridfile>  (395) 
pfpi4k_grid

>  <i_i_glide_lignum>  (395) 
16

>  <i_i_glide_rotatable_bonds>  (395) 
0

>  <r_i_docking_score>  (395) 
-3.77549

>  <r_i_glide_ligand_efficiency>  (395) 
-0.188775

>  <r_i_glide_ligand_efficiency_sa>  (395) 
-0.512413

>  <r_i_glide_ligand_efficiency_ln>  (395) 
-0.944881

>  <r_i_glide_gscore>  (395) 
-3.77549

>  <r_i_glide_lipo>  (395) 
-0.604846

>  <r_i_glide_hbond>  (395) 
0

>  <r_i_glide_metal>  (395) 
-0

>  <r_i_glide_rewards>  (395) 
-1.70122

>  <r_i_glide_evdw>  (395) 
-25.8989

>  <r_i_glide_ecoul>  (395) 
-1.1632

>  <r_i_glide_erotb>  (395) 
0

>  <r_i_glide_esite>  (395) 
0

>  <r_i_glide_emodel>  (395) 
-32.8531

>  <r_i_glide_energy>  (395) 
-27.0621

>  <r_i_glide_einternal>  (395) 
0

>  <r_i_glide_intrahb_reward>  (395) 
-0

>  <i_i_glide_confnum>  (395) 
2

>  <i_i_glide_posenum>  (395) 
29

>  <r_i_glide_eff_state_penalty>  (395) 
0

>  <ligand_id>  (395) 
104

>  <original_smiles>  (395) 
CC1CCC2C(C)C(=O)OC3OC4(C)CCC1C32OO4

>  <smiles>  (395) 
[H]C([H])([H])C12OOC34C([H])(OC(=O)C([H])(C([H])([H])[H])C3([H])C([H])([H])C([H])([H])C([H])(C([H])([H])[H])C4([H])C([H])([H])C1([H])[H])O2

$$$$
104:0:1
     RDKit          3D

 42 45  0  0  1  0  0  0  0  0999 V2000
    8.4631   -2.5936   -0.3437 C   0  0  0  0  0  0  0  0  0  0  0  0
    6.9725   -2.9129   -0.5605 C   0  0  2  0  0  0  0  0  0  0  0  0
    6.7013   -3.0993   -2.0536 C   0  0  0  0  0  0  0  0  0  0  0  0
    5.2516   -3.4574   -2.3305 C   0  0  0  0  0  0  0  0  0  0  0  0
    4.3418   -2.3385   -1.8162 C   0  0  1  0  0  0  0  0  0  0  0  0
    2.8770   -2.5466   -2.1232 C   0  0  1  0  0  0  0  0  0  0  0  0
    2.5748   -2.8217   -3.6190 C   0  0  0  0  0  0  0  0  0  0  0  0
    2.2000   -3.5378   -1.1623 C   0  0  0  0  0  0  0  0  0  0  0  0
    1.1604   -4.0756   -1.5267 O   0  0  0  0  0  0  0  0  0  0  0  0
    2.6436   -3.6704    0.1014 O   0  0  0  0  0  0  0  0  0  0  0  0
    3.8743   -3.1950    0.5346 C   0  0  2  0  0  0  0  0  0  0  0  0
    3.7958   -2.8966    1.8948 O   0  0  0  0  0  0  0  0  0  0  0  0
    3.7580   -1.5225    2.2079 C   0  0  1  0  0  0  0  0  0  0  0  0
    2.8968   -1.3586    3.4612 C   0  0  0  0  0  0  0  0  0  0  0  0
    5.2102   -1.0918    2.4682 C   0  0  0  0  0  0  0  0  0  0  0  0
    6.2271   -1.8315    1.5938 C   0  0  0  0  0  0  0  0  0  0  0  0
    6.0094   -1.8818    0.0843 C   0  0  2  0  0  0  0  0  0  0  0  0
    4.5266   -2.0468   -0.3156 C   0  0  1  0  0  0  0  0  0  0  0  0
    3.9792   -0.7530   -0.0423 O   0  0  0  0  0  0  0  0  0  0  0  0
    3.0999   -0.7852    1.1889 O   0  0  0  0  0  0  0  0  0  0  0  0
    8.7488   -1.6078   -0.7067 H   0  0  0  0  0  0  0  0  0  0  0  0
    9.0838   -3.3064   -0.8829 H   0  0  0  0  0  0  0  0  0  0  0  0
    8.7570   -2.6466    0.7028 H   0  0  0  0  0  0  0  0  0  0  0  0
    6.7988   -3.8873   -0.1024 H   0  0  0  0  0  0  0  0  0  0  0  0
    6.9711   -2.2312   -2.6259 H   0  0  0  0  0  0  0  0  0  0  0  0
    7.3437   -3.8516   -2.4618 H   0  0  0  0  0  0  0  0  0  0  0  0
    5.1319   -3.5889   -3.4066 H   0  0  0  0  0  0  0  0  0  0  0  0
    5.0132   -4.4130   -1.8583 H   0  0  0  0  0  0  0  0  0  0  0  0
    4.6344   -1.4270   -2.3405 H   0  0  0  0  0  0  0  0  0  0  0  0
    2.4100   -1.5853   -1.9266 H   0  0  0  0  0  0  0  0  0  0  0  0
    1.5123   -2.6853   -3.8325 H   0  0  0  0  0  0  0  0  0  0  0  0
    2.8301   -3.8431   -3.9141 H   0  0  0  0  0  0  0  0  0  0  0  0
    3.1085   -2.1263   -4.2778 H   0  0  0  0  0  0  0  0  0  0  0  0
    4.5217   -4.0653    0.4623 H   0  0  0  0  0  0  0  0  0  0  0  0
    1.8659   -1.6266    3.2340 H   0  0  0  0  0  0  0  0  0  0  0  0
    2.9060   -0.3271    3.8177 H   0  0  0  0  0  0  0  0  0  0  0  0
    3.2375   -2.0056    4.2738 H   0  0  0  0  0  0  0  0  0  0  0  0
    5.3275   -0.0144    2.4015 H   0  0  0  0  0  0  0  0  0  0  0  0
    5.4679   -1.3606    3.4960 H   0  0  0  0  0  0  0  0  0  0  0  0
    7.1741   -1.3266    1.7011 H   0  0  0  0  0  0  0  0  0  0  0  0
    6.3472   -2.8518    1.9672 H   0  0  0  0  0  0  0  0  0  0  0  0
    6.2847   -0.9000   -0.2947 H   0  0  0  0  0  0  0  0  0  0  0  0
  1  2  1  0
  1 21  1  0
  1 22  1  0
  1 23  1  0
  2 17  1  0
  2  3  1  0
  2 24  1  1
  3  4  1  0
  3 25  1  0
  3 26  1  0
  4  5  1  0
  4 27  1  0
  4 28  1  0
  5 18  1  0
  5  6  1  0
  5 29  1  6
  6  7  1  0
  6  8  1  0
  6 30  1  1
  7 31  1  0
  7 32  1  0
  7 33  1  0
  8  9  2  0
  8 10  1  0
 10 11  1  0
 11 18  1  0
 11 12  1  0
 11 34  1  1
 12 13  1  0
 13 20  1  0
 13 14  1  1
 13 15  1  0
 14 35  1  0
 14 36  1  0
 14 37  1  0
 15 16  1  0
 15 38  1  0
 15 39  1  0
 16 17  1  0
 16 40  1  0
 16 41  1  0
 17 18  1  0
 17 42  1  6
 18 19  1  1
 19 20  1  0
M  END
>  <i_m_ct_stereo_status>  (396) 
1

>  <s_m_source_file>  (396) 
/var/tmp/pbs.5076255.sched01/tmp1cu33jom/138ve8n868x.sdf

>  <i_m_source_file_index>  (396) 
16

>  <i_lp_mmshare_version>  (396) 
48012

>  <i_f3d_flags>  (396) 
0

>  <s_epik_input>  (396) 
W0NAXTEyM1tDQEhdNFtDSDJdW0NIMl1bQ0BASF0oW0NIM10pW0NAQEhdMltDSDJdW0NIMl1bQ0BAXShbQ0gzXSkoT08zKU9bQ0BIXTFPQyg9TylbQ0BASF00W0NIM10=

>  <s_epik_cmdline>  (396) 
J2VwaWtfcHl0aG9uJywgJy1waHQnLCAnMi4wJywgJy1waCcsICc3LjAnLCAnLXRuJywgJzgnLCAnLW1hJywgJzIwMCcsICctaW1hZScsICc8aW5maWxlLm1hZT4nLCAnLW9tYWUnLCAnPG91dGZpbGUubWFlPic=

>  <r_lp_tautomer_probability>  (396) 
1

>  <r_epik_Ionization_Penalty>  (396) 
1.7205e-10

>  <r_epik_Ionization_Penalty_Charging>  (396) 
0

>  <r_epik_Ionization_Penalty_Neutral>  (396) 
1.7205e-10

>  <r_epik_State_Penalty>  (396) 
-0

>  <r_epik_Charging_Adjusted_Penalty>  (396) 
0

>  <i_epik_Tot_Q>  (396) 
0

>  <i_epik_Tot_abs_Q>  (396) 
0

>  <s_epik_Chemistry_Notes>  (396) 
This compound has an ester and may undergo hydrolysis at high or low pH. This compound contains an acetal/aminal-like group ( X-CH(R)-Y where X, Y are N, S, or O) that may be acid/base labile, releasing an aldehyde.

>  <s_lp_Force_Field>  (396) 
OPLS3e

>  <r_lp_Energy>  (396) 
36.9221

>  <b_lp_Chiralities_Consistent>  (396) 
1

>  <s_lp_Variant>  (396) 
104:0-1

>  <s_i_glide_gridfile>  (396) 
pfpi4k_grid

>  <i_i_glide_lignum>  (396) 
16

>  <i_i_glide_rotatable_bonds>  (396) 
0

>  <r_i_docking_score>  (396) 
-3.27276

>  <r_i_glide_ligand_efficiency>  (396) 
-0.163638

>  <r_i_glide_ligand_efficiency_sa>  (396) 
-0.444182

>  <r_i_glide_ligand_efficiency_ln>  (396) 
-0.819064

>  <r_i_glide_gscore>  (396) 
-3.27276

>  <r_i_glide_lipo>  (396) 
-0.721179

>  <r_i_glide_hbond>  (396) 
-0.0116057

>  <r_i_glide_metal>  (396) 
-0

>  <r_i_glide_rewards>  (396) 
-1.4841

>  <r_i_glide_evdw>  (396) 
-22.6618

>  <r_i_glide_ecoul>  (396) 
0.622034

>  <r_i_glide_erotb>  (396) 
0

>  <r_i_glide_esite>  (396) 
-0.0160919

>  <r_i_glide_emodel>  (396) 
-26.863

>  <r_i_glide_energy>  (396) 
-22.0398

>  <r_i_glide_einternal>  (396) 
0

>  <r_i_glide_intrahb_reward>  (396) 
-0

>  <i_i_glide_confnum>  (396) 
1

>  <i_i_glide_posenum>  (396) 
5

>  <r_i_glide_eff_state_penalty>  (396) 
0

>  <ligand_id>  (396) 
104

>  <original_smiles>  (396) 
CC1CCC2C(C)C(=O)OC3OC4(C)CCC1C32OO4

>  <smiles>  (396) 
[H]C([H])([H])C12OOC34C([H])(OC(=O)C([H])(C([H])([H])[H])C3([H])C([H])([H])C([H])([H])C([H])(C([H])([H])[H])C4([H])C([H])([H])C1([H])[H])O2

$$$$
104:0:2
     RDKit          3D

 42 45  0  0  1  0  0  0  0  0999 V2000
    5.6260   -9.6209    2.1431 C   0  0  0  0  0  0  0  0  0  0  0  0
    4.3056   -8.9952    2.6217 C   0  0  2  0  0  0  0  0  0  0  0  0
    3.2414  -10.0990    2.7626 C   0  0  0  0  0  0  0  0  0  0  0  0
    1.9194   -9.5342    3.2711 C   0  0  0  0  0  0  0  0  0  0  0  0
    1.3885   -8.4982    2.2738 C   0  0  1  0  0  0  0  0  0  0  0  0
   -0.0142   -7.9514    2.5738 C   0  0  1  0  0  0  0  0  0  0  0  0
   -1.0700   -9.0584    2.8217 C   0  0  0  0  0  0  0  0  0  0  0  0
   -0.0248   -6.9071    3.6963 C   0  0  0  0  0  0  0  0  0  0  0  0
   -1.0510   -6.7412    4.3576 O   0  0  0  0  0  0  0  0  0  0  0  0
    1.0631   -6.0823    3.8336 O   0  0  0  0  0  0  0  0  0  0  0  0
    2.3330   -6.3795    3.2881 C   0  0  2  0  0  0  0  0  0  0  0  0
    3.0273   -5.1815    3.0415 O   0  0  0  0  0  0  0  0  0  0  0  0
    3.1092   -4.7914    1.6955 C   0  0  1  0  0  0  0  0  0  0  0  0
    3.0831   -3.2611    1.6310 C   0  0  0  0  0  0  0  0  0  0  0  0
    4.4283   -5.3438    1.1003 C   0  0  0  0  0  0  0  0  0  0  0  0
    4.8705   -6.6847    1.7126 C   0  0  0  0  0  0  0  0  0  0  0  0
    3.8220   -7.8167    1.7273 C   0  0  2  0  0  0  0  0  0  0  0  0
    2.3632   -7.3265    2.0541 C   0  0  1  0  0  0  0  0  0  0  0  0
    1.9108   -6.6838    0.8685 O   0  0  0  0  0  0  0  0  0  0  0  0
    1.9530   -5.1835    0.9970 O   0  0  0  0  0  0  0  0  0  0  0  0
    5.5519   -9.9873    1.1182 H   0  0  0  0  0  0  0  0  0  0  0  0
    5.8976  -10.4652    2.7759 H   0  0  0  0  0  0  0  0  0  0  0  0
    6.4540   -8.9123    2.1955 H   0  0  0  0  0  0  0  0  0  0  0  0
    4.4764   -8.6092    3.6296 H   0  0  0  0  0  0  0  0  0  0  0  0
    3.0814  -10.6040    1.8059 H   0  0  0  0  0  0  0  0  0  0  0  0
    3.5954  -10.8619    3.4606 H   0  0  0  0  0  0  0  0  0  0  0  0
    1.2213  -10.3645    3.3713 H   0  0  0  0  0  0  0  0  0  0  0  0
    2.0575   -9.1160    4.2728 H   0  0  0  0  0  0  0  0  0  0  0  0
    1.3189   -9.0142    1.3138 H   0  0  0  0  0  0  0  0  0  0  0  0
   -0.3320   -7.4132    1.6745 H   0  0  0  0  0  0  0  0  0  0  0  0
   -2.0798   -8.6469    2.7979 H   0  0  0  0  0  0  0  0  0  0  0  0
   -0.9310   -9.5170    3.8027 H   0  0  0  0  0  0  0  0  0  0  0  0
   -1.0107   -9.8431    2.0647 H   0  0  0  0  0  0  0  0  0  0  0  0
    2.8925   -6.8600    4.0914 H   0  0  0  0  0  0  0  0  0  0  0  0
    2.1165   -2.8967    1.9908 H   0  0  0  0  0  0  0  0  0  0  0  0
    3.2249   -2.8876    0.6063 H   0  0  0  0  0  0  0  0  0  0  0  0
    3.8643   -2.8309    2.2611 H   0  0  0  0  0  0  0  0  0  0  0  0
    4.4156   -5.3780    0.0057 H   0  0  0  0  0  0  0  0  0  0  0  0
    5.2312   -4.6443    1.3569 H   0  0  0  0  0  0  0  0  0  0  0  0
    5.7626   -7.0235    1.1892 H   0  0  0  0  0  0  0  0  0  0  0  0
    5.1951   -6.5062    2.7400 H   0  0  0  0  0  0  0  0  0  0  0  0
    3.7753   -8.2032    0.7065 H   0  0  0  0  0  0  0  0  0  0  0  0
  1  2  1  0
  1 21  1  0
  1 22  1  0
  1 23  1  0
  2 17  1  0
  2  3  1  0
  2 24  1  1
  3  4  1  0
  3 25  1  0
  3 26  1  0
  4  5  1  0
  4 27  1  0
  4 28  1  0
  5 18  1  0
  5  6  1  0
  5 29  1  6
  6  7  1  0
  6  8  1  0
  6 30  1  6
  7 31  1  0
  7 32  1  0
  7 33  1  0
  8  9  2  0
  8 10  1  0
 10 11  1  0
 11 18  1  0
 11 12  1  0
 11 34  1  1
 12 13  1  0
 13 20  1  0
 13 14  1  1
 13 15  1  0
 14 35  1  0
 14 36  1  0
 14 37  1  0
 15 16  1  0
 15 38  1  0
 15 39  1  0
 16 17  1  0
 16 40  1  0
 16 41  1  0
 17 18  1  0
 17 42  1  6
 18 19  1  6
 19 20  1  0
M  END
>  <i_m_ct_stereo_status>  (397) 
1

>  <s_m_source_file>  (397) 
/var/tmp/pbs.5076255.sched01/tmp1cu33jom/138ve8n868x.sdf

>  <i_m_source_file_index>  (397) 
16

>  <i_lp_mmshare_version>  (397) 
48012

>  <i_f3d_flags>  (397) 
0

>  <s_epik_input>  (397) 
W0NAXTEyM1tDQEhdNFtDSDJdW0NIMl1bQ0BASF0oW0NIM10pW0NAQEhdMltDSDJdW0NIMl1bQ0BAXShbQ0gzXSkoT08zKU9bQ0BIXTFPQyg9TylbQ0BASF00W0NIM10=

>  <s_epik_cmdline>  (397) 
J2VwaWtfcHl0aG9uJywgJy1waHQnLCAnMi4wJywgJy1waCcsICc3LjAnLCAnLXRuJywgJzgnLCAnLW1hJywgJzIwMCcsICctaW1hZScsICc8aW5maWxlLm1hZT4nLCAnLW9tYWUnLCAnPG91dGZpbGUubWFlPic=

>  <r_lp_tautomer_probability>  (397) 
1

>  <r_epik_Ionization_Penalty>  (397) 
1.7205e-10

>  <r_epik_Ionization_Penalty_Charging>  (397) 
0

>  <r_epik_Ionization_Penalty_Neutral>  (397) 
1.7205e-10

>  <r_epik_State_Penalty>  (397) 
-0

>  <r_epik_Charging_Adjusted_Penalty>  (397) 
0

>  <i_epik_Tot_Q>  (397) 
0

>  <i_epik_Tot_abs_Q>  (397) 
0

>  <s_epik_Chemistry_Notes>  (397) 
This compound has an ester and may undergo hydrolysis at high or low pH. This compound contains an acetal/aminal-like group ( X-CH(R)-Y where X, Y are N, S, or O) that may be acid/base labile, releasing an aldehyde.

>  <s_lp_Force_Field>  (397) 
OPLS3e

>  <r_lp_Energy>  (397) 
36.9221

>  <b_lp_Chiralities_Consistent>  (397) 
1

>  <s_lp_Variant>  (397) 
104:0-1

>  <s_i_glide_gridfile>  (397) 
pfpi4k_grid

>  <i_i_glide_lignum>  (397) 
16

>  <i_i_glide_rotatable_bonds>  (397) 
0

>  <r_i_docking_score>  (397) 
-3.06822

>  <r_i_glide_ligand_efficiency>  (397) 
-0.153411

>  <r_i_glide_ligand_efficiency_sa>  (397) 
-0.416421

>  <r_i_glide_ligand_efficiency_ln>  (397) 
-0.767873

>  <r_i_glide_gscore>  (397) 
-3.06822

>  <r_i_glide_lipo>  (397) 
-0.103274

>  <r_i_glide_hbond>  (397) 
-0.0656333

>  <r_i_glide_metal>  (397) 
-0

>  <r_i_glide_rewards>  (397) 
-1.48489

>  <r_i_glide_evdw>  (397) 
-21.8227

>  <r_i_glide_ecoul>  (397) 
-1.812

>  <r_i_glide_erotb>  (397) 
0

>  <r_i_glide_esite>  (397) 
-0.0514787

>  <r_i_glide_emodel>  (397) 
-28.3212

>  <r_i_glide_energy>  (397) 
-23.6347

>  <r_i_glide_einternal>  (397) 
0

>  <r_i_glide_intrahb_reward>  (397) 
-0

>  <i_i_glide_confnum>  (397) 
2

>  <i_i_glide_posenum>  (397) 
2

>  <r_i_glide_eff_state_penalty>  (397) 
0

>  <ligand_id>  (397) 
104

>  <original_smiles>  (397) 
CC1CCC2C(C)C(=O)OC3OC4(C)CCC1C32OO4

>  <smiles>  (397) 
[H]C([H])([H])C12OOC34C([H])(OC(=O)C([H])(C([H])([H])[H])C3([H])C([H])([H])C([H])([H])C([H])(C([H])([H])[H])C4([H])C([H])([H])C1([H])[H])O2

$$$$
105:0:0
     RDKit          3D

 54 58  0  0  1  0  0  0  0  0999 V2000
    2.5549   -5.6620    2.5737 C   0  0  0  0  0  0  0  0  0  0  0  0
    3.6916   -4.8223    3.2172 C   0  0  1  0  0  0  0  0  0  0  0  0
    5.0635   -5.2790    2.6462 C   0  0  0  0  0  0  0  0  0  0  0  0
    5.2443   -4.8933    1.1725 C   0  0  0  0  0  0  0  0  0  0  0  0
    5.0975   -3.3634    0.9543 C   0  0  2  0  0  0  0  0  0  0  0  0
    3.7606   -2.8160    1.5371 C   0  0  2  0  0  0  0  0  0  0  0  0
    3.6461   -1.2712    1.4142 C   0  0  0  0  0  0  0  0  0  0  0  0
    4.5782   -0.6582    0.3621 C   0  0  0  0  0  0  0  0  0  0  0  0
    4.7161   -1.5667   -0.8396 C   0  0  0  0  0  0  0  0  0  0  0  0
    4.2382   -1.2156   -2.0536 C   0  0  0  0  0  0  0  0  0  0  0  0
    4.3117   -2.1152   -3.2079 C   0  0  0  0  0  0  0  0  0  0  0  0
    3.8828   -1.7994   -4.3210 O   0  0  0  0  0  0  0  0  0  0  0  0
    4.9964   -3.4632   -3.0368 C   0  0  0  0  0  0  0  0  0  0  0  0
    4.8614   -3.9511   -1.5833 C   0  0  0  0  0  0  0  0  0  0  0  0
    5.3768   -2.9193   -0.5360 C   0  0  2  0  0  0  0  0  0  0  0  0
    6.9074   -2.7626   -0.7078 C   0  0  0  0  0  0  0  0  0  0  0  0
    3.4742   -3.3060    2.9909 C   0  0  2  0  0  0  0  0  0  0  0  0
    4.2893   -2.6307    4.1133 C   0  0  0  0  0  0  0  0  0  0  0  0
    4.2948   -3.6416    5.2784 C   0  0  0  0  0  0  0  0  0  0  0  0
    3.6807   -4.9442    4.7218 C   0  0  0  0  0  0  0  0  0  0  0  0
    3.5402   -3.1706    6.3451 O   0  0  0  0  0  0  0  0  0  0  0  0
    4.4700   -2.8009    7.3408 C   0  0  0  0  0  0  0  0  0  0  0  0
    5.6056   -3.7813    7.0822 C   0  0  0  0  0  0  0  0  0  0  0  0
    5.6047   -3.8610    5.6777 O   0  0  0  0  0  0  0  0  0  0  0  0
    2.7177   -6.7266    2.7218 H   0  0  0  0  0  0  0  0  0  0  0  0
    2.4840   -5.4961    1.5012 H   0  0  0  0  0  0  0  0  0  0  0  0
    1.5864   -5.4140    2.9909 H   0  0  0  0  0  0  0  0  0  0  0  0
    5.8785   -4.8378    3.2187 H   0  0  0  0  0  0  0  0  0  0  0  0
    5.1850   -6.3564    2.7710 H   0  0  0  0  0  0  0  0  0  0  0  0
    6.2268   -5.2313    0.8384 H   0  0  0  0  0  0  0  0  0  0  0  0
    4.5182   -5.4410    0.5704 H   0  0  0  0  0  0  0  0  0  0  0  0
    5.8675   -2.9076    1.5847 H   0  0  0  0  0  0  0  0  0  0  0  0
    2.9708   -3.2329    0.9076 H   0  0  0  0  0  0  0  0  0  0  0  0
    2.6101   -1.0288    1.1682 H   0  0  0  0  0  0  0  0  0  0  0  0
    3.8421   -0.7673    2.3581 H   0  0  0  0  0  0  0  0  0  0  0  0
    4.2149    0.3335    0.0812 H   0  0  0  0  0  0  0  0  0  0  0  0
    5.5713   -0.4989    0.7884 H   0  0  0  0  0  0  0  0  0  0  0  0
    3.7692   -0.2581   -2.2113 H   0  0  0  0  0  0  0  0  0  0  0  0
    4.5719   -4.1911   -3.7292 H   0  0  0  0  0  0  0  0  0  0  0  0
    6.0464   -3.3599   -3.3108 H   0  0  0  0  0  0  0  0  0  0  0  0
    3.8092   -4.1824   -1.3957 H   0  0  0  0  0  0  0  0  0  0  0  0
    5.3940   -4.9000   -1.4977 H   0  0  0  0  0  0  0  0  0  0  0  0
    7.4204   -3.7086   -0.5671 H   0  0  0  0  0  0  0  0  0  0  0  0
    7.3225   -2.0579    0.0070 H   0  0  0  0  0  0  0  0  0  0  0  0
    7.1788   -2.3996   -1.6934 H   0  0  0  0  0  0  0  0  0  0  0  0
    2.4276   -3.0930    3.2155 H   0  0  0  0  0  0  0  0  0  0  0  0
    5.3220   -2.4424    3.8025 H   0  0  0  0  0  0  0  0  0  0  0  0
    3.8560   -1.6870    4.4486 H   0  0  0  0  0  0  0  0  0  0  0  0
    2.6460   -4.9951    5.0936 H   0  0  0  0  0  0  0  0  0  0  0  0
    4.2218   -5.8190    5.1076 H   0  0  0  0  0  0  0  0  0  0  0  0
    4.8001   -1.7723    7.1654 H   0  0  0  0  0  0  0  0  0  0  0  0
    4.0603   -2.8629    8.3472 H   0  0  0  0  0  0  0  0  0  0  0  0
    6.5650   -3.4353    7.4706 H   0  0  0  0  0  0  0  0  0  0  0  0
    5.3825   -4.7603    7.5178 H   0  0  0  0  0  0  0  0  0  0  0  0
  2  1  1  6
  1 25  1  0
  1 26  1  0
  1 27  1  0
  2 17  1  0
  2 20  1  0
  2  3  1  0
  3  4  1  0
  3 28  1  0
  3 29  1  0
  4  5  1  0
  4 30  1  0
  4 31  1  0
  5 15  1  0
  5  6  1  0
  5 32  1  1
  6  7  1  0
  6 17  1  0
  6 33  1  6
  7  8  1  0
  7 34  1  0
  7 35  1  0
  8  9  1  0
  8 36  1  0
  8 37  1  0
  9 15  1  0
  9 10  2  0
 10 11  1  0
 10 38  1  0
 11 12  2  0
 11 13  1  0
 13 14  1  0
 13 39  1  0
 13 40  1  0
 14 15  1  0
 14 41  1  0
 14 42  1  0
 15 16  1  1
 16 43  1  0
 16 44  1  0
 16 45  1  0
 17 18  1  0
 17 46  1  1
 18 19  1  0
 18 47  1  0
 18 48  1  0
 19 24  1  0
 19 20  1  0
 19 21  1  0
 20 49  1  0
 20 50  1  0
 21 22  1  0
 22 23  1  0
 22 51  1  0
 22 52  1  0
 23 24  1  0
 23 53  1  0
 23 54  1  0
M  END
>  <i_m_ct_stereo_status>  (398) 
1

>  <s_m_source_file>  (398) 
/var/tmp/pbs.5076255.sched01/tmp1cu33jom/138ve8n868x.sdf

>  <i_m_source_file_index>  (398) 
17

>  <i_lp_mmshare_version>  (398) 
48012

>  <i_f3d_flags>  (398) 
0

>  <s_epik_input>  (398) 
TzFbQ0gyXVtDSDJdT0MxMltDSDJdW0NAQEhdM1tDQF0oW0NIM10pKFtDSDJdMilbQ0gyXVtDSDJdW0NAQEhdNFtDQEBIXTNbQ0gyXVtDSDJdQz01W0NAXTQoW0NIM10pW0NIMl1bQ0gyXUMoPU8pW0NIXTU=

>  <s_epik_cmdline>  (398) 
J2VwaWtfcHl0aG9uJywgJy1waHQnLCAnMi4wJywgJy1waCcsICc3LjAnLCAnLXRuJywgJzgnLCAnLW1hJywgJzIwMCcsICctaW1hZScsICc8aW5maWxlLm1hZT4nLCAnLW9tYWUnLCAnPG91dGZpbGUubWFlPic=

>  <r_lp_tautomer_probability>  (398) 
1

>  <r_epik_Ionization_Penalty>  (398) 
4.94396e-13

>  <r_epik_Ionization_Penalty_Charging>  (398) 
0

>  <r_epik_Ionization_Penalty_Neutral>  (398) 
4.94396e-13

>  <r_epik_State_Penalty>  (398) 
-0

>  <r_epik_Charging_Adjusted_Penalty>  (398) 
0

>  <i_epik_Tot_Q>  (398) 
0

>  <i_epik_Tot_abs_Q>  (398) 
0

>  <s_lp_Force_Field>  (398) 
OPLS3e

>  <r_lp_Energy>  (398) 
26.5665

>  <b_lp_Chiralities_Consistent>  (398) 
1

>  <s_lp_Variant>  (398) 
105:0-1

>  <s_i_glide_gridfile>  (398) 
pfpi4k_grid

>  <i_i_glide_lignum>  (398) 
17

>  <i_i_glide_rotatable_bonds>  (398) 
0

>  <r_i_docking_score>  (398) 
-3.77278

>  <r_i_glide_ligand_efficiency>  (398) 
-0.157199

>  <r_i_glide_ligand_efficiency_sa>  (398) 
-0.453441

>  <r_i_glide_ligand_efficiency_ln>  (398) 
-0.903

>  <r_i_glide_gscore>  (398) 
-3.77278

>  <r_i_glide_lipo>  (398) 
-0.404156

>  <r_i_glide_hbond>  (398) 
-0.32

>  <r_i_glide_metal>  (398) 
-0

>  <r_i_glide_rewards>  (398) 
-1.32387

>  <r_i_glide_evdw>  (398) 
-26.5566

>  <r_i_glide_ecoul>  (398) 
-2.64621

>  <r_i_glide_erotb>  (398) 
0

>  <r_i_glide_esite>  (398) 
0

>  <r_i_glide_emodel>  (398) 
-35.7152

>  <r_i_glide_energy>  (398) 
-29.2028

>  <r_i_glide_einternal>  (398) 
0

>  <r_i_glide_intrahb_reward>  (398) 
-0

>  <i_i_glide_confnum>  (398) 
3

>  <i_i_glide_posenum>  (398) 
1

>  <r_i_glide_eff_state_penalty>  (398) 
0

>  <ligand_id>  (398) 
105

>  <original_smiles>  (398) 
CC12CCC3C(CCC4=CC(=O)CCC43C)C1CC1(C2)OCCO1

>  <smiles>  (398) 
[H]C1=C2C([H])([H])C([H])([H])C3([H])C([H])(C([H])([H])C([H])([H])C4(C([H])([H])[H])C([H])([H])C5(OC([H])([H])C([H])([H])O5)C([H])([H])C34[H])C2(C([H])([H])[H])C([H])([H])C([H])([H])C1=O

$$$$
105:0:1
     RDKit          3D

 54 58  0  0  1  0  0  0  0  0999 V2000
    1.1942   -2.4670    3.3362 C   0  0  0  0  0  0  0  0  0  0  0  0
    2.6663   -2.7924    3.6843 C   0  0  1  0  0  0  0  0  0  0  0  0
    3.0752   -4.1469    3.0399 C   0  0  0  0  0  0  0  0  0  0  0  0
    3.1805   -4.0662    1.5116 C   0  0  0  0  0  0  0  0  0  0  0  0
    4.1810   -2.9745    1.0551 C   0  0  2  0  0  0  0  0  0  0  0  0
    3.8621   -1.5902    1.6923 C   0  0  2  0  0  0  0  0  0  0  0  0
    4.9205   -0.5156    1.3268 C   0  0  0  0  0  0  0  0  0  0  0  0
    5.7509   -0.8564    0.0855 C   0  0  0  0  0  0  0  0  0  0  0  0
    4.9058   -1.5625   -0.9562 C   0  0  0  0  0  0  0  0  0  0  0  0
    4.6170   -0.9897   -2.1459 C   0  0  0  0  0  0  0  0  0  0  0  0
    3.7841   -1.6588   -3.1563 C   0  0  0  0  0  0  0  0  0  0  0  0
    3.5811   -1.1679   -4.2731 O   0  0  0  0  0  0  0  0  0  0  0  0
    3.2206   -3.0347   -2.8307 C   0  0  0  0  0  0  0  0  0  0  0  0
    3.0673   -3.2339   -1.3082 C   0  0  0  0  0  0  0  0  0  0  0  0
    4.3774   -2.9318   -0.5121 C   0  0  2  0  0  0  0  0  0  0  0  0
    5.4316   -3.9988   -0.8809 C   0  0  0  0  0  0  0  0  0  0  0  0
    3.6129   -1.6554    3.2318 C   0  0  2  0  0  0  0  0  0  0  0  0
    4.8617   -1.8235    4.1219 C   0  0  0  0  0  0  0  0  0  0  0  0
    4.3484   -2.4563    5.4314 C   0  0  0  0  0  0  0  0  0  0  0  0
    2.8747   -2.8351    5.1806 C   0  0  0  0  0  0  0  0  0  0  0  0
    4.4403   -1.5579    6.4846 O   0  0  0  0  0  0  0  0  0  0  0  0
    5.5087   -2.0128    7.2866 C   0  0  0  0  0  0  0  0  0  0  0  0
    5.4394   -3.5172    7.0661 C   0  0  0  0  0  0  0  0  0  0  0  0
    5.0950   -3.5918    5.7036 O   0  0  0  0  0  0  0  0  0  0  0  0
    0.5304   -3.2750    3.6304 H   0  0  0  0  0  0  0  0  0  0  0  0
    1.0620   -2.3095    2.2681 H   0  0  0  0  0  0  0  0  0  0  0  0
    0.8496   -1.5607    3.8194 H   0  0  0  0  0  0  0  0  0  0  0  0
    4.0369   -4.4793    3.4310 H   0  0  0  0  0  0  0  0  0  0  0  0
    2.3715   -4.9300    3.3267 H   0  0  0  0  0  0  0  0  0  0  0  0
    3.4820   -5.0413    1.1244 H   0  0  0  0  0  0  0  0  0  0  0  0
    2.1944   -3.8657    1.0976 H   0  0  0  0  0  0  0  0  0  0  0  0
    5.1389   -3.2577    1.5030 H   0  0  0  0  0  0  0  0  0  0  0  0
    2.9239   -1.2635    1.2367 H   0  0  0  0  0  0  0  0  0  0  0  0
    4.3988    0.4293    1.1661 H   0  0  0  0  0  0  0  0  0  0  0  0
    5.6149   -0.3246    2.1423 H   0  0  0  0  0  0  0  0  0  0  0  0
    6.2082    0.0520   -0.3058 H   0  0  0  0  0  0  0  0  0  0  0  0
    6.5771   -1.5132    0.3643 H   0  0  0  0  0  0  0  0  0  0  0  0
    4.9989   -0.0125   -2.3918 H   0  0  0  0  0  0  0  0  0  0  0  0
    2.2702   -3.1923   -3.3448 H   0  0  0  0  0  0  0  0  0  0  0  0
    3.9074   -3.7812   -3.2343 H   0  0  0  0  0  0  0  0  0  0  0  0
    2.2528   -2.6069   -0.9541 H   0  0  0  0  0  0  0  0  0  0  0  0
    2.7368   -4.2583   -1.1315 H   0  0  0  0  0  0  0  0  0  0  0  0
    5.0830   -5.0016   -0.6512 H   0  0  0  0  0  0  0  0  0  0  0  0
    6.3669   -3.8503   -0.3479 H   0  0  0  0  0  0  0  0  0  0  0  0
    5.6814   -3.9839   -1.9373 H   0  0  0  0  0  0  0  0  0  0  0  0
    3.1565   -0.7122    3.5362 H   0  0  0  0  0  0  0  0  0  0  0  0
    5.5898   -2.4997    3.6626 H   0  0  0  0  0  0  0  0  0  0  0  0
    5.3637   -0.8786    4.3406 H   0  0  0  0  0  0  0  0  0  0  0  0
    2.2574   -2.0682    5.6703 H   0  0  0  0  0  0  0  0  0  0  0  0
    2.6407   -3.8045    5.6394 H   0  0  0  0  0  0  0  0  0  0  0  0
    6.4505   -1.6081    6.9046 H   0  0  0  0  0  0  0  0  0  0  0  0
    5.4062   -1.7211    8.3304 H   0  0  0  0  0  0  0  0  0  0  0  0
    6.3832   -4.0235    7.2762 H   0  0  0  0  0  0  0  0  0  0  0  0
    4.6545   -3.9675    7.6814 H   0  0  0  0  0  0  0  0  0  0  0  0
  2  1  1  1
  1 25  1  0
  1 26  1  0
  1 27  1  0
  2 17  1  0
  2 20  1  0
  2  3  1  0
  3  4  1  0
  3 28  1  0
  3 29  1  0
  4  5  1  0
  4 30  1  0
  4 31  1  0
  5 15  1  0
  5  6  1  0
  5 32  1  1
  6  7  1  0
  6 17  1  0
  6 33  1  6
  7  8  1  0
  7 34  1  0
  7 35  1  0
  8  9  1  0
  8 36  1  0
  8 37  1  0
  9 15  1  0
  9 10  2  0
 10 11  1  0
 10 38  1  0
 11 12  2  0
 11 13  1  0
 13 14  1  0
 13 39  1  0
 13 40  1  0
 14 15  1  0
 14 41  1  0
 14 42  1  0
 15 16  1  1
 16 43  1  0
 16 44  1  0
 16 45  1  0
 17 18  1  0
 17 46  1  1
 18 19  1  0
 18 47  1  0
 18 48  1  0
 19 24  1  0
 19 20  1  0
 19 21  1  0
 20 49  1  0
 20 50  1  0
 21 22  1  0
 22 23  1  0
 22 51  1  0
 22 52  1  0
 23 24  1  0
 23 53  1  0
 23 54  1  0
M  END
>  <i_m_ct_stereo_status>  (399) 
1

>  <s_m_source_file>  (399) 
/var/tmp/pbs.5076255.sched01/tmp1cu33jom/138ve8n868x.sdf

>  <i_m_source_file_index>  (399) 
17

>  <i_lp_mmshare_version>  (399) 
48012

>  <i_f3d_flags>  (399) 
0

>  <s_epik_input>  (399) 
TzFbQ0gyXVtDSDJdT0MxMltDSDJdW0NAQEhdM1tDQF0oW0NIM10pKFtDSDJdMilbQ0gyXVtDSDJdW0NAQEhdNFtDQEBIXTNbQ0gyXVtDSDJdQz01W0NAXTQoW0NIM10pW0NIMl1bQ0gyXUMoPU8pW0NIXTU=

>  <s_epik_cmdline>  (399) 
J2VwaWtfcHl0aG9uJywgJy1waHQnLCAnMi4wJywgJy1waCcsICc3LjAnLCAnLXRuJywgJzgnLCAnLW1hJywgJzIwMCcsICctaW1hZScsICc8aW5maWxlLm1hZT4nLCAnLW9tYWUnLCAnPG91dGZpbGUubWFlPic=

>  <r_lp_tautomer_probability>  (399) 
1

>  <r_epik_Ionization_Penalty>  (399) 
4.94396e-13

>  <r_epik_Ionization_Penalty_Charging>  (399) 
0

>  <r_epik_Ionization_Penalty_Neutral>  (399) 
4.94396e-13

>  <r_epik_State_Penalty>  (399) 
-0

>  <r_epik_Charging_Adjusted_Penalty>  (399) 
0

>  <i_epik_Tot_Q>  (399) 
0

>  <i_epik_Tot_abs_Q>  (399) 
0

>  <s_lp_Force_Field>  (399) 
OPLS3e

>  <r_lp_Energy>  (399) 
26.5665

>  <b_lp_Chiralities_Consistent>  (399) 
1

>  <s_lp_Variant>  (399) 
105:0-1

>  <s_i_glide_gridfile>  (399) 
pfpi4k_grid

>  <i_i_glide_lignum>  (399) 
17

>  <i_i_glide_rotatable_bonds>  (399) 
0

>  <r_i_docking_score>  (399) 
-3.39504

>  <r_i_glide_ligand_efficiency>  (399) 
-0.14146

>  <r_i_glide_ligand_efficiency_sa>  (399) 
-0.408041

>  <r_i_glide_ligand_efficiency_ln>  (399) 
-0.812588

>  <r_i_glide_gscore>  (399) 
-3.39504

>  <r_i_glide_lipo>  (399) 
-0.4078

>  <r_i_glide_hbond>  (399) 
-0.0840717

>  <r_i_glide_metal>  (399) 
-0

>  <r_i_glide_rewards>  (399) 
-1.26688

>  <r_i_glide_evdw>  (399) 
-26.7129

>  <r_i_glide_ecoul>  (399) 
-2.00424

>  <r_i_glide_erotb>  (399) 
0

>  <r_i_glide_esite>  (399) 
0

>  <r_i_glide_emodel>  (399) 
-34.5432

>  <r_i_glide_energy>  (399) 
-28.7172

>  <r_i_glide_einternal>  (399) 
0

>  <r_i_glide_intrahb_reward>  (399) 
-0

>  <i_i_glide_confnum>  (399) 
3

>  <i_i_glide_posenum>  (399) 
11

>  <r_i_glide_eff_state_penalty>  (399) 
0

>  <ligand_id>  (399) 
105

>  <original_smiles>  (399) 
CC12CCC3C(CCC4=CC(=O)CCC43C)C1CC1(C2)OCCO1

>  <smiles>  (399) 
[H]C1=C2C([H])([H])C([H])([H])C3([H])C([H])(C([H])([H])C([H])([H])C4(C([H])([H])[H])C([H])([H])C5(OC([H])([H])C([H])([H])O5)C([H])([H])C34[H])C2(C([H])([H])[H])C([H])([H])C([H])([H])C1=O

$$$$
105:0:2
     RDKit          3D

 54 58  0  0  1  0  0  0  0  0999 V2000
    6.0135   -1.3673    1.1878 C   0  0  0  0  0  0  0  0  0  0  0  0
    5.5629   -2.2775    0.0278 C   0  0  1  0  0  0  0  0  0  0  0  0
    6.6361   -3.3620   -0.2403 C   0  0  0  0  0  0  0  0  0  0  0  0
    6.7016   -4.4030    0.8855 C   0  0  0  0  0  0  0  0  0  0  0  0
    5.3341   -5.0979    1.1215 C   0  0  2  0  0  0  0  0  0  0  0  0
    4.1901   -4.0632    1.3535 C   0  0  2  0  0  0  0  0  0  0  0  0
    2.7978   -4.7453    1.4774 C   0  0  0  0  0  0  0  0  0  0  0  0
    2.8549   -6.2342    1.8487 C   0  0  0  0  0  0  0  0  0  0  0  0
    4.0014   -6.5171    2.7964 C   0  0  0  0  0  0  0  0  0  0  0  0
    3.7762   -6.9310    4.0628 C   0  0  0  0  0  0  0  0  0  0  0  0
    4.8743   -7.1551    5.0179 C   0  0  0  0  0  0  0  0  0  0  0  0
    4.6803   -7.5112    6.1771 O   0  0  0  0  0  0  0  0  0  0  0  0
    6.3068   -6.9462    4.5298 C   0  0  0  0  0  0  0  0  0  0  0  0
    6.3585   -5.9034    3.3983 C   0  0  0  0  0  0  0  0  0  0  0  0
    5.3940   -6.2336    2.2157 C   0  0  2  0  0  0  0  0  0  0  0  0
    5.8892   -7.5265    1.5282 C   0  0  0  0  0  0  0  0  0  0  0  0
    4.1802   -2.9028    0.3136 C   0  0  2  0  0  0  0  0  0  0  0  0
    3.6343   -3.2672   -1.0747 C   0  0  0  0  0  0  0  0  0  0  0  0
    4.2656   -2.2567   -2.0485 C   0  0  0  0  0  0  0  0  0  0  0  0
    5.3157   -1.4639   -1.2572 C   0  0  0  0  0  0  0  0  0  0  0  0
    3.3111   -1.4062   -2.5799 O   0  0  0  0  0  0  0  0  0  0  0  0
    2.8929   -1.9966   -3.7980 C   0  0  0  0  0  0  0  0  0  0  0  0
    3.7667   -3.2445   -3.9301 C   0  0  0  0  0  0  0  0  0  0  0  0
    4.8591   -2.9408   -3.0936 O   0  0  0  0  0  0  0  0  0  0  0  0
    6.9922   -0.9321    1.0044 H   0  0  0  0  0  0  0  0  0  0  0  0
    6.0804   -1.9188    2.1251 H   0  0  0  0  0  0  0  0  0  0  0  0
    5.3168   -0.5518    1.3588 H   0  0  0  0  0  0  0  0  0  0  0  0
    6.4283   -3.8718   -1.1795 H   0  0  0  0  0  0  0  0  0  0  0  0
    7.6167   -2.9049   -0.3839 H   0  0  0  0  0  0  0  0  0  0  0  0
    7.4661   -5.1455    0.6399 H   0  0  0  0  0  0  0  0  0  0  0  0
    7.0382   -3.9084    1.7958 H   0  0  0  0  0  0  0  0  0  0  0  0
    5.0847   -5.5704    0.1678 H   0  0  0  0  0  0  0  0  0  0  0  0
    4.3972   -3.6039    2.3199 H   0  0  0  0  0  0  0  0  0  0  0  0
    2.2234   -4.2010    2.2271 H   0  0  0  0  0  0  0  0  0  0  0  0
    2.2176   -4.6644    0.5600 H   0  0  0  0  0  0  0  0  0  0  0  0
    1.9017   -6.5554    2.2717 H   0  0  0  0  0  0  0  0  0  0  0  0
    3.0078   -6.8336    0.9495 H   0  0  0  0  0  0  0  0  0  0  0  0
    2.7716   -7.1042    4.4159 H   0  0  0  0  0  0  0  0  0  0  0  0
    6.9419   -6.6495    5.3655 H   0  0  0  0  0  0  0  0  0  0  0  0
    6.6919   -7.9048    4.1820 H   0  0  0  0  0  0  0  0  0  0  0  0
    6.1152   -4.9244    3.8165 H   0  0  0  0  0  0  0  0  0  0  0  0
    7.3913   -5.8354    3.0544 H   0  0  0  0  0  0  0  0  0  0  0  0
    6.9029   -7.4164    1.1519 H   0  0  0  0  0  0  0  0  0  0  0  0
    5.2588   -7.8035    0.6865 H   0  0  0  0  0  0  0  0  0  0  0  0
    5.8906   -8.3833    2.1958 H   0  0  0  0  0  0  0  0  0  0  0  0
    3.5246   -2.1125    0.6824 H   0  0  0  0  0  0  0  0  0  0  0  0
    3.9516   -4.2752   -1.3506 H   0  0  0  0  0  0  0  0  0  0  0  0
    2.5432   -3.2184   -1.1413 H   0  0  0  0  0  0  0  0  0  0  0  0
    4.8682   -0.5001   -0.9962 H   0  0  0  0  0  0  0  0  0  0  0  0
    6.2141   -1.3058   -1.8519 H   0  0  0  0  0  0  0  0  0  0  0  0
    1.8325   -2.2559   -3.7746 H   0  0  0  0  0  0  0  0  0  0  0  0
    3.0612   -1.3008   -4.6226 H   0  0  0  0  0  0  0  0  0  0  0  0
    3.2364   -4.1183   -3.5577 H   0  0  0  0  0  0  0  0  0  0  0  0
    4.0665   -3.4677   -4.9492 H   0  0  0  0  0  0  0  0  0  0  0  0
  2  1  1  1
  1 25  1  0
  1 26  1  0
  1 27  1  0
  2 17  1  0
  2 20  1  0
  2  3  1  0
  3  4  1  0
  3 28  1  0
  3 29  1  0
  4  5  1  0
  4 30  1  0
  4 31  1  0
  5 15  1  0
  5  6  1  0
  5 32  1  6
  6  7  1  0
  6 17  1  0
  6 33  1  1
  7  8  1  0
  7 34  1  0
  7 35  1  0
  8  9  1  0
  8 36  1  0
  8 37  1  0
  9 15  1  0
  9 10  2  0
 10 11  1  0
 10 38  1  0
 11 12  2  0
 11 13  1  0
 13 14  1  0
 13 39  1  0
 13 40  1  0
 14 15  1  0
 14 41  1  0
 14 42  1  0
 15 16  1  6
 16 43  1  0
 16 44  1  0
 16 45  1  0
 17 18  1  0
 17 46  1  1
 18 19  1  0
 18 47  1  0
 18 48  1  0
 19 24  1  0
 19 20  1  0
 19 21  1  0
 20 49  1  0
 20 50  1  0
 21 22  1  0
 22 23  1  0
 22 51  1  0
 22 52  1  0
 23 24  1  0
 23 53  1  0
 23 54  1  0
M  END
>  <i_m_ct_stereo_status>  (400) 
1

>  <s_m_source_file>  (400) 
/var/tmp/pbs.5076255.sched01/tmp1cu33jom/138ve8n868x.sdf

>  <i_m_source_file_index>  (400) 
17

>  <i_lp_mmshare_version>  (400) 
48012

>  <i_f3d_flags>  (400) 
0

>  <s_epik_input>  (400) 
TzFbQ0gyXVtDSDJdT0MxMltDSDJdW0NAQEhdM1tDQF0oW0NIM10pKFtDSDJdMilbQ0gyXVtDSDJdW0NAQEhdNFtDQEBIXTNbQ0gyXVtDSDJdQz01W0NAXTQoW0NIM10pW0NIMl1bQ0gyXUMoPU8pW0NIXTU=

>  <s_epik_cmdline>  (400) 
J2VwaWtfcHl0aG9uJywgJy1waHQnLCAnMi4wJywgJy1waCcsICc3LjAnLCAnLXRuJywgJzgnLCAnLW1hJywgJzIwMCcsICctaW1hZScsICc8aW5maWxlLm1hZT4nLCAnLW9tYWUnLCAnPG91dGZpbGUubWFlPic=

>  <r_lp_tautomer_probability>  (400) 
1

>  <r_epik_Ionization_Penalty>  (400) 
4.94396e-13

>  <r_epik_Ionization_Penalty_Charging>  (400) 
0

>  <r_epik_Ionization_Penalty_Neutral>  (400) 
4.94396e-13

>  <r_epik_State_Penalty>  (400) 
-0

>  <r_epik_Charging_Adjusted_Penalty>  (400) 
0

>  <i_epik_Tot_Q>  (400) 
0

>  <i_epik_Tot_abs_Q>  (400) 
0

>  <s_lp_Force_Field>  (400) 
OPLS3e

>  <r_lp_Energy>  (400) 
26.5665

>  <b_lp_Chiralities_Consistent>  (400) 
1

>  <s_lp_Variant>  (400) 
105:0-1

>  <s_i_glide_gridfile>  (400) 
pfpi4k_grid

>  <i_i_glide_lignum>  (400) 
17

>  <i_i_glide_rotatable_bonds>  (400) 
0

>  <r_i_docking_score>  (400) 
-3.38651

>  <r_i_glide_ligand_efficiency>  (400) 
-0.141105

>  <r_i_glide_ligand_efficiency_sa>  (400) 
-0.407016

>  <r_i_glide_ligand_efficiency_ln>  (400) 
-0.810547

>  <r_i_glide_gscore>  (400) 
-3.38651

>  <r_i_glide_lipo>  (400) 
-0.892326

>  <r_i_glide_hbond>  (400) 
0

>  <r_i_glide_metal>  (400) 
-0

>  <r_i_glide_rewards>  (400) 
-1.15595

>  <r_i_glide_evdw>  (400) 
-27.1461

>  <r_i_glide_ecoul>  (400) 
0.141004

>  <r_i_glide_erotb>  (400) 
0

>  <r_i_glide_esite>  (400) 
-0.00208312

>  <r_i_glide_emodel>  (400) 
-32.6788

>  <r_i_glide_energy>  (400) 
-27.0051

>  <r_i_glide_einternal>  (400) 
0

>  <r_i_glide_intrahb_reward>  (400) 
-0

>  <i_i_glide_confnum>  (400) 
2

>  <i_i_glide_posenum>  (400) 
20

>  <r_i_glide_eff_state_penalty>  (400) 
0

>  <ligand_id>  (400) 
105

>  <original_smiles>  (400) 
CC12CCC3C(CCC4=CC(=O)CCC43C)C1CC1(C2)OCCO1

>  <smiles>  (400) 
[H]C1=C2C([H])([H])C([H])([H])C3([H])C([H])(C([H])([H])C([H])([H])C4(C([H])([H])[H])C([H])([H])C5(OC([H])([H])C([H])([H])O5)C([H])([H])C34[H])C2(C([H])([H])[H])C([H])([H])C([H])([H])C1=O

$$$$
106:0:0
     RDKit          3D

 57 62  0  0  1  0  0  0  0  0999 V2000
    5.1036   -3.6687   -2.6042 C   0  0  0  0  0  0  0  0  0  0  0  0
    5.0261   -3.0678   -1.1846 C   0  0  2  0  0  0  0  0  0  0  0  0
    5.8469   -3.9643   -0.1797 C   0  0  0  0  0  0  0  0  0  0  0  0
    5.2756   -3.7196    1.2137 C   0  0  1  0  0  0  0  0  0  0  0  0
    5.6596   -2.3249    1.3504 O   0  0  0  0  0  0  0  0  0  0  0  0
    4.7432   -1.2981    1.6540 C   0  0  0  0  0  0  0  0  0  0  0  0
    4.9872   -0.7732    3.0919 C   0  0  0  0  0  0  0  0  0  0  0  0
    4.9816   -0.1002    0.7150 C   0  0  0  0  0  0  0  0  0  0  0  0
    3.4094   -1.6735    1.5596 O   0  0  0  0  0  0  0  0  0  0  0  0
    3.0649   -2.7795    0.7319 C   0  0  1  0  0  0  0  0  0  0  0  0
    3.5015   -2.7465   -0.7824 C   0  0  1  0  0  0  0  0  0  0  0  0
    3.0143   -1.6091   -1.4489 O   0  0  0  0  0  0  0  0  0  0  0  0
    3.7482   -4.0336    1.1958 C   0  0  1  0  0  0  0  0  0  0  0  0
    2.8491   -5.1898    0.8482 O   0  0  0  0  0  0  0  0  0  0  0  0
    2.0981   -5.9583    1.8759 C   0  0  2  0  0  0  0  0  0  0  0  0
    0.9327   -6.6740    1.1903 C   0  0  0  0  0  0  0  0  0  0  0  0
    1.7599   -4.9653    2.9078 C   0  0  0  0  0  0  0  0  0  0  0  0
    3.1856   -4.9064    3.4527 C   0  0  1  0  0  0  0  0  0  0  0  0
    3.1885   -3.8983    4.6313 C   0  0  0  0  0  0  0  0  0  0  0  0
    3.4354   -6.2545    3.8865 C   0  0  2  0  0  0  0  0  0  0  0  0
    4.8862   -6.3860    4.1687 O   0  0  0  0  0  0  0  0  0  0  0  0
    5.8956   -5.3400    3.7995 C   0  0  1  0  0  0  0  0  0  0  0  0
    7.1571   -5.8943    3.4711 O   0  0  0  0  0  0  0  0  0  0  0  0
    5.4555   -4.1784    2.7650 C   0  0  2  0  0  0  0  0  0  0  0  0
    4.2718   -4.8613    2.3178 C   0  0  2  0  0  0  0  0  0  0  0  0
    4.9309   -6.2476    1.5530 C   0  0  0  0  0  0  0  0  0  0  0  0
    2.8132   -6.9148    2.7373 O   0  0  0  0  0  0  0  0  0  0  0  0
    4.6359   -4.6482   -2.6474 H   0  0  0  0  0  0  0  0  0  0  0  0
    6.1361   -3.8142   -2.9267 H   0  0  0  0  0  0  0  0  0  0  0  0
    4.6088   -3.0375   -3.3406 H   0  0  0  0  0  0  0  0  0  0  0  0
    5.5700   -2.1250   -1.2500 H   0  0  0  0  0  0  0  0  0  0  0  0
    5.7521   -4.9999   -0.5150 H   0  0  0  0  0  0  0  0  0  0  0  0
    6.9120   -3.7349   -0.2194 H   0  0  0  0  0  0  0  0  0  0  0  0
    4.5451   -1.4176    3.8428 H   0  0  0  0  0  0  0  0  0  0  0  0
    4.5194    0.2029    3.2234 H   0  0  0  0  0  0  0  0  0  0  0  0
    6.0543   -0.6681    3.2922 H   0  0  0  0  0  0  0  0  0  0  0  0
    4.8988   -0.3618   -0.3294 H   0  0  0  0  0  0  0  0  0  0  0  0
    5.9701    0.3229    0.8791 H   0  0  0  0  0  0  0  0  0  0  0  0
    4.2363    0.6723    0.9059 H   0  0  0  0  0  0  0  0  0  0  0  0
    1.9768   -2.8651    0.7851 H   0  0  0  0  0  0  0  0  0  0  0  0
    2.9348   -3.5700   -1.2185 H   0  0  0  0  0  0  0  0  0  0  0  0
    2.0878   -1.4083   -1.1483 H   0  0  0  0  0  0  0  0  0  0  0  0
    1.3235   -7.4182    0.4995 H   0  0  0  0  0  0  0  0  0  0  0  0
    0.3363   -5.9705    0.6160 H   0  0  0  0  0  0  0  0  0  0  0  0
    0.3143   -7.1834    1.9271 H   0  0  0  0  0  0  0  0  0  0  0  0
    1.3675   -4.0365    2.4917 H   0  0  0  0  0  0  0  0  0  0  0  0
    1.0506   -5.3816    3.6218 H   0  0  0  0  0  0  0  0  0  0  0  0
    4.1165   -3.8656    5.2009 H   0  0  0  0  0  0  0  0  0  0  0  0
    2.4017   -4.1510    5.3450 H   0  0  0  0  0  0  0  0  0  0  0  0
    2.9590   -2.8911    4.2772 H   0  0  0  0  0  0  0  0  0  0  0  0
    2.8731   -6.5325    4.7790 H   0  0  0  0  0  0  0  0  0  0  0  0
    6.1029   -4.8585    4.7550 H   0  0  0  0  0  0  0  0  0  0  0  0
    7.4107   -6.4751    4.1655 H   0  0  0  0  0  0  0  0  0  0  0  0
    5.2325   -3.3004    3.3385 H   0  0  0  0  0  0  0  0  0  0  0  0
    4.9694   -7.1868    2.0987 H   0  0  0  0  0  0  0  0  0  0  0  0
    5.9832   -6.1321    1.2996 H   0  0  0  0  0  0  0  0  0  0  0  0
    4.4999   -6.5587    0.6007 H   0  0  0  0  0  0  0  0  0  0  0  0
  1  2  1  0
  1 28  1  0
  1 29  1  0
  1 30  1  0
  2 11  1  0
  2  3  1  0
  2 31  1  6
  3  4  1  0
  3 32  1  0
  3 33  1  0
  4 13  1  0
  4 24  1  0
  4  5  1  1
  5  6  1  0
  6  7  1  0
  6  8  1  0
  6  9  1  0
  7 34  1  0
  7 35  1  0
  7 36  1  0
  8 37  1  0
  8 38  1  0
  8 39  1  0
  9 10  1  0
 10 11  1  0
 10 13  1  0
 10 40  1  6
 11 12  1  0
 11 41  1  6
 12 42  1  0
 13 25  1  0
 13 14  1  6
 14 15  1  0
 15 27  1  0
 15 16  1  6
 15 17  1  0
 16 43  1  0
 16 44  1  0
 16 45  1  0
 17 18  1  0
 17 46  1  0
 17 47  1  0
 18 25  1  0
 18 19  1  1
 18 20  1  0
 19 48  1  0
 19 49  1  0
 19 50  1  0
 20 21  1  0
 20 27  1  0
 20 51  1  1
 21 22  1  0
 22 23  1  0
 22 24  1  0
 22 52  1  1
 23 53  1  0
 24 25  1  0
 24 54  1  1
 25 26  1  6
 26 55  1  0
 26 56  1  0
 26 57  1  0
M  END
>  <i_m_ct_stereo_status>  (401) 
1

>  <s_m_source_file>  (401) 
/var/tmp/pbs.5076255.sched01/tmp1cu33jom/138ve8n868x.sdf

>  <i_m_source_file_index>  (401) 
18

>  <i_lp_mmshare_version>  (401) 
48012

>  <i_f3d_flags>  (401) 
0

>  <s_epik_input>  (401) 
W0NIM11bQ0BIXShbQ0gyXTEpW0NASF0oW09IXSlbQ0BIXShPQyhPMikoW0NIM10pW0NIM10pW0NAQF0zKFtDQEBdMTI0KVtDQF01KFtDSDNdKVtDQF02KFtDSDNdKVtDQEhdKE9bQ0BASF0oW09IXSlbQ0BASF00NSlPW0NAQF0oTzMpKFtDSDNdKVtDSDJdNg==

>  <s_epik_cmdline>  (401) 
J2VwaWtfcHl0aG9uJywgJy1waHQnLCAnMi4wJywgJy1waCcsICc3LjAnLCAnLXRuJywgJzgnLCAnLW1hJywgJzIwMCcsICctaW1hZScsICc8aW5maWxlLm1hZT4nLCAnLW9tYWUnLCAnPG91dGZpbGUubWFlPic=

>  <r_lp_tautomer_probability>  (401) 
1

>  <r_epik_Ionization_Penalty>  (401) 
7.16598e-07

>  <r_epik_Ionization_Penalty_Charging>  (401) 
0

>  <r_epik_Ionization_Penalty_Neutral>  (401) 
7.16598e-07

>  <r_epik_State_Penalty>  (401) 
-0

>  <r_epik_Charging_Adjusted_Penalty>  (401) 
0

>  <i_epik_Tot_Q>  (401) 
0

>  <i_epik_Tot_abs_Q>  (401) 
0

>  <s_epik_Chemistry_Notes>  (401) 
This compound contains an acetal/aminal-like group ( X-CH(R)-Y where X, Y are N, S, or O) that may be acid/base labile, releasing an aldehyde.

>  <s_lp_Force_Field>  (401) 
OPLS3e

>  <r_lp_Energy>  (401) 
324.552

>  <b_lp_Chiralities_Consistent>  (401) 
1

>  <s_lp_Variant>  (401) 
106:0-1

>  <s_i_glide_gridfile>  (401) 
pfpi4k_grid

>  <i_i_glide_lignum>  (401) 
18

>  <i_i_glide_rotatable_bonds>  (401) 
2

>  <r_i_docking_score>  (401) 
-3.43412

>  <r_i_glide_ligand_efficiency>  (401) 
-0.12719

>  <r_i_glide_ligand_efficiency_sa>  (401) 
-0.381569

>  <r_i_glide_ligand_efficiency_ln>  (401) 
-0.799408

>  <r_i_glide_gscore>  (401) 
-3.43412

>  <r_i_glide_lipo>  (401) 
-0.5589

>  <r_i_glide_hbond>  (401) 
0

>  <r_i_glide_metal>  (401) 
-0

>  <r_i_glide_rewards>  (401) 
-0.884329

>  <r_i_glide_evdw>  (401) 
-15.1013

>  <r_i_glide_ecoul>  (401) 
-8.08246

>  <r_i_glide_erotb>  (401) 
0

>  <r_i_glide_esite>  (401) 
-0.0234614

>  <r_i_glide_emodel>  (401) 
-27.3903

>  <r_i_glide_energy>  (401) 
-23.1838

>  <r_i_glide_einternal>  (401) 
0.908713

>  <r_i_glide_intrahb_reward>  (401) 
-0

>  <i_i_glide_confnum>  (401) 
1

>  <i_i_glide_posenum>  (401) 
37

>  <r_i_glide_eff_state_penalty>  (401) 
0

>  <ligand_id>  (401) 
106

>  <original_smiles>  (401) 
CC1CC23OC(C)(C)OC(C1O)C21OC2(C)CC4(C)C(OC(O)C3C41C)O2

>  <smiles>  (401) 
[H]OC1([H])OC2([H])OC3(C([H])([H])[H])OC45C6([H])OC(C([H])([H])[H])(C([H])([H])[H])OC4(C([H])([H])C([H])(C([H])([H])[H])C6([H])O[H])C1([H])C5(C([H])([H])[H])C2(C([H])([H])[H])C3([H])[H]

$$$$
106:0:1
     RDKit          3D

 57 62  0  0  1  0  0  0  0  0999 V2000
    3.0707    1.1391    2.7027 C   0  0  0  0  0  0  0  0  0  0  0  0
    3.4577   -0.3553    2.7326 C   0  0  2  0  0  0  0  0  0  0  0  0
    4.9373   -0.5558    2.2307 C   0  0  0  0  0  0  0  0  0  0  0  0
    5.0602   -1.9734    1.6918 C   0  0  1  0  0  0  0  0  0  0  0  0
    4.8363   -2.6768    2.9592 O   0  0  0  0  0  0  0  0  0  0  0  0
    3.8572   -3.6603    3.1324 C   0  0  0  0  0  0  0  0  0  0  0  0
    4.5261   -5.0579    3.2732 C   0  0  0  0  0  0  0  0  0  0  0  0
    3.1262   -3.4055    4.4756 C   0  0  0  0  0  0  0  0  0  0  0  0
    2.9273   -3.7376    2.1200 O   0  0  0  0  0  0  0  0  0  0  0  0
    2.7184   -2.5864    1.2917 C   0  0  1  0  0  0  0  0  0  0  0  0
    2.3354   -1.2324    2.0071 C   0  0  1  0  0  0  0  0  0  0  0  0
    1.1669   -1.3765    2.7967 O   0  0  0  0  0  0  0  0  0  0  0  0
    3.9667   -2.1852    0.5935 C   0  0  1  0  0  0  0  0  0  0  0  0
    3.5906   -1.5571   -0.7197 O   0  0  0  0  0  0  0  0  0  0  0  0
    3.7928   -2.2195   -2.0275 C   0  0  2  0  0  0  0  0  0  0  0  0
    2.8456   -1.6237   -3.0709 C   0  0  0  0  0  0  0  0  0  0  0  0
    3.6202   -3.6502   -1.7429 C   0  0  0  0  0  0  0  0  0  0  0  0
    4.9495   -3.7758   -1.0329 C   0  0  1  0  0  0  0  0  0  0  0  0
    5.1132   -5.2499   -0.5758 C   0  0  0  0  0  0  0  0  0  0  0  0
    5.9057   -3.4187   -2.0619 C   0  0  2  0  0  0  0  0  0  0  0  0
    7.2175   -3.2217   -1.4165 O   0  0  0  0  0  0  0  0  0  0  0  0
    7.4047   -3.1726    0.0582 C   0  0  1  0  0  0  0  0  0  0  0  0
    8.4987   -2.2937    0.4092 O   0  0  0  0  0  0  0  0  0  0  0  0
    6.1217   -2.9851    1.0134 C   0  0  2  0  0  0  0  0  0  0  0  0
    5.2563   -2.5832   -0.0632 C   0  0  2  0  0  0  0  0  0  0  0  0
    5.9479   -1.1069   -0.5399 C   0  0  0  0  0  0  0  0  0  0  0  0
    5.1387   -2.2995   -2.6076 O   0  0  0  0  0  0  0  0  0  0  0  0
    3.0734    1.5317    1.6837 H   0  0  0  0  0  0  0  0  0  0  0  0
    3.7814    1.7259    3.2913 H   0  0  0  0  0  0  0  0  0  0  0  0
    2.0785    1.3182    3.1199 H   0  0  0  0  0  0  0  0  0  0  0  0
    3.4756   -0.6256    3.7772 H   0  0  0  0  0  0  0  0  0  0  0  0
    5.1201    0.1975    1.4664 H   0  0  0  0  0  0  0  0  0  0  0  0
    5.6630   -0.3547    3.0236 H   0  0  0  0  0  0  0  0  0  0  0  0
    4.7978   -5.4758    2.3056 H   0  0  0  0  0  0  0  0  0  0  0  0
    3.8249   -5.7587    3.7260 H   0  0  0  0  0  0  0  0  0  0  0  0
    5.4151   -4.9956    3.9016 H   0  0  0  0  0  0  0  0  0  0  0  0
    2.6785   -2.4159    4.5155 H   0  0  0  0  0  0  0  0  0  0  0  0
    3.8184   -3.5026    5.3127 H   0  0  0  0  0  0  0  0  0  0  0  0
    2.3250   -4.1345    4.5896 H   0  0  0  0  0  0  0  0  0  0  0  0
    1.9318   -2.8460    0.5924 H   0  0  0  0  0  0  0  0  0  0  0  0
    2.0040   -0.6064    1.1785 H   0  0  0  0  0  0  0  0  0  0  0  0
    0.8036   -0.5279    2.9272 H   0  0  0  0  0  0  0  0  0  0  0  0
    3.0859   -0.5637   -3.1968 H   0  0  0  0  0  0  0  0  0  0  0  0
    1.8257   -1.7477   -2.7217 H   0  0  0  0  0  0  0  0  0  0  0  0
    2.9519   -2.1377   -4.0251 H   0  0  0  0  0  0  0  0  0  0  0  0
    2.7274   -3.8650   -1.1703 H   0  0  0  0  0  0  0  0  0  0  0  0
    3.6058   -4.1910   -2.6939 H   0  0  0  0  0  0  0  0  0  0  0  0
    6.0902   -5.5061   -0.1734 H   0  0  0  0  0  0  0  0  0  0  0  0
    4.9725   -5.9132   -1.4291 H   0  0  0  0  0  0  0  0  0  0  0  0
    4.3507   -5.5196    0.1516 H   0  0  0  0  0  0  0  0  0  0  0  0
    5.9788   -4.1766   -2.8486 H   0  0  0  0  0  0  0  0  0  0  0  0
    7.8447   -4.1553    0.2751 H   0  0  0  0  0  0  0  0  0  0  0  0
    9.2147   -2.4664   -0.1622 H   0  0  0  0  0  0  0  0  0  0  0  0
    5.8785   -3.9676    1.3976 H   0  0  0  0  0  0  0  0  0  0  0  0
    6.5692   -1.0990   -1.4134 H   0  0  0  0  0  0  0  0  0  0  0  0
    6.6282   -0.6921    0.2014 H   0  0  0  0  0  0  0  0  0  0  0  0
    5.2897   -0.2601   -0.7275 H   0  0  0  0  0  0  0  0  0  0  0  0
  1  2  1  0
  1 28  1  0
  1 29  1  0
  1 30  1  0
  2 11  1  0
  2  3  1  0
  2 31  1  1
  3  4  1  0
  3 32  1  0
  3 33  1  0
  4 13  1  0
  4 24  1  0
  4  5  1  1
  5  6  1  0
  6  7  1  0
  6  8  1  0
  6  9  1  0
  7 34  1  0
  7 35  1  0
  7 36  1  0
  8 37  1  0
  8 38  1  0
  8 39  1  0
  9 10  1  0
 10 11  1  0
 10 13  1  0
 10 40  1  6
 11 12  1  0
 11 41  1  6
 12 42  1  0
 13 25  1  0
 13 14  1  6
 14 15  1  0
 15 27  1  0
 15 16  1  6
 15 17  1  0
 16 43  1  0
 16 44  1  0
 16 45  1  0
 17 18  1  0
 17 46  1  0
 17 47  1  0
 18 25  1  0
 18 19  1  1
 18 20  1  0
 19 48  1  0
 19 49  1  0
 19 50  1  0
 20 21  1  0
 20 27  1  0
 20 51  1  6
 21 22  1  0
 22 23  1  0
 22 24  1  0
 22 52  1  1
 23 53  1  0
 24 25  1  0
 24 54  1  1
 25 26  1  6
 26 55  1  0
 26 56  1  0
 26 57  1  0
M  END
>  <i_m_ct_stereo_status>  (402) 
1

>  <s_m_source_file>  (402) 
/var/tmp/pbs.5076255.sched01/tmp1cu33jom/138ve8n868x.sdf

>  <i_m_source_file_index>  (402) 
18

>  <i_lp_mmshare_version>  (402) 
48012

>  <i_f3d_flags>  (402) 
0

>  <s_epik_input>  (402) 
W0NIM11bQ0BIXShbQ0gyXTEpW0NASF0oW09IXSlbQ0BIXShPQyhPMikoW0NIM10pW0NIM10pW0NAQF0zKFtDQEBdMTI0KVtDQF01KFtDSDNdKVtDQF02KFtDSDNdKVtDQEhdKE9bQ0BASF0oW09IXSlbQ0BASF00NSlPW0NAQF0oTzMpKFtDSDNdKVtDSDJdNg==

>  <s_epik_cmdline>  (402) 
J2VwaWtfcHl0aG9uJywgJy1waHQnLCAnMi4wJywgJy1waCcsICc3LjAnLCAnLXRuJywgJzgnLCAnLW1hJywgJzIwMCcsICctaW1hZScsICc8aW5maWxlLm1hZT4nLCAnLW9tYWUnLCAnPG91dGZpbGUubWFlPic=

>  <r_lp_tautomer_probability>  (402) 
1

>  <r_epik_Ionization_Penalty>  (402) 
7.16598e-07

>  <r_epik_Ionization_Penalty_Charging>  (402) 
0

>  <r_epik_Ionization_Penalty_Neutral>  (402) 
7.16598e-07

>  <r_epik_State_Penalty>  (402) 
-0

>  <r_epik_Charging_Adjusted_Penalty>  (402) 
0

>  <i_epik_Tot_Q>  (402) 
0

>  <i_epik_Tot_abs_Q>  (402) 
0

>  <s_epik_Chemistry_Notes>  (402) 
This compound contains an acetal/aminal-like group ( X-CH(R)-Y where X, Y are N, S, or O) that may be acid/base labile, releasing an aldehyde.

>  <s_lp_Force_Field>  (402) 
OPLS3e

>  <r_lp_Energy>  (402) 
324.552

>  <b_lp_Chiralities_Consistent>  (402) 
1

>  <s_lp_Variant>  (402) 
106:0-1

>  <s_i_glide_gridfile>  (402) 
pfpi4k_grid

>  <i_i_glide_lignum>  (402) 
18

>  <i_i_glide_rotatable_bonds>  (402) 
2

>  <r_i_docking_score>  (402) 
-2.70796

>  <r_i_glide_ligand_efficiency>  (402) 
-0.100295

>  <r_i_glide_ligand_efficiency_sa>  (402) 
-0.300884

>  <r_i_glide_ligand_efficiency_ln>  (402) 
-0.630367

>  <r_i_glide_gscore>  (402) 
-2.70796

>  <r_i_glide_lipo>  (402) 
-0.314822

>  <r_i_glide_hbond>  (402) 
0

>  <r_i_glide_metal>  (402) 
-0

>  <r_i_glide_rewards>  (402) 
-1.30491

>  <r_i_glide_evdw>  (402) 
-19.1704

>  <r_i_glide_ecoul>  (402) 
-0.700406

>  <r_i_glide_erotb>  (402) 
0

>  <r_i_glide_esite>  (402) 
-0.0246391

>  <r_i_glide_emodel>  (402) 
-22.9149

>  <r_i_glide_energy>  (402) 
-19.8708

>  <r_i_glide_einternal>  (402) 
1.03385

>  <r_i_glide_intrahb_reward>  (402) 
-0

>  <i_i_glide_confnum>  (402) 
1

>  <i_i_glide_posenum>  (402) 
31

>  <r_i_glide_eff_state_penalty>  (402) 
0

>  <ligand_id>  (402) 
106

>  <original_smiles>  (402) 
CC1CC23OC(C)(C)OC(C1O)C21OC2(C)CC4(C)C(OC(O)C3C41C)O2

>  <smiles>  (402) 
[H]OC1([H])OC2([H])OC3(C([H])([H])[H])OC45C6([H])OC(C([H])([H])[H])(C([H])([H])[H])OC4(C([H])([H])C([H])(C([H])([H])[H])C6([H])O[H])C1([H])C5(C([H])([H])[H])C2(C([H])([H])[H])C3([H])[H]

$$$$
106:0:2
     RDKit          3D

 57 62  0  0  1  0  0  0  0  0999 V2000
    3.0850    1.1117    2.7414 C   0  0  0  0  0  0  0  0  0  0  0  0
    3.4700   -0.3796    2.7710 C   0  0  2  0  0  0  0  0  0  0  0  0
    4.9538   -0.5740    2.2708 C   0  0  0  0  0  0  0  0  0  0  0  0
    5.0625   -1.9991    1.7364 C   0  0  1  0  0  0  0  0  0  0  0  0
    4.8590   -2.6993    2.9902 O   0  0  0  0  0  0  0  0  0  0  0  0
    3.8835   -3.6949    3.1713 C   0  0  0  0  0  0  0  0  0  0  0  0
    4.5553   -5.0856    3.2879 C   0  0  0  0  0  0  0  0  0  0  0  0
    3.1585   -3.4434    4.5104 C   0  0  0  0  0  0  0  0  0  0  0  0
    2.9389   -3.7575    2.1570 O   0  0  0  0  0  0  0  0  0  0  0  0
    2.7312   -2.6087    1.3375 C   0  0  1  0  0  0  0  0  0  0  0  0
    2.3443   -1.2589    2.0536 C   0  0  1  0  0  0  0  0  0  0  0  0
    1.1938   -1.4165    2.8585 O   0  0  0  0  0  0  0  0  0  0  0  0
    3.9893   -2.1979    0.6264 C   0  0  1  0  0  0  0  0  0  0  0  0
    3.5881   -1.5637   -0.6774 O   0  0  0  0  0  0  0  0  0  0  0  0
    3.7909   -2.2277   -1.9980 C   0  0  2  0  0  0  0  0  0  0  0  0
    2.8469   -1.6183   -3.0251 C   0  0  0  0  0  0  0  0  0  0  0  0
    3.6259   -3.6548   -1.7183 C   0  0  0  0  0  0  0  0  0  0  0  0
    4.9646   -3.7783   -1.0087 C   0  0  1  0  0  0  0  0  0  0  0  0
    5.1252   -5.2572   -0.5644 C   0  0  0  0  0  0  0  0  0  0  0  0
    5.9059   -3.4171   -2.0413 C   0  0  2  0  0  0  0  0  0  0  0  0
    7.2242   -3.2082   -1.4045 O   0  0  0  0  0  0  0  0  0  0  0  0
    7.4365   -3.1715    0.0784 C   0  0  1  0  0  0  0  0  0  0  0  0
    8.4949   -2.2978    0.4256 O   0  0  0  0  0  0  0  0  0  0  0  0
    6.1364   -3.0016    1.0388 C   0  0  2  0  0  0  0  0  0  0  0  0
    5.2611   -2.5898   -0.0299 C   0  0  2  0  0  0  0  0  0  0  0  0
    5.9517   -1.1044   -0.5064 C   0  0  0  0  0  0  0  0  0  0  0  0
    5.1393   -2.2952   -2.5781 O   0  0  0  0  0  0  0  0  0  0  0  0
    3.0716    1.4997    1.7199 H   0  0  0  0  0  0  0  0  0  0  0  0
    3.7984    1.7103    3.3107 H   0  0  0  0  0  0  0  0  0  0  0  0
    2.0952    1.2852    3.1673 H   0  0  0  0  0  0  0  0  0  0  0  0
    3.4952   -0.6481    3.8245 H   0  0  0  0  0  0  0  0  0  0  0  0
    5.1301    0.1805    1.5059 H   0  0  0  0  0  0  0  0  0  0  0  0
    5.6793   -0.3766    3.0614 H   0  0  0  0  0  0  0  0  0  0  0  0
    4.8237   -5.5001    2.3203 H   0  0  0  0  0  0  0  0  0  0  0  0
    3.8604   -5.7946    3.7427 H   0  0  0  0  0  0  0  0  0  0  0  0
    5.4478   -5.0291    3.9142 H   0  0  0  0  0  0  0  0  0  0  0  0
    2.7205   -2.4556    4.5685 H   0  0  0  0  0  0  0  0  0  0  0  0
    3.8527   -3.5542    5.3452 H   0  0  0  0  0  0  0  0  0  0  0  0
    2.3562   -4.1747    4.6241 H   0  0  0  0  0  0  0  0  0  0  0  0
    1.9449   -2.8700    0.6295 H   0  0  0  0  0  0  0  0  0  0  0  0
    1.9984   -0.6291    1.2345 H   0  0  0  0  0  0  0  0  0  0  0  0
    1.4289   -1.9472    3.6019 H   0  0  0  0  0  0  0  0  0  0  0  0
    3.0828   -0.5579   -3.1492 H   0  0  0  0  0  0  0  0  0  0  0  0
    1.8254   -1.7452   -2.6707 H   0  0  0  0  0  0  0  0  0  0  0  0
    2.9444   -2.1291   -3.9808 H   0  0  0  0  0  0  0  0  0  0  0  0
    2.7317   -3.8699   -1.1401 H   0  0  0  0  0  0  0  0  0  0  0  0
    3.6085   -4.1970   -2.6672 H   0  0  0  0  0  0  0  0  0  0  0  0
    6.1070   -5.5125   -0.1662 H   0  0  0  0  0  0  0  0  0  0  0  0
    4.9811   -5.9164   -1.4194 H   0  0  0  0  0  0  0  0  0  0  0  0
    4.3657   -5.5332    0.1696 H   0  0  0  0  0  0  0  0  0  0  0  0
    5.9840   -4.1674   -2.8294 H   0  0  0  0  0  0  0  0  0  0  0  0
    7.8565   -4.1584    0.2820 H   0  0  0  0  0  0  0  0  0  0  0  0
    9.2185   -2.4425   -0.1689 H   0  0  0  0  0  0  0  0  0  0  0  0
    5.8979   -3.9818    1.4170 H   0  0  0  0  0  0  0  0  0  0  0  0
    6.5560   -1.0853   -1.3919 H   0  0  0  0  0  0  0  0  0  0  0  0
    6.6362   -0.7008    0.2338 H   0  0  0  0  0  0  0  0  0  0  0  0
    5.2865   -0.2620   -0.6773 H   0  0  0  0  0  0  0  0  0  0  0  0
  1  2  1  0
  1 28  1  0
  1 29  1  0
  1 30  1  0
  2 11  1  0
  2  3  1  0
  2 31  1  1
  3  4  1  0
  3 32  1  0
  3 33  1  0
  4 13  1  0
  4 24  1  0
  4  5  1  1
  5  6  1  0
  6  7  1  0
  6  8  1  0
  6  9  1  0
  7 34  1  0
  7 35  1  0
  7 36  1  0
  8 37  1  0
  8 38  1  0
  8 39  1  0
  9 10  1  0
 10 11  1  0
 10 13  1  0
 10 40  1  6
 11 12  1  0
 11 41  1  6
 12 42  1  0
 13 25  1  0
 13 14  1  6
 14 15  1  0
 15 27  1  0
 15 16  1  6
 15 17  1  0
 16 43  1  0
 16 44  1  0
 16 45  1  0
 17 18  1  0
 17 46  1  0
 17 47  1  0
 18 25  1  0
 18 19  1  1
 18 20  1  0
 19 48  1  0
 19 49  1  0
 19 50  1  0
 20 21  1  0
 20 27  1  0
 20 51  1  6
 21 22  1  0
 22 23  1  0
 22 24  1  0
 22 52  1  1
 23 53  1  0
 24 25  1  0
 24 54  1  1
 25 26  1  6
 26 55  1  0
 26 56  1  0
 26 57  1  0
M  END
>  <i_m_ct_stereo_status>  (403) 
1

>  <s_m_source_file>  (403) 
/var/tmp/pbs.5076255.sched01/tmp1cu33jom/138ve8n868x.sdf

>  <i_m_source_file_index>  (403) 
18

>  <i_lp_mmshare_version>  (403) 
48012

>  <i_f3d_flags>  (403) 
0

>  <s_epik_input>  (403) 
W0NIM11bQ0BIXShbQ0gyXTEpW0NASF0oW09IXSlbQ0BIXShPQyhPMikoW0NIM10pW0NIM10pW0NAQF0zKFtDQEBdMTI0KVtDQF01KFtDSDNdKVtDQF02KFtDSDNdKVtDQEhdKE9bQ0BASF0oW09IXSlbQ0BASF00NSlPW0NAQF0oTzMpKFtDSDNdKVtDSDJdNg==

>  <s_epik_cmdline>  (403) 
J2VwaWtfcHl0aG9uJywgJy1waHQnLCAnMi4wJywgJy1waCcsICc3LjAnLCAnLXRuJywgJzgnLCAnLW1hJywgJzIwMCcsICctaW1hZScsICc8aW5maWxlLm1hZT4nLCAnLW9tYWUnLCAnPG91dGZpbGUubWFlPic=

>  <r_lp_tautomer_probability>  (403) 
1

>  <r_epik_Ionization_Penalty>  (403) 
7.16598e-07

>  <r_epik_Ionization_Penalty_Charging>  (403) 
0

>  <r_epik_Ionization_Penalty_Neutral>  (403) 
7.16598e-07

>  <r_epik_State_Penalty>  (403) 
-0

>  <r_epik_Charging_Adjusted_Penalty>  (403) 
0

>  <i_epik_Tot_Q>  (403) 
0

>  <i_epik_Tot_abs_Q>  (403) 
0

>  <s_epik_Chemistry_Notes>  (403) 
This compound contains an acetal/aminal-like group ( X-CH(R)-Y where X, Y are N, S, or O) that may be acid/base labile, releasing an aldehyde.

>  <s_lp_Force_Field>  (403) 
OPLS3e

>  <r_lp_Energy>  (403) 
324.552

>  <b_lp_Chiralities_Consistent>  (403) 
1

>  <s_lp_Variant>  (403) 
106:0-1

>  <s_i_glide_gridfile>  (403) 
pfpi4k_grid

>  <i_i_glide_lignum>  (403) 
18

>  <i_i_glide_rotatable_bonds>  (403) 
2

>  <r_i_docking_score>  (403) 
-2.6811

>  <r_i_glide_ligand_efficiency>  (403) 
-0.0993001

>  <r_i_glide_ligand_efficiency_sa>  (403) 
-0.2979

>  <r_i_glide_ligand_efficiency_ln>  (403) 
-0.624116

>  <r_i_glide_gscore>  (403) 
-2.6811

>  <r_i_glide_lipo>  (403) 
-0.319893

>  <r_i_glide_hbond>  (403) 
0

>  <r_i_glide_metal>  (403) 
-0

>  <r_i_glide_rewards>  (403) 
-1.30611

>  <r_i_glide_evdw>  (403) 
-19.1664

>  <r_i_glide_ecoul>  (403) 
-0.473798

>  <r_i_glide_erotb>  (403) 
0

>  <r_i_glide_esite>  (403) 
-0.0257046

>  <r_i_glide_emodel>  (403) 
-22.8085

>  <r_i_glide_energy>  (403) 
-19.6402

>  <r_i_glide_einternal>  (403) 
0.755918

>  <r_i_glide_intrahb_reward>  (403) 
-0

>  <i_i_glide_confnum>  (403) 
1

>  <i_i_glide_posenum>  (403) 
1

>  <r_i_glide_eff_state_penalty>  (403) 
0

>  <ligand_id>  (403) 
106

>  <original_smiles>  (403) 
CC1CC23OC(C)(C)OC(C1O)C21OC2(C)CC4(C)C(OC(O)C3C41C)O2

>  <smiles>  (403) 
[H]OC1([H])OC2([H])OC3(C([H])([H])[H])OC45C6([H])OC(C([H])([H])[H])(C([H])([H])[H])OC4(C([H])([H])C([H])(C([H])([H])[H])C6([H])O[H])C1([H])C5(C([H])([H])[H])C2(C([H])([H])[H])C3([H])[H]

$$$$
107:0:0
     RDKit          3D

 47 51  0  0  1  0  0  0  0  0999 V2000
    2.5858   -8.5710    2.5564 C   0  0  0  0  0  0  0  0  0  0  0  0
    3.0831   -7.3938    1.7442 C   0  0  0  0  0  0  0  0  0  0  0  0
    4.2742   -7.2140    1.1393 C   0  0  0  0  0  0  0  0  0  0  0  0
    4.2883   -5.9716    0.2732 C   0  0  1  0  0  0  0  0  0  0  0  0
    3.0602   -5.2346    0.7750 C   0  0  0  0  0  0  0  0  0  0  0  0
    2.8733   -3.9006    0.9550 C   0  0  0  0  0  0  0  0  0  0  0  0
    3.8767   -2.7225    0.8362 C   0  0  2  0  0  0  0  0  0  0  0  0
    3.1445   -1.4947    1.4366 C   0  0  0  0  0  0  0  0  0  0  0  0
    4.2367   -2.3315   -0.6293 C   0  0  0  0  0  0  0  0  0  0  0  0
    5.3986   -3.0588   -1.3523 C   0  0  1  0  0  0  0  0  0  0  0  0
    5.2183   -2.8968   -2.8761 C   0  0  0  0  0  0  0  0  0  0  0  0
    6.8418   -2.6272   -0.9752 C   0  0  0  0  0  0  0  0  0  0  0  0
    7.6980   -3.7303   -0.3091 C   0  0  1  0  0  0  0  0  0  0  0  0
    8.7665   -3.1986    0.4516 O   0  0  0  0  0  0  0  0  0  0  0  0
    6.8853   -4.7614    0.4796 C   0  0  1  0  0  0  0  0  0  0  0  0
    5.8325   -4.3368    1.4794 C   0  0  1  0  0  0  0  0  0  0  0  0
    5.9060   -5.1462    2.7761 C   0  0  0  0  0  0  0  0  0  0  0  0
    5.1094   -3.0085    1.7444 C   0  0  1  0  0  0  0  0  0  0  0  0
    6.0025   -1.9266    1.8540 O   0  0  0  0  0  0  0  0  0  0  0  0
    5.4292   -4.9950    0.1423 C   0  0  2  0  0  0  0  0  0  0  0  0
    5.2484   -4.4290   -1.1491 O   0  0  0  0  0  0  0  0  0  0  0  0
    2.2317   -6.2193    1.4835 C   0  0  0  0  0  0  0  0  0  0  0  0
    1.0549   -6.0709    1.8264 O   0  0  0  0  0  0  0  0  0  0  0  0
    2.1412   -8.2279    3.4869 H   0  0  0  0  0  0  0  0  0  0  0  0
    3.3787   -9.2766    2.7908 H   0  0  0  0  0  0  0  0  0  0  0  0
    1.8201   -9.1024    1.9990 H   0  0  0  0  0  0  0  0  0  0  0  0
    5.0708   -7.9372    1.1294 H   0  0  0  0  0  0  0  0  0  0  0  0
    4.0834   -6.3585   -0.7150 H   0  0  0  0  0  0  0  0  0  0  0  0
    1.9727   -3.6127    1.4751 H   0  0  0  0  0  0  0  0  0  0  0  0
    3.7554   -0.5908    1.4208 H   0  0  0  0  0  0  0  0  0  0  0  0
    2.8417   -1.6682    2.4697 H   0  0  0  0  0  0  0  0  0  0  0  0
    2.2352   -1.2685    0.8801 H   0  0  0  0  0  0  0  0  0  0  0  0
    3.3261   -2.4356   -1.2218 H   0  0  0  0  0  0  0  0  0  0  0  0
    4.4662   -1.2659   -0.6820 H   0  0  0  0  0  0  0  0  0  0  0  0
    5.2824   -1.8438   -3.1560 H   0  0  0  0  0  0  0  0  0  0  0  0
    4.2523   -3.2693   -3.2232 H   0  0  0  0  0  0  0  0  0  0  0  0
    5.9949   -3.4342   -3.4273 H   0  0  0  0  0  0  0  0  0  0  0  0
    7.3808   -2.3112   -1.8685 H   0  0  0  0  0  0  0  0  0  0  0  0
    6.8113   -1.7233   -0.3744 H   0  0  0  0  0  0  0  0  0  0  0  0
    8.2006   -4.2559   -1.1211 H   0  0  0  0  0  0  0  0  0  0  0  0
    9.2531   -2.5845   -0.0804 H   0  0  0  0  0  0  0  0  0  0  0  0
    7.4567   -5.6607    0.6971 H   0  0  0  0  0  0  0  0  0  0  0  0
    4.9149   -5.2995    3.2015 H   0  0  0  0  0  0  0  0  0  0  0  0
    6.5341   -4.6570    3.5128 H   0  0  0  0  0  0  0  0  0  0  0  0
    6.3555   -6.1193    2.5913 H   0  0  0  0  0  0  0  0  0  0  0  0
    4.7065   -3.0865    2.7570 H   0  0  0  0  0  0  0  0  0  0  0  0
    5.5153   -1.1683    2.1310 H   0  0  0  0  0  0  0  0  0  0  0  0
  1  2  1  0
  1 24  1  0
  1 25  1  0
  1 26  1  0
  2 22  1  0
  2  3  2  0
  3  4  1  0
  3 27  1  0
  4 20  1  0
  4  5  1  0
  4 28  1  6
  5  6  2  0
  5 22  1  0
  6  7  1  0
  6 29  1  0
  7 18  1  0
  7  8  1  1
  7  9  1  0
  8 30  1  0
  8 31  1  0
  8 32  1  0
  9 10  1  0
  9 33  1  0
  9 34  1  0
 10 21  1  0
 10 11  1  6
 10 12  1  0
 11 35  1  0
 11 36  1  0
 11 37  1  0
 12 13  1  0
 12 38  1  0
 12 39  1  0
 13 14  1  0
 13 15  1  0
 13 40  1  6
 14 41  1  0
 15 20  1  0
 15 16  1  0
 15 42  1  1
 16 17  1  1
 16 18  1  0
 16 20  1  0
 17 43  1  0
 17 44  1  0
 17 45  1  0
 18 19  1  0
 18 46  1  1
 19 47  1  0
 20 21  1  6
 22 23  2  0
M  END
>  <i_m_ct_stereo_status>  (404) 
1

>  <s_m_source_file>  (404) 
/var/tmp/pbs.5076255.sched01/tmp1cu33jom/138ve8n868x.sdf

>  <i_m_source_file_index>  (404) 
19

>  <i_lp_mmshare_version>  (404) 
48012

>  <i_f3d_flags>  (404) 
0

>  <s_epik_input>  (404) 
W0NIM11DKD1bQ0hdMSlDKD1PKUMoW0NASF0xW0NAXTIzNCk9W0NIXVtDQF01KFtDSDNdKVtDSDJdW0NAQF0oTzQpKFtDSDNdKVtDSDJdW0NAQEhdKFtPSF0pW0NASF0yW0NAQF0zKFtDSDNdKVtDQEhdNVtPSF0=

>  <s_epik_cmdline>  (404) 
J2VwaWtfcHl0aG9uJywgJy1waHQnLCAnMi4wJywgJy1waCcsICc3LjAnLCAnLXRuJywgJzgnLCAnLW1hJywgJzIwMCcsICctaW1hZScsICc8aW5maWxlLm1hZT4nLCAnLW9tYWUnLCAnPG91dGZpbGUubWFlPic=

>  <r_lp_tautomer_probability>  (404) 
0.9515

>  <r_epik_Ionization_Penalty>  (404) 
1.00934e-07

>  <r_epik_Ionization_Penalty_Charging>  (404) 
0

>  <r_epik_Ionization_Penalty_Neutral>  (404) 
1.00934e-07

>  <r_epik_State_Penalty>  (404) 
0.0242319

>  <r_epik_Charging_Adjusted_Penalty>  (404) 
0.0242319

>  <i_epik_Tot_Q>  (404) 
0

>  <i_epik_Tot_abs_Q>  (404) 
0

>  <s_lp_Force_Field>  (404) 
OPLS3e

>  <r_lp_Energy>  (404) 
67.6123

>  <b_lp_Chiralities_Consistent>  (404) 
1

>  <s_lp_Variant>  (404) 
107:0-1

>  <s_i_glide_gridfile>  (404) 
pfpi4k_grid

>  <i_i_glide_lignum>  (404) 
19

>  <i_i_glide_rotatable_bonds>  (404) 
2

>  <r_i_docking_score>  (404) 
-3.89827

>  <r_i_glide_ligand_efficiency>  (404) 
-0.16949

>  <r_i_glide_ligand_efficiency_sa>  (404) 
-0.482007

>  <r_i_glide_ligand_efficiency_ln>  (404) 
-0.942636

>  <r_i_glide_gscore>  (404) 
-3.89827

>  <r_i_glide_lipo>  (404) 
-0.908193

>  <r_i_glide_hbond>  (404) 
-0.107312

>  <r_i_glide_metal>  (404) 
-0

>  <r_i_glide_rewards>  (404) 
-1.25188

>  <r_i_glide_evdw>  (404) 
-25.7011

>  <r_i_glide_ecoul>  (404) 
-2.16621

>  <r_i_glide_erotb>  (404) 
0

>  <r_i_glide_esite>  (404) 
-0.020901

>  <r_i_glide_emodel>  (404) 
-34.3343

>  <r_i_glide_energy>  (404) 
-27.8673

>  <r_i_glide_einternal>  (404) 
0.666818

>  <r_i_glide_intrahb_reward>  (404) 
-0

>  <i_i_glide_confnum>  (404) 
1

>  <i_i_glide_posenum>  (404) 
39

>  <r_i_glide_eff_state_penalty>  (404) 
0

>  <ligand_id>  (404) 
107

>  <original_smiles>  (404) 
CC1=CC2C(=CC3(C)CC4(C)CC(O)C5C(C)(C3O)C25O4)C1=O

>  <smiles>  (404) 
[H]OC1([H])C([H])([H])C2(C([H])([H])[H])OC34C5([H])C([H])=C(C([H])([H])[H])C(=O)C5=C([H])C(C([H])([H])[H])(C2([H])[H])C([H])(O[H])C3(C([H])([H])[H])C14[H]

$$$$
107:0:1
     RDKit          3D

 47 51  0  0  1  0  0  0  0  0999 V2000
    2.7844   -8.7058    2.5234 C   0  0  0  0  0  0  0  0  0  0  0  0
    3.2226   -7.4914    1.7271 C   0  0  0  0  0  0  0  0  0  0  0  0
    4.3929   -7.2567    1.1096 C   0  0  0  0  0  0  0  0  0  0  0  0
    4.3433   -5.9977    0.2699 C   0  0  1  0  0  0  0  0  0  0  0  0
    3.0987   -5.3205    0.8048 C   0  0  0  0  0  0  0  0  0  0  0  0
    2.8617   -3.9936    1.0091 C   0  0  0  0  0  0  0  0  0  0  0  0
    3.8170   -2.7811    0.8954 C   0  0  2  0  0  0  0  0  0  0  0  0
    3.0544   -1.5938    1.5325 C   0  0  0  0  0  0  0  0  0  0  0  0
    4.1375   -2.3491   -0.5690 C   0  0  0  0  0  0  0  0  0  0  0  0
    5.3120   -3.0166   -1.3271 C   0  0  1  0  0  0  0  0  0  0  0  0
    5.0966   -2.8222   -2.8443 C   0  0  0  0  0  0  0  0  0  0  0  0
    6.7430   -2.5384   -0.9587 C   0  0  0  0  0  0  0  0  0  0  0  0
    7.6500   -3.6161   -0.3188 C   0  0  1  0  0  0  0  0  0  0  0  0
    8.6842   -3.0438    0.4617 O   0  0  0  0  0  0  0  0  0  0  0  0
    6.8928   -4.6900    0.4602 C   0  0  1  0  0  0  0  0  0  0  0  0
    5.8428   -4.3279    1.4740 C   0  0  1  0  0  0  0  0  0  0  0  0
    5.9758   -5.1609    2.7505 C   0  0  0  0  0  0  0  0  0  0  0  0
    5.0736   -3.0340    1.7790 C   0  0  1  0  0  0  0  0  0  0  0  0
    5.9187   -1.9132    1.9032 O   0  0  0  0  0  0  0  0  0  0  0  0
    5.4478   -4.9815    0.1298 C   0  0  2  0  0  0  0  0  0  0  0  0
    5.2234   -4.3966   -1.1509 O   0  0  0  0  0  0  0  0  0  0  0  0
    2.3220   -6.3463    1.5058 C   0  0  0  0  0  0  0  0  0  0  0  0
    1.1438   -6.2498    1.8697 O   0  0  0  0  0  0  0  0  0  0  0  0
    2.3446   -8.3965    3.4681 H   0  0  0  0  0  0  0  0  0  0  0  0
    3.6097   -9.3836    2.7298 H   0  0  0  0  0  0  0  0  0  0  0  0
    2.0292   -9.2558    1.9684 H   0  0  0  0  0  0  0  0  0  0  0  0
    5.2179   -7.9474    1.0673 H   0  0  0  0  0  0  0  0  0  0  0  0
    4.1312   -6.3809   -0.7230 H   0  0  0  0  0  0  0  0  0  0  0  0
    1.9600   -3.7530    1.5494 H   0  0  0  0  0  0  0  0  0  0  0  0
    3.6398   -0.6733    1.5288 H   0  0  0  0  0  0  0  0  0  0  0  0
    2.7758   -1.7977    2.5676 H   0  0  0  0  0  0  0  0  0  0  0  0
    2.1372   -1.3870    0.9837 H   0  0  0  0  0  0  0  0  0  0  0  0
    3.2191   -2.4738   -1.1468 H   0  0  0  0  0  0  0  0  0  0  0  0
    4.3241   -1.2742   -0.6016 H   0  0  0  0  0  0  0  0  0  0  0  0
    5.1104   -1.7625   -3.1092 H   0  0  0  0  0  0  0  0  0  0  0  0
    4.1406   -3.2285   -3.1822 H   0  0  0  0  0  0  0  0  0  0  0  0
    5.8800   -3.3193   -3.4211 H   0  0  0  0  0  0  0  0  0  0  0  0
    7.2567   -2.2055   -1.8598 H   0  0  0  0  0  0  0  0  0  0  0  0
    6.6847   -1.6408   -0.3496 H   0  0  0  0  0  0  0  0  0  0  0  0
    8.1703   -4.1271   -1.1225 H   0  0  0  0  0  0  0  0  0  0  0  0
    9.2183   -2.4825   -0.0846 H   0  0  0  0  0  0  0  0  0  0  0  0
    7.5031   -5.5753    0.6352 H   0  0  0  0  0  0  0  0  0  0  0  0
    5.0005   -5.3597    3.1897 H   0  0  0  0  0  0  0  0  0  0  0  0
    6.5972   -4.6551    3.4847 H   0  0  0  0  0  0  0  0  0  0  0  0
    6.4601   -6.1116    2.5397 H   0  0  0  0  0  0  0  0  0  0  0  0
    4.6890   -3.1565    2.7935 H   0  0  0  0  0  0  0  0  0  0  0  0
    6.6212   -2.1339    2.4957 H   0  0  0  0  0  0  0  0  0  0  0  0
  1  2  1  0
  1 24  1  0
  1 25  1  0
  1 26  1  0
  2 22  1  0
  2  3  2  0
  3  4  1  0
  3 27  1  0
  4 20  1  0
  4  5  1  0
  4 28  1  6
  5  6  2  0
  5 22  1  0
  6  7  1  0
  6 29  1  0
  7 18  1  0
  7  8  1  1
  7  9  1  0
  8 30  1  0
  8 31  1  0
  8 32  1  0
  9 10  1  0
  9 33  1  0
  9 34  1  0
 10 21  1  0
 10 11  1  6
 10 12  1  0
 11 35  1  0
 11 36  1  0
 11 37  1  0
 12 13  1  0
 12 38  1  0
 12 39  1  0
 13 14  1  0
 13 15  1  0
 13 40  1  6
 14 41  1  0
 15 20  1  0
 15 16  1  0
 15 42  1  1
 16 17  1  1
 16 18  1  0
 16 20  1  0
 17 43  1  0
 17 44  1  0
 17 45  1  0
 18 19  1  0
 18 46  1  1
 19 47  1  0
 20 21  1  6
 22 23  2  0
M  END
>  <i_m_ct_stereo_status>  (405) 
1

>  <s_m_source_file>  (405) 
/var/tmp/pbs.5076255.sched01/tmp1cu33jom/138ve8n868x.sdf

>  <i_m_source_file_index>  (405) 
19

>  <i_lp_mmshare_version>  (405) 
48012

>  <i_f3d_flags>  (405) 
0

>  <s_epik_input>  (405) 
W0NIM11DKD1bQ0hdMSlDKD1PKUMoW0NASF0xW0NAXTIzNCk9W0NIXVtDQF01KFtDSDNdKVtDSDJdW0NAQF0oTzQpKFtDSDNdKVtDSDJdW0NAQEhdKFtPSF0pW0NASF0yW0NAQF0zKFtDSDNdKVtDQEhdNVtPSF0=

>  <s_epik_cmdline>  (405) 
J2VwaWtfcHl0aG9uJywgJy1waHQnLCAnMi4wJywgJy1waCcsICc3LjAnLCAnLXRuJywgJzgnLCAnLW1hJywgJzIwMCcsICctaW1hZScsICc8aW5maWxlLm1hZT4nLCAnLW9tYWUnLCAnPG91dGZpbGUubWFlPic=

>  <r_lp_tautomer_probability>  (405) 
0.9515

>  <r_epik_Ionization_Penalty>  (405) 
1.00934e-07

>  <r_epik_Ionization_Penalty_Charging>  (405) 
0

>  <r_epik_Ionization_Penalty_Neutral>  (405) 
1.00934e-07

>  <r_epik_State_Penalty>  (405) 
0.0242319

>  <r_epik_Charging_Adjusted_Penalty>  (405) 
0.0242319

>  <i_epik_Tot_Q>  (405) 
0

>  <i_epik_Tot_abs_Q>  (405) 
0

>  <s_lp_Force_Field>  (405) 
OPLS3e

>  <r_lp_Energy>  (405) 
67.6123

>  <b_lp_Chiralities_Consistent>  (405) 
1

>  <s_lp_Variant>  (405) 
107:0-1

>  <s_i_glide_gridfile>  (405) 
pfpi4k_grid

>  <i_i_glide_lignum>  (405) 
19

>  <i_i_glide_rotatable_bonds>  (405) 
2

>  <r_i_docking_score>  (405) 
-3.70157

>  <r_i_glide_ligand_efficiency>  (405) 
-0.160938

>  <r_i_glide_ligand_efficiency_sa>  (405) 
-0.457686

>  <r_i_glide_ligand_efficiency_ln>  (405) 
-0.895074

>  <r_i_glide_gscore>  (405) 
-3.70157

>  <r_i_glide_lipo>  (405) 
-0.912964

>  <r_i_glide_hbond>  (405) 
-0.0433926

>  <r_i_glide_metal>  (405) 
-0

>  <r_i_glide_rewards>  (405) 
-1.25188

>  <r_i_glide_evdw>  (405) 
-26.1313

>  <r_i_glide_ecoul>  (405) 
-1.14282

>  <r_i_glide_erotb>  (405) 
0

>  <r_i_glide_esite>  (405) 
-0.0153532

>  <r_i_glide_emodel>  (405) 
-33.3665

>  <r_i_glide_energy>  (405) 
-27.2741

>  <r_i_glide_einternal>  (405) 
0.686669

>  <r_i_glide_intrahb_reward>  (405) 
-0

>  <i_i_glide_confnum>  (405) 
1

>  <i_i_glide_posenum>  (405) 
1

>  <r_i_glide_eff_state_penalty>  (405) 
0

>  <ligand_id>  (405) 
107

>  <original_smiles>  (405) 
CC1=CC2C(=CC3(C)CC4(C)CC(O)C5C(C)(C3O)C25O4)C1=O

>  <smiles>  (405) 
[H]OC1([H])C([H])([H])C2(C([H])([H])[H])OC34C5([H])C([H])=C(C([H])([H])[H])C(=O)C5=C([H])C(C([H])([H])[H])(C2([H])[H])C([H])(O[H])C3(C([H])([H])[H])C14[H]

$$$$
107:0:2
     RDKit          3D

 47 51  0  0  1  0  0  0  0  0999 V2000
    2.3161   -7.2508    3.3797 C   0  0  0  0  0  0  0  0  0  0  0  0
    2.6428   -6.0929    2.4555 C   0  0  0  0  0  0  0  0  0  0  0  0
    3.3458   -6.0728    1.3106 C   0  0  0  0  0  0  0  0  0  0  0  0
    3.2473   -4.7337    0.6054 C   0  0  1  0  0  0  0  0  0  0  0  0
    2.7190   -3.8465    1.7188 C   0  0  0  0  0  0  0  0  0  0  0  0
    3.0193   -2.5534    2.0120 C   0  0  0  0  0  0  0  0  0  0  0  0
    4.1075   -1.6179    1.4124 C   0  0  2  0  0  0  0  0  0  0  0  0
    4.1414   -0.3800    2.3442 C   0  0  0  0  0  0  0  0  0  0  0  0
    3.7826   -1.0708   -0.0099 C   0  0  0  0  0  0  0  0  0  0  0  0
    4.1482   -1.8970   -1.2709 C   0  0  1  0  0  0  0  0  0  0  0  0
    3.3085   -1.4343   -2.4848 C   0  0  0  0  0  0  0  0  0  0  0  0
    5.6316   -1.8655   -1.6916 C   0  0  0  0  0  0  0  0  0  0  0  0
    6.3555   -3.2231   -1.6159 C   0  0  1  0  0  0  0  0  0  0  0  0
    7.7517   -3.0230   -1.4653 O   0  0  0  0  0  0  0  0  0  0  0  0
    5.8059   -4.1635   -0.5468 C   0  0  1  0  0  0  0  0  0  0  0  0
    5.5723   -3.7011    0.8656 C   0  0  1  0  0  0  0  0  0  0  0  0
    6.0935   -4.7109    1.8861 C   0  0  0  0  0  0  0  0  0  0  0  0
    5.4985   -2.3120    1.5131 C   0  0  1  0  0  0  0  0  0  0  0  0
    6.5965   -1.4952    1.1637 O   0  0  0  0  0  0  0  0  0  0  0  0
    4.3796   -4.0190   -0.0779 C   0  0  2  0  0  0  0  0  0  0  0  0
    3.7506   -3.2239   -1.0759 O   0  0  0  0  0  0  0  0  0  0  0  0
    2.1461   -4.7386    2.7363 C   0  0  0  0  0  0  0  0  0  0  0  0
    1.4089   -4.4127    3.6684 O   0  0  0  0  0  0  0  0  0  0  0  0
    2.5105   -6.9747    4.4143 H   0  0  0  0  0  0  0  0  0  0  0  0
    2.8906   -8.1402    3.1400 H   0  0  0  0  0  0  0  0  0  0  0  0
    1.2601   -7.4994    3.3004 H   0  0  0  0  0  0  0  0  0  0  0  0
    3.8085   -6.9372    0.8565 H   0  0  0  0  0  0  0  0  0  0  0  0
    2.4538   -4.8734   -0.1340 H   0  0  0  0  0  0  0  0  0  0  0  0
    2.6054   -2.1668    2.9336 H   0  0  0  0  0  0  0  0  0  0  0  0
    4.8887    0.3457    2.0255 H   0  0  0  0  0  0  0  0  0  0  0  0
    4.3694   -0.6507    3.3755 H   0  0  0  0  0  0  0  0  0  0  0  0
    3.1807    0.1376    2.3475 H   0  0  0  0  0  0  0  0  0  0  0  0
    2.7149   -0.8616   -0.0135 H   0  0  0  0  0  0  0  0  0  0  0  0
    4.2462   -0.0909   -0.1420 H   0  0  0  0  0  0  0  0  0  0  0  0
    3.5106   -0.3883   -2.7291 H   0  0  0  0  0  0  0  0  0  0  0  0
    2.2371   -1.5296   -2.3170 H   0  0  0  0  0  0  0  0  0  0  0  0
    3.5247   -2.0317   -3.3724 H   0  0  0  0  0  0  0  0  0  0  0  0
    5.7062   -1.5324   -2.7125 H   0  0  0  0  0  0  0  0  0  0  0  0
    6.1560   -1.0889   -1.1423 H   0  0  0  0  0  0  0  0  0  0  0  0
    6.2057   -3.7314   -2.5693 H   0  0  0  0  0  0  0  0  0  0  0  0
    8.1897   -3.0551   -2.3073 H   0  0  0  0  0  0  0  0  0  0  0  0
    6.1216   -5.1923   -0.6840 H   0  0  0  0  0  0  0  0  0  0  0  0
    5.4691   -4.7204    2.7780 H   0  0  0  0  0  0  0  0  0  0  0  0
    7.1196   -4.4761    2.1605 H   0  0  0  0  0  0  0  0  0  0  0  0
    6.0961   -5.7203    1.4764 H   0  0  0  0  0  0  0  0  0  0  0  0
    5.6584   -2.4730    2.5805 H   0  0  0  0  0  0  0  0  0  0  0  0
    6.5770   -0.7135    1.6941 H   0  0  0  0  0  0  0  0  0  0  0  0
  1  2  1  0
  1 24  1  0
  1 25  1  0
  1 26  1  0
  2 22  1  0
  2  3  2  0
  3  4  1  0
  3 27  1  0
  4 20  1  0
  4  5  1  0
  4 28  1  6
  5  6  2  0
  5 22  1  0
  6  7  1  0
  6 29  1  0
  7 18  1  0
  7  8  1  1
  7  9  1  0
  8 30  1  0
  8 31  1  0
  8 32  1  0
  9 10  1  0
  9 33  1  0
  9 34  1  0
 10 21  1  0
 10 11  1  6
 10 12  1  0
 11 35  1  0
 11 36  1  0
 11 37  1  0
 12 13  1  0
 12 38  1  0
 12 39  1  0
 13 14  1  0
 13 15  1  0
 13 40  1  6
 14 41  1  0
 15 20  1  0
 15 16  1  0
 15 42  1  1
 16 17  1  1
 16 18  1  0
 16 20  1  0
 17 43  1  0
 17 44  1  0
 17 45  1  0
 18 19  1  0
 18 46  1  1
 19 47  1  0
 20 21  1  6
 22 23  2  0
M  END
>  <i_m_ct_stereo_status>  (406) 
1

>  <s_m_source_file>  (406) 
/var/tmp/pbs.5076255.sched01/tmp1cu33jom/138ve8n868x.sdf

>  <i_m_source_file_index>  (406) 
19

>  <i_lp_mmshare_version>  (406) 
48012

>  <i_f3d_flags>  (406) 
0

>  <s_epik_input>  (406) 
W0NIM11DKD1bQ0hdMSlDKD1PKUMoW0NASF0xW0NAXTIzNCk9W0NIXVtDQF01KFtDSDNdKVtDSDJdW0NAQF0oTzQpKFtDSDNdKVtDSDJdW0NAQEhdKFtPSF0pW0NASF0yW0NAQF0zKFtDSDNdKVtDQEhdNVtPSF0=

>  <s_epik_cmdline>  (406) 
J2VwaWtfcHl0aG9uJywgJy1waHQnLCAnMi4wJywgJy1waCcsICc3LjAnLCAnLXRuJywgJzgnLCAnLW1hJywgJzIwMCcsICctaW1hZScsICc8aW5maWxlLm1hZT4nLCAnLW9tYWUnLCAnPG91dGZpbGUubWFlPic=

>  <r_lp_tautomer_probability>  (406) 
0.9515

>  <r_epik_Ionization_Penalty>  (406) 
1.00934e-07

>  <r_epik_Ionization_Penalty_Charging>  (406) 
0

>  <r_epik_Ionization_Penalty_Neutral>  (406) 
1.00934e-07

>  <r_epik_State_Penalty>  (406) 
0.0242319

>  <r_epik_Charging_Adjusted_Penalty>  (406) 
0.0242319

>  <i_epik_Tot_Q>  (406) 
0

>  <i_epik_Tot_abs_Q>  (406) 
0

>  <s_lp_Force_Field>  (406) 
OPLS3e

>  <r_lp_Energy>  (406) 
67.6123

>  <b_lp_Chiralities_Consistent>  (406) 
1

>  <s_lp_Variant>  (406) 
107:0-1

>  <s_i_glide_gridfile>  (406) 
pfpi4k_grid

>  <i_i_glide_lignum>  (406) 
19

>  <i_i_glide_rotatable_bonds>  (406) 
2

>  <r_i_docking_score>  (406) 
-3.24529

>  <r_i_glide_ligand_efficiency>  (406) 
-0.1411

>  <r_i_glide_ligand_efficiency_sa>  (406) 
-0.401269

>  <r_i_glide_ligand_efficiency_ln>  (406) 
-0.784741

>  <r_i_glide_gscore>  (406) 
-3.24529

>  <r_i_glide_lipo>  (406) 
-0.446915

>  <r_i_glide_hbond>  (406) 
0

>  <r_i_glide_metal>  (406) 
-0

>  <r_i_glide_rewards>  (406) 
-1.25188

>  <r_i_glide_evdw>  (406) 
-23.5964

>  <r_i_glide_ecoul>  (406) 
-2.38941

>  <r_i_glide_erotb>  (406) 
0

>  <r_i_glide_esite>  (406) 
-0.00827114

>  <r_i_glide_emodel>  (406) 
-30.4513

>  <r_i_glide_energy>  (406) 
-25.9858

>  <r_i_glide_einternal>  (406) 
1.38158

>  <r_i_glide_intrahb_reward>  (406) 
-0

>  <i_i_glide_confnum>  (406) 
2

>  <i_i_glide_posenum>  (406) 
26

>  <r_i_glide_eff_state_penalty>  (406) 
0

>  <ligand_id>  (406) 
107

>  <original_smiles>  (406) 
CC1=CC2C(=CC3(C)CC4(C)CC(O)C5C(C)(C3O)C25O4)C1=O

>  <smiles>  (406) 
[H]OC1([H])C([H])([H])C2(C([H])([H])[H])OC34C5([H])C([H])=C(C([H])([H])[H])C(=O)C5=C([H])C(C([H])([H])[H])(C2([H])[H])C([H])(O[H])C3(C([H])([H])[H])C14[H]

$$$$
107:1:0
     RDKit          3D

 47 51  0  0  1  0  0  0  0  0999 V2000
    2.5134   -3.2185   -3.8862 C   0  0  0  0  0  0  0  0  0  0  0  0
    2.9872   -2.6640   -2.5454 C   0  0  1  0  0  0  0  0  0  0  0  0
    2.3614   -3.3671   -1.3507 C   0  0  0  0  0  0  0  0  0  0  0  0
    3.2557   -3.8689   -0.4976 C   0  0  0  0  0  0  0  0  0  0  0  0
    4.5873   -3.6524   -0.9959 C   0  0  0  0  0  0  0  0  0  0  0  0
    5.7523   -4.0087   -0.4019 C   0  0  0  0  0  0  0  0  0  0  0  0
    5.9785   -4.6032    1.0094 C   0  0  2  0  0  0  0  0  0  0  0  0
    7.4869   -4.3979    1.2758 C   0  0  0  0  0  0  0  0  0  0  0  0
    5.7399   -6.1399    1.0435 C   0  0  0  0  0  0  0  0  0  0  0  0
    4.3152   -6.7082    1.2796 C   0  0  1  0  0  0  0  0  0  0  0  0
    4.2440   -8.1486    0.7403 C   0  0  0  0  0  0  0  0  0  0  0  0
    3.8434   -6.7265    2.7498 C   0  0  0  0  0  0  0  0  0  0  0  0
    2.6231   -5.8259    3.0292 C   0  0  1  0  0  0  0  0  0  0  0  0
    2.6256   -5.4275    4.3811 O   0  0  0  0  0  0  0  0  0  0  0  0
    2.5069   -4.6032    2.1336 C   0  0  1  0  0  0  0  0  0  0  0  0
    3.6658   -3.7034    1.8477 C   0  0  1  0  0  0  0  0  0  0  0  0
    3.2749   -2.2223    1.9019 C   0  0  0  0  0  0  0  0  0  0  0  0
    5.1687   -3.8201    2.0887 C   0  0  1  0  0  0  0  0  0  0  0  0
    5.4098   -4.2160    3.4149 O   0  0  0  0  0  0  0  0  0  0  0  0
    3.1063   -4.6460    0.7410 C   0  0  2  0  0  0  0  0  0  0  0  0
    3.3815   -6.0208    0.4792 O   0  0  0  0  0  0  0  0  0  0  0  0
    4.4654   -2.9660   -2.2819 C   0  0  0  0  0  0  0  0  0  0  0  0
    5.3709   -2.6570   -3.0542 O   0  0  0  0  0  0  0  0  0  0  0  0
    2.7080   -4.2835   -3.9486 H   0  0  0  0  0  0  0  0  0  0  0  0
    3.0251   -2.7509   -4.7232 H   0  0  0  0  0  0  0  0  0  0  0  0
    1.4430   -3.0635   -4.0230 H   0  0  0  0  0  0  0  0  0  0  0  0
    1.2947   -3.4239   -1.2311 H   0  0  0  0  0  0  0  0  0  0  0  0
    2.7957   -1.5902   -2.4880 H   0  0  0  0  0  0  0  0  0  0  0  0
    6.6597   -3.7815   -0.9434 H   0  0  0  0  0  0  0  0  0  0  0  0
    7.7898   -4.7998    2.2486 H   0  0  0  0  0  0  0  0  0  0  0  0
    7.7562   -3.3405    1.2581 H   0  0  0  0  0  0  0  0  0  0  0  0
    8.1040   -4.9009    0.5336 H   0  0  0  0  0  0  0  0  0  0  0  0
    6.1044   -6.5202    0.0912 H   0  0  0  0  0  0  0  0  0  0  0  0
    6.3872   -6.6043    1.7922 H   0  0  0  0  0  0  0  0  0  0  0  0
    4.9417   -8.8147    1.2504 H   0  0  0  0  0  0  0  0  0  0  0  0
    4.4732   -8.1797   -0.3265 H   0  0  0  0  0  0  0  0  0  0  0  0
    3.2392   -8.5573    0.8787 H   0  0  0  0  0  0  0  0  0  0  0  0
    3.5704   -7.7390    3.0513 H   0  0  0  0  0  0  0  0  0  0  0  0
    4.6818   -6.5029    3.4077 H   0  0  0  0  0  0  0  0  0  0  0  0
    1.7240   -6.4212    2.8607 H   0  0  0  0  0  0  0  0  0  0  0  0
    3.4366   -4.9601    4.5419 H   0  0  0  0  0  0  0  0  0  0  0  0
    1.5331   -4.1318    2.2077 H   0  0  0  0  0  0  0  0  0  0  0  0
    3.8773   -1.6331    1.2127 H   0  0  0  0  0  0  0  0  0  0  0  0
    3.3978   -1.8296    2.9113 H   0  0  0  0  0  0  0  0  0  0  0  0
    2.2336   -2.0882    1.6085 H   0  0  0  0  0  0  0  0  0  0  0  0
    5.5740   -2.8075    2.0526 H   0  0  0  0  0  0  0  0  0  0  0  0
    6.3481   -4.2927    3.5155 H   0  0  0  0  0  0  0  0  0  0  0  0
  1 24  1  0
  1 25  1  0
  1 26  1  0
  1  2  1  0
  2 22  1  0
  2 28  1  6
  2  3  1  0
  3  4  2  0
  3 27  1  0
 20  4  1  6
  4  5  1  0
  5  6  2  0
  5 22  1  0
  6  7  1  0
  6 29  1  0
  7 18  1  0
  7  8  1  1
  7  9  1  0
  8 30  1  0
  8 31  1  0
  8 32  1  0
  9 10  1  0
  9 33  1  0
  9 34  1  0
 10 21  1  0
 10 11  1  6
 10 12  1  0
 11 35  1  0
 11 36  1  0
 11 37  1  0
 12 13  1  0
 12 38  1  0
 12 39  1  0
 13 14  1  0
 13 15  1  0
 13 40  1  1
 14 41  1  0
 15 20  1  0
 15 16  1  0
 15 42  1  6
 16 17  1  6
 16 18  1  0
 16 20  1  0
 17 43  1  0
 17 44  1  0
 17 45  1  0
 18 19  1  0
 18 46  1  1
 19 47  1  0
 20 21  1  0
 22 23  2  0
M  END
>  <i_m_ct_stereo_status>  (407) 
1

>  <s_m_source_file>  (407) 
/var/tmp/pbs.5076255.sched01/tmp1cu33jom/138ve8n868x.sdf

>  <i_m_source_file_index>  (407) 
20

>  <i_lp_mmshare_version>  (407) 
48012

>  <i_f3d_flags>  (407) 
2

>  <s_epik_input>  (407) 
W0NIM11DKD1bQ0hdMSlDKD1PKUMoW0NASF0xW0NAXTIzNCk9W0NIXVtDQF01KFtDSDNdKVtDSDJdW0NAQF0oTzQpKFtDSDNdKVtDSDJdW0NAQEhdKFtPSF0pW0NASF0yW0NAQF0zKFtDSDNdKVtDQEhdNVtPSF0=

>  <s_epik_cmdline>  (407) 
J2VwaWtfcHl0aG9uJywgJy1waHQnLCAnMi4wJywgJy1waCcsICc3LjAnLCAnLXRuJywgJzgnLCAnLW1hJywgJzIwMCcsICctaW1hZScsICc8aW5maWxlLm1hZT4nLCAnLW9tYWUnLCAnPG91dGZpbGUubWFlPic=

>  <r_lp_tautomer_probability>  (407) 
0.0485

>  <r_epik_Ionization_Penalty>  (407) 
9.38816e-08

>  <r_epik_Ionization_Penalty_Charging>  (407) 
0

>  <r_epik_Ionization_Penalty_Neutral>  (407) 
9.38816e-08

>  <r_epik_State_Penalty>  (407) 
1.90605

>  <r_epik_Charging_Adjusted_Penalty>  (407) 
1.90605

>  <i_epik_Tot_Q>  (407) 
0

>  <i_epik_Tot_abs_Q>  (407) 
0

>  <s_lp_Force_Field>  (407) 
OPLS3e

>  <r_lp_Energy>  (407) 
62.9093

>  <b_lp_Chiralities_Consistent>  (407) 
0

>  <s_lp_Variant>  (407) 
107:0-2

>  <s_i_glide_gridfile>  (407) 
pfpi4k_grid

>  <i_i_glide_lignum>  (407) 
20

>  <i_i_glide_rotatable_bonds>  (407) 
2

>  <r_i_docking_score>  (407) 
-3.79266

>  <r_i_glide_ligand_efficiency>  (407) 
-0.164898

>  <r_i_glide_ligand_efficiency_sa>  (407) 
-0.468949

>  <r_i_glide_ligand_efficiency_ln>  (407) 
-0.917099

>  <r_i_glide_gscore>  (407) 
-3.79266

>  <r_i_glide_lipo>  (407) 
-0.682444

>  <r_i_glide_hbond>  (407) 
0

>  <r_i_glide_metal>  (407) 
-0

>  <r_i_glide_rewards>  (407) 
-1.77583

>  <r_i_glide_evdw>  (407) 
-24.3395

>  <r_i_glide_ecoul>  (407) 
-0.782718

>  <r_i_glide_erotb>  (407) 
0

>  <r_i_glide_esite>  (407) 
0

>  <r_i_glide_emodel>  (407) 
-35.885

>  <r_i_glide_energy>  (407) 
-25.1222

>  <r_i_glide_einternal>  (407) 
0.452814

>  <r_i_glide_intrahb_reward>  (407) 
-0.5

>  <i_i_glide_confnum>  (407) 
1

>  <i_i_glide_posenum>  (407) 
16

>  <r_i_glide_eff_state_penalty>  (407) 
0

>  <ligand_id>  (407) 
107

>  <original_smiles>  (407) 
CC1=CC2C(=CC3(C)CC4(C)CC(O)C5C(C)(C3O)C25O4)C1=O

>  <smiles>  (407) 
[H]OC1([H])C([H])([H])C2(C([H])([H])[H])OC34C5=C([H])C([H])(C([H])([H])[H])C(=O)C5=C([H])C(C([H])([H])[H])(C2([H])[H])C([H])(O[H])C3(C([H])([H])[H])C14[H]

$$$$
107:1:1
     RDKit          3D

 47 51  0  0  1  0  0  0  0  0999 V2000
    3.7487   -1.2932   -2.6640 C   0  0  0  0  0  0  0  0  0  0  0  0
    4.4632   -1.4568   -1.3157 C   0  0  1  0  0  0  0  0  0  0  0  0
    3.5132   -1.6805   -0.1490 C   0  0  0  0  0  0  0  0  0  0  0  0
    3.7265   -2.8276    0.5002 C   0  0  0  0  0  0  0  0  0  0  0  0
    4.8169   -3.5474   -0.1026 C   0  0  0  0  0  0  0  0  0  0  0  0
    5.3497   -4.7262    0.3038 C   0  0  0  0  0  0  0  0  0  0  0  0
    5.0387   -5.5407    1.5859 C   0  0  2  0  0  0  0  0  0  0  0  0
    6.2337   -6.5153    1.7462 C   0  0  0  0  0  0  0  0  0  0  0  0
    3.7643   -6.4256    1.4179 C   0  0  0  0  0  0  0  0  0  0  0  0
    2.3617   -5.8279    1.7213 C   0  0  1  0  0  0  0  0  0  0  0  0
    1.2741   -6.6444    0.9869 C   0  0  0  0  0  0  0  0  0  0  0  0
    1.9814   -5.7515    3.2208 C   0  0  0  0  0  0  0  0  0  0  0  0
    1.7711   -4.3180    3.7556 C   0  0  1  0  0  0  0  0  0  0  0  0
    2.0180   -4.2804    5.1441 O   0  0  0  0  0  0  0  0  0  0  0  0
    2.5931   -3.2492    3.0551 C   0  0  1  0  0  0  0  0  0  0  0  0
    4.0557   -3.4205    2.7888 C   0  0  1  0  0  0  0  0  0  0  0  0
    4.8523   -2.1437    3.0960 C   0  0  0  0  0  0  0  0  0  0  0  0
    5.0060   -4.6203    2.8493 C   0  0  1  0  0  0  0  0  0  0  0  0
    4.8868   -5.3017    4.0779 O   0  0  0  0  0  0  0  0  0  0  0  0
    3.0271   -3.4673    1.6201 C   0  0  2  0  0  0  0  0  0  0  0  0
    2.2468   -4.5577    1.1278 O   0  0  0  0  0  0  0  0  0  0  0  0
    5.2712   -2.7578   -1.2478 C   0  0  0  0  0  0  0  0  0  0  0  0
    6.1685   -3.0328   -2.0429 O   0  0  0  0  0  0  0  0  0  0  0  0
    3.1226   -2.1577   -2.8881 H   0  0  0  0  0  0  0  0  0  0  0  0
    4.4643   -1.1844   -3.4791 H   0  0  0  0  0  0  0  0  0  0  0  0
    3.1054   -0.4137   -2.6720 H   0  0  0  0  0  0  0  0  0  0  0  0
    2.7318   -0.9754    0.0916 H   0  0  0  0  0  0  0  0  0  0  0  0
    5.1092   -0.6016   -1.1082 H   0  0  0  0  0  0  0  0  0  0  0  0
    6.1637   -5.1197   -0.2892 H   0  0  0  0  0  0  0  0  0  0  0  0
    6.1349   -7.1592    2.6203 H   0  0  0  0  0  0  0  0  0  0  0  0
    7.1819   -5.9825    1.8374 H   0  0  0  0  0  0  0  0  0  0  0  0
    6.3236   -7.1748    0.8801 H   0  0  0  0  0  0  0  0  0  0  0  0
    3.7724   -6.8046    0.3936 H   0  0  0  0  0  0  0  0  0  0  0  0
    3.8585   -7.3216    2.0353 H   0  0  0  0  0  0  0  0  0  0  0  0
    1.2691   -7.6865    1.3145 H   0  0  0  0  0  0  0  0  0  0  0  0
    1.4166   -6.6267   -0.0925 H   0  0  0  0  0  0  0  0  0  0  0  0
    0.2775   -6.2412    1.1665 H   0  0  0  0  0  0  0  0  0  0  0  0
    1.0579   -6.3012    3.4087 H   0  0  0  0  0  0  0  0  0  0  0  0
    2.7072   -6.3056    3.8150 H   0  0  0  0  0  0  0  0  0  0  0  0
    0.7232   -4.0526    3.6062 H   0  0  0  0  0  0  0  0  0  0  0  0
    2.9285   -4.5081    5.2856 H   0  0  0  0  0  0  0  0  0  0  0  0
    2.2521   -2.2448    3.2909 H   0  0  0  0  0  0  0  0  0  0  0  0
    5.7178   -2.0495    2.4419 H   0  0  0  0  0  0  0  0  0  0  0  0
    5.1897   -2.1382    4.1322 H   0  0  0  0  0  0  0  0  0  0  0  0
    4.2388   -1.2557    2.9396 H   0  0  0  0  0  0  0  0  0  0  0  0
    6.0142   -4.2100    2.9058 H   0  0  0  0  0  0  0  0  0  0  0  0
    5.5352   -5.9913    4.0908 H   0  0  0  0  0  0  0  0  0  0  0  0
  1 24  1  0
  1 25  1  0
  1 26  1  0
  1  2  1  0
  2 22  1  0
  2 28  1  1
  2  3  1  0
  3  4  2  0
  3 27  1  0
 20  4  1  6
  4  5  1  0
  5  6  2  0
  5 22  1  0
  6  7  1  0
  6 29  1  0
  7 18  1  0
  7  8  1  1
  7  9  1  0
  8 30  1  0
  8 31  1  0
  8 32  1  0
  9 10  1  0
  9 33  1  0
  9 34  1  0
 10 21  1  0
 10 11  1  6
 10 12  1  0
 11 35  1  0
 11 36  1  0
 11 37  1  0
 12 13  1  0
 12 38  1  0
 12 39  1  0
 13 14  1  0
 13 15  1  0
 13 40  1  1
 14 41  1  0
 15 20  1  0
 15 16  1  0
 15 42  1  6
 16 17  1  6
 16 18  1  0
 16 20  1  0
 17 43  1  0
 17 44  1  0
 17 45  1  0
 18 19  1  0
 18 46  1  1
 19 47  1  0
 20 21  1  0
 22 23  2  0
M  END
>  <i_m_ct_stereo_status>  (408) 
1

>  <s_m_source_file>  (408) 
/var/tmp/pbs.5076255.sched01/tmp1cu33jom/138ve8n868x.sdf

>  <i_m_source_file_index>  (408) 
20

>  <i_lp_mmshare_version>  (408) 
48012

>  <i_f3d_flags>  (408) 
2

>  <s_epik_input>  (408) 
W0NIM11DKD1bQ0hdMSlDKD1PKUMoW0NASF0xW0NAXTIzNCk9W0NIXVtDQF01KFtDSDNdKVtDSDJdW0NAQF0oTzQpKFtDSDNdKVtDSDJdW0NAQEhdKFtPSF0pW0NASF0yW0NAQF0zKFtDSDNdKVtDQEhdNVtPSF0=

>  <s_epik_cmdline>  (408) 
J2VwaWtfcHl0aG9uJywgJy1waHQnLCAnMi4wJywgJy1waCcsICc3LjAnLCAnLXRuJywgJzgnLCAnLW1hJywgJzIwMCcsICctaW1hZScsICc8aW5maWxlLm1hZT4nLCAnLW9tYWUnLCAnPG91dGZpbGUubWFlPic=

>  <r_lp_tautomer_probability>  (408) 
0.0485

>  <r_epik_Ionization_Penalty>  (408) 
9.38816e-08

>  <r_epik_Ionization_Penalty_Charging>  (408) 
0

>  <r_epik_Ionization_Penalty_Neutral>  (408) 
9.38816e-08

>  <r_epik_State_Penalty>  (408) 
1.90605

>  <r_epik_Charging_Adjusted_Penalty>  (408) 
1.90605

>  <i_epik_Tot_Q>  (408) 
0

>  <i_epik_Tot_abs_Q>  (408) 
0

>  <s_lp_Force_Field>  (408) 
OPLS3e

>  <r_lp_Energy>  (408) 
62.9093

>  <b_lp_Chiralities_Consistent>  (408) 
0

>  <s_lp_Variant>  (408) 
107:0-2

>  <s_i_glide_gridfile>  (408) 
pfpi4k_grid

>  <i_i_glide_lignum>  (408) 
20

>  <i_i_glide_rotatable_bonds>  (408) 
2

>  <r_i_docking_score>  (408) 
-3.44781

>  <r_i_glide_ligand_efficiency>  (408) 
-0.149905

>  <r_i_glide_ligand_efficiency_sa>  (408) 
-0.426309

>  <r_i_glide_ligand_efficiency_ln>  (408) 
-0.833711

>  <r_i_glide_gscore>  (408) 
-3.44781

>  <r_i_glide_lipo>  (408) 
-0.353482

>  <r_i_glide_hbond>  (408) 
-0.00653964

>  <r_i_glide_metal>  (408) 
-0

>  <r_i_glide_rewards>  (408) 
-1.75188

>  <r_i_glide_evdw>  (408) 
-24.1254

>  <r_i_glide_ecoul>  (408) 
-0.850987

>  <r_i_glide_erotb>  (408) 
0

>  <r_i_glide_esite>  (408) 
-0.00199104

>  <r_i_glide_emodel>  (408) 
-35.3005

>  <r_i_glide_energy>  (408) 
-24.9763

>  <r_i_glide_einternal>  (408) 
0.346085

>  <r_i_glide_intrahb_reward>  (408) 
-0.5

>  <i_i_glide_confnum>  (408) 
1

>  <i_i_glide_posenum>  (408) 
39

>  <r_i_glide_eff_state_penalty>  (408) 
0

>  <ligand_id>  (408) 
107

>  <original_smiles>  (408) 
CC1=CC2C(=CC3(C)CC4(C)CC(O)C5C(C)(C3O)C25O4)C1=O

>  <smiles>  (408) 
[H]OC1([H])C([H])([H])C2(C([H])([H])[H])OC34C5=C([H])C([H])(C([H])([H])[H])C(=O)C5=C([H])C(C([H])([H])[H])(C2([H])[H])C([H])(O[H])C3(C([H])([H])[H])C14[H]

$$$$
107:1:2
     RDKit          3D

 47 51  0  0  1  0  0  0  0  0999 V2000
    2.9196   -3.1457   -3.7474 C   0  0  0  0  0  0  0  0  0  0  0  0
    3.3815   -2.5949   -2.3911 C   0  0  1  0  0  0  0  0  0  0  0  0
    2.6371   -3.2013   -1.2128 C   0  0  0  0  0  0  0  0  0  0  0  0
    3.4304   -3.7955   -0.3201 C   0  0  0  0  0  0  0  0  0  0  0  0
    4.8005   -3.7166   -0.7494 C   0  0  0  0  0  0  0  0  0  0  0  0
    5.8974   -4.1708   -0.0964 C   0  0  0  0  0  0  0  0  0  0  0  0
    6.0092   -4.7616    1.3296 C   0  0  2  0  0  0  0  0  0  0  0  0
    7.5127   -4.6930    1.6699 C   0  0  0  0  0  0  0  0  0  0  0  0
    5.6298   -6.2686    1.3779 C   0  0  0  0  0  0  0  0  0  0  0  0
    4.1462   -6.6911    1.5333 C   0  0  1  0  0  0  0  0  0  0  0  0
    3.9700   -8.1232    0.9894 C   0  0  0  0  0  0  0  0  0  0  0  0
    3.6002   -6.6440    2.9791 C   0  0  0  0  0  0  0  0  0  0  0  0
    2.4544   -5.6319    3.1886 C   0  0  1  0  0  0  0  0  0  0  0  0
    2.4065   -5.2119    4.5348 O   0  0  0  0  0  0  0  0  0  0  0  0
    2.5019   -4.4184    2.2769 C   0  0  1  0  0  0  0  0  0  0  0  0
    3.7556   -3.6365    2.0436 C   0  0  1  0  0  0  0  0  0  0  0  0
    3.4986   -2.1242    2.0653 C   0  0  0  0  0  0  0  0  0  0  0  0
    5.2328   -3.8877    2.3625 C   0  0  1  0  0  0  0  0  0  0  0  0
    5.3957   -4.2801    3.7089 O   0  0  0  0  0  0  0  0  0  0  0  0
    3.1594   -4.5344    0.9178 C   0  0  2  0  0  0  0  0  0  0  0  0
    3.3259   -5.9302    0.6782 O   0  0  0  0  0  0  0  0  0  0  0  0
    4.8095   -3.0284   -2.0368 C   0  0  0  0  0  0  0  0  0  0  0  0
    5.7895   -2.7904   -2.7399 O   0  0  0  0  0  0  0  0  0  0  0  0
    3.0319   -4.2293   -3.8059 H   0  0  0  0  0  0  0  0  0  0  0  0
    3.4967   -2.7182   -4.5644 H   0  0  0  0  0  0  0  0  0  0  0  0
    1.8694   -2.9139   -3.9310 H   0  0  0  0  0  0  0  0  0  0  0  0
    1.5630   -3.1424   -1.1375 H   0  0  0  0  0  0  0  0  0  0  0  0
    3.2951   -1.5091   -2.3567 H   0  0  0  0  0  0  0  0  0  0  0  0
    6.8517   -4.0202   -0.5891 H   0  0  0  0  0  0  0  0  0  0  0  0
    7.7199   -5.0892    2.6638 H   0  0  0  0  0  0  0  0  0  0  0  0
    7.8760   -3.6659    1.6417 H   0  0  0  0  0  0  0  0  0  0  0  0
    8.1208   -5.2667    0.9664 H   0  0  0  0  0  0  0  0  0  0  0  0
    6.0297   -6.7190    0.4745 H   0  0  0  0  0  0  0  0  0  0  0  0
    6.1825   -6.7653    2.1784 H   0  0  0  0  0  0  0  0  0  0  0  0
    4.5644   -8.8472    1.5486 H   0  0  0  0  0  0  0  0  0  0  0  0
    4.2566   -8.1912   -0.0626 H   0  0  0  0  0  0  0  0  0  0  0  0
    2.9233   -8.4315    1.0560 H   0  0  0  0  0  0  0  0  0  0  0  0
    3.2236   -7.6216    3.2785 H   0  0  0  0  0  0  0  0  0  0  0  0
    4.4232   -6.4844    3.6750 H   0  0  0  0  0  0  0  0  0  0  0  0
    1.5171   -6.1471    2.9787 H   0  0  0  0  0  0  0  0  0  0  0  0
    3.2432   -4.8298    4.7549 H   0  0  0  0  0  0  0  0  0  0  0  0
    1.5739   -3.8521    2.3006 H   0  0  0  0  0  0  0  0  0  0  0  0
    4.1845   -1.5980    1.4031 H   0  0  0  0  0  0  0  0  0  0  0  0
    3.6026   -1.7275    3.0758 H   0  0  0  0  0  0  0  0  0  0  0  0
    2.4891   -1.8950    1.7179 H   0  0  0  0  0  0  0  0  0  0  0  0
    5.7260   -2.9141    2.3265 H   0  0  0  0  0  0  0  0  0  0  0  0
    5.0379   -3.6008    4.2588 H   0  0  0  0  0  0  0  0  0  0  0  0
  1 24  1  0
  1 25  1  0
  1 26  1  0
  1  2  1  0
  2 22  1  0
  2 28  1  6
  2  3  1  0
  3  4  2  0
  3 27  1  0
 20  4  1  6
  4  5  1  0
  5  6  2  0
  5 22  1  0
  6  7  1  0
  6 29  1  0
  7 18  1  0
  7  8  1  1
  7  9  1  0
  8 30  1  0
  8 31  1  0
  8 32  1  0
  9 10  1  0
  9 33  1  0
  9 34  1  0
 10 21  1  0
 10 11  1  6
 10 12  1  0
 11 35  1  0
 11 36  1  0
 11 37  1  0
 12 13  1  0
 12 38  1  0
 12 39  1  0
 13 14  1  0
 13 15  1  0
 13 40  1  6
 14 41  1  0
 15 20  1  0
 15 16  1  0
 15 42  1  6
 16 17  1  6
 16 18  1  0
 16 20  1  0
 17 43  1  0
 17 44  1  0
 17 45  1  0
 18 19  1  0
 18 46  1  1
 19 47  1  0
 20 21  1  0
 22 23  2  0
M  END
>  <i_m_ct_stereo_status>  (409) 
1

>  <s_m_source_file>  (409) 
/var/tmp/pbs.5076255.sched01/tmp1cu33jom/138ve8n868x.sdf

>  <i_m_source_file_index>  (409) 
20

>  <i_lp_mmshare_version>  (409) 
48012

>  <i_f3d_flags>  (409) 
2

>  <s_epik_input>  (409) 
W0NIM11DKD1bQ0hdMSlDKD1PKUMoW0NASF0xW0NAXTIzNCk9W0NIXVtDQF01KFtDSDNdKVtDSDJdW0NAQF0oTzQpKFtDSDNdKVtDSDJdW0NAQEhdKFtPSF0pW0NASF0yW0NAQF0zKFtDSDNdKVtDQEhdNVtPSF0=

>  <s_epik_cmdline>  (409) 
J2VwaWtfcHl0aG9uJywgJy1waHQnLCAnMi4wJywgJy1waCcsICc3LjAnLCAnLXRuJywgJzgnLCAnLW1hJywgJzIwMCcsICctaW1hZScsICc8aW5maWxlLm1hZT4nLCAnLW9tYWUnLCAnPG91dGZpbGUubWFlPic=

>  <r_lp_tautomer_probability>  (409) 
0.0485

>  <r_epik_Ionization_Penalty>  (409) 
9.38816e-08

>  <r_epik_Ionization_Penalty_Charging>  (409) 
0

>  <r_epik_Ionization_Penalty_Neutral>  (409) 
9.38816e-08

>  <r_epik_State_Penalty>  (409) 
1.90605

>  <r_epik_Charging_Adjusted_Penalty>  (409) 
1.90605

>  <i_epik_Tot_Q>  (409) 
0

>  <i_epik_Tot_abs_Q>  (409) 
0

>  <s_lp_Force_Field>  (409) 
OPLS3e

>  <r_lp_Energy>  (409) 
62.9093

>  <b_lp_Chiralities_Consistent>  (409) 
0

>  <s_lp_Variant>  (409) 
107:0-2

>  <s_i_glide_gridfile>  (409) 
pfpi4k_grid

>  <i_i_glide_lignum>  (409) 
20

>  <i_i_glide_rotatable_bonds>  (409) 
2

>  <r_i_docking_score>  (409) 
-3.29634

>  <r_i_glide_ligand_efficiency>  (409) 
-0.143319

>  <r_i_glide_ligand_efficiency_sa>  (409) 
-0.40758

>  <r_i_glide_ligand_efficiency_ln>  (409) 
-0.797084

>  <r_i_glide_gscore>  (409) 
-3.29634

>  <r_i_glide_lipo>  (409) 
-0.632081

>  <r_i_glide_hbond>  (409) 
0

>  <r_i_glide_metal>  (409) 
-0

>  <r_i_glide_rewards>  (409) 
-1.3263

>  <r_i_glide_evdw>  (409) 
-23.9565

>  <r_i_glide_ecoul>  (409) 
-0.934229

>  <r_i_glide_erotb>  (409) 
0

>  <r_i_glide_esite>  (409) 
0

>  <r_i_glide_emodel>  (409) 
-29.9319

>  <r_i_glide_energy>  (409) 
-24.8907

>  <r_i_glide_einternal>  (409) 
0.356176

>  <r_i_glide_intrahb_reward>  (409) 
-0

>  <i_i_glide_confnum>  (409) 
2

>  <i_i_glide_posenum>  (409) 
5

>  <r_i_glide_eff_state_penalty>  (409) 
0

>  <ligand_id>  (409) 
107

>  <original_smiles>  (409) 
CC1=CC2C(=CC3(C)CC4(C)CC(O)C5C(C)(C3O)C25O4)C1=O

>  <smiles>  (409) 
[H]OC1([H])C([H])([H])C2(C([H])([H])[H])OC34C5=C([H])C([H])(C([H])([H])[H])C(=O)C5=C([H])C(C([H])([H])[H])(C2([H])[H])C([H])(O[H])C3(C([H])([H])[H])C14[H]

$$$$
108:0:0
     RDKit          3D

 75 80  0  0  1  0  0  0  0  0999 V2000
    4.0955   -2.7581    7.0761 C   0  0  0  0  0  0  0  0  0  0  0  0
    4.0117   -1.9151    5.7778 C   0  0  0  0  0  0  0  0  0  0  0  0
    4.6802   -2.2227    4.6289 C   0  0  0  0  0  0  0  0  0  0  0  0
    4.8621   -3.6756    4.5298 C   0  0  0  0  0  0  0  0  0  0  0  0
    5.8527   -4.3127    4.8423 O   0  0  0  0  0  0  0  0  0  0  0  0
    3.6287   -4.4667    4.1448 C   0  0  1  0  0  0  0  0  0  0  0  0
    2.8459   -4.9224    5.2259 O   0  0  0  0  0  0  0  0  0  0  0  0
    2.8558   -3.9642    2.9422 C   0  0  1  0  0  0  0  0  0  0  0  0
    1.5253   -3.4557    3.0278 O   0  0  0  0  0  0  0  0  0  0  0  0
    2.4715   -2.5421    2.4502 C   0  0  2  0  0  0  0  0  0  0  0  0
    2.4887   -2.4810    0.8604 C   0  0  1  0  0  0  0  0  0  0  0  0
    3.0285   -1.3240    0.2965 O   0  0  0  0  0  0  0  0  0  0  0  0
    3.1529   -3.5738   -0.0433 C   0  0  1  0  0  0  0  0  0  0  0  0
    2.2170   -4.8228   -0.0982 C   0  0  0  0  0  0  0  0  0  0  0  0
    3.5461   -3.2607   -1.5434 C   0  0  1  0  0  0  0  0  0  0  0  0
    2.8575   -2.2273   -2.4491 C   0  0  0  0  0  0  0  0  0  0  0  0
    5.0169   -3.1463   -1.1935 C   0  0  1  0  0  0  0  0  0  0  0  0
    5.5583   -1.8553   -1.2376 O   0  0  0  0  0  0  0  0  0  0  0  0
    4.6937   -3.7826    0.1648 C   0  0  1  0  0  0  0  0  0  0  0  0
    5.5530   -3.4635    1.4283 C   0  0  1  0  0  0  0  0  0  0  0  0
    6.9800   -3.9450    1.0973 C   0  0  0  0  0  0  0  0  0  0  0  0
    5.5686   -1.9687    2.0086 C   0  0  0  0  0  0  0  0  0  0  0  0
    4.8848   -1.3334    3.3341 C   0  0  2  0  0  0  0  0  0  0  0  0
    5.8236   -0.3173    3.6766 O   0  0  0  0  0  0  0  0  0  0  0  0
    3.6807   -0.3670    3.0489 C   0  0  1  0  0  0  0  0  0  0  0  0
    3.8057    0.5429    1.9698 O   0  0  0  0  0  0  0  0  0  0  0  0
    2.3092   -1.0812    3.1474 C   0  0  1  0  0  0  0  0  0  0  0  0
    1.1818   -0.2736    2.3737 C   0  0  0  0  0  0  0  0  0  0  0  0
    1.8942   -0.8656    4.7240 C   0  0  1  0  0  0  0  0  0  0  0  0
    1.4349    0.4871    4.8156 O   0  0  0  0  0  0  0  0  0  0  0  0
    0.6138   -1.6088    5.2657 C   0  0  1  0  0  0  0  0  0  0  0  0
    0.8113   -2.9771    5.4792 O   0  0  0  0  0  0  0  0  0  0  0  0
    0.1085   -1.0998    6.6315 C   0  0  0  0  0  0  0  0  0  0  0  0
    1.1948   -1.1165    7.7122 C   0  0  0  0  0  0  0  0  0  0  0  0
    2.4763   -0.4370    7.2332 C   0  0  0  0  0  0  0  0  0  0  0  0
    3.0549    0.3702    7.9712 O   0  0  0  0  0  0  0  0  0  0  0  0
    3.0405   -0.7477    5.8259 C   0  0  1  0  0  0  0  0  0  0  0  0
    4.3828   -2.1350    7.9231 H   0  0  0  0  0  0  0  0  0  0  0  0
    4.8707   -3.5197    7.0601 H   0  0  0  0  0  0  0  0  0  0  0  0
    3.1561   -3.2610    7.3136 H   0  0  0  0  0  0  0  0  0  0  0  0
    4.0713   -5.3972    3.7822 H   0  0  0  0  0  0  0  0  0  0  0  0
    3.4099   -5.4807    5.7404 H   0  0  0  0  0  0  0  0  0  0  0  0
    2.9496   -4.7545    2.2082 H   0  0  0  0  0  0  0  0  0  0  0  0
    1.4273   -2.4676    0.6300 H   0  0  0  0  0  0  0  0  0  0  0  0
    2.3138   -0.9915   -0.2567 H   0  0  0  0  0  0  0  0  0  0  0  0
    1.5754   -4.7981   -0.9800 H   0  0  0  0  0  0  0  0  0  0  0  0
    1.5438   -4.9322    0.7452 H   0  0  0  0  0  0  0  0  0  0  0  0
    2.7754   -5.7558   -0.1607 H   0  0  0  0  0  0  0  0  0  0  0  0
    3.5272   -4.2082   -2.0626 H   0  0  0  0  0  0  0  0  0  0  0  0
    3.1212   -1.2084   -2.1889 H   0  0  0  0  0  0  0  0  0  0  0  0
    1.7812   -2.3279   -2.3811 H   0  0  0  0  0  0  0  0  0  0  0  0
    3.1309   -2.3587   -3.4919 H   0  0  0  0  0  0  0  0  0  0  0  0
    5.6216   -3.8268   -1.8050 H   0  0  0  0  0  0  0  0  0  0  0  0
    4.9065   -1.3326   -0.7791 H   0  0  0  0  0  0  0  0  0  0  0  0
    4.8172   -4.8374   -0.0427 H   0  0  0  0  0  0  0  0  0  0  0  0
    5.2580   -4.1947    2.1535 H   0  0  0  0  0  0  0  0  0  0  0  0
    7.4480   -3.3602    0.3108 H   0  0  0  0  0  0  0  0  0  0  0  0
    6.9828   -4.9894    0.8002 H   0  0  0  0  0  0  0  0  0  0  0  0
    7.6400   -3.8995    1.9555 H   0  0  0  0  0  0  0  0  0  0  0  0
    6.6271   -1.7869    2.1419 H   0  0  0  0  0  0  0  0  0  0  0  0
    5.3748   -1.2850    1.1890 H   0  0  0  0  0  0  0  0  0  0  0  0
    5.4861    0.2083    4.3936 H   0  0  0  0  0  0  0  0  0  0  0  0
    3.6925    0.4356    3.7747 H   0  0  0  0  0  0  0  0  0  0  0  0
    4.1188    1.3860    2.2824 H   0  0  0  0  0  0  0  0  0  0  0  0
    0.1891   -0.4929    2.7533 H   0  0  0  0  0  0  0  0  0  0  0  0
    1.0952   -0.4357    1.3140 H   0  0  0  0  0  0  0  0  0  0  0  0
    1.3141    0.8075    2.4376 H   0  0  0  0  0  0  0  0  0  0  0  0
    2.1302    1.0755    4.5593 H   0  0  0  0  0  0  0  0  0  0  0  0
   -0.1989   -1.5195    4.5480 H   0  0  0  0  0  0  0  0  0  0  0  0
    1.1106   -3.3656    4.6595 H   0  0  0  0  0  0  0  0  0  0  0  0
   -0.2931   -0.0923    6.5402 H   0  0  0  0  0  0  0  0  0  0  0  0
   -0.7215   -1.7237    6.9522 H   0  0  0  0  0  0  0  0  0  0  0  0
    0.8338   -0.6185    8.6125 H   0  0  0  0  0  0  0  0  0  0  0  0
    1.4234   -2.1380    8.0122 H   0  0  0  0  0  0  0  0  0  0  0  0
    3.6726    0.1262    5.6715 H   0  0  0  0  0  0  0  0  0  0  0  0
  1  2  1  0
  1 38  1  0
  1 39  1  0
  1 40  1  0
  2 37  1  0
  2  3  2  0
  3 23  1  0
  3  4  1  0
  4  5  2  0
  4  6  1  0
  6  7  1  0
  6  8  1  0
  6 41  1  6
  7 42  1  0
  8 10  1  0
  8  9  1  0
  8 43  1  6
 10  9  1  6
 10 27  1  0
 10 11  1  0
 11 12  1  0
 11 13  1  0
 11 44  1  6
 12 45  1  0
 13 19  1  0
 13 14  1  6
 13 15  1  0
 14 46  1  0
 14 47  1  0
 14 48  1  0
 15 16  1  0
 15 17  1  0
 15 49  1  6
 16 50  1  0
 16 51  1  0
 16 52  1  0
 17 18  1  0
 17 19  1  0
 17 53  1  6
 18 54  1  0
 19 20  1  0
 19 55  1  6
 20 21  1  0
 20 22  1  0
 20 56  1  1
 21 57  1  0
 21 58  1  0
 21 59  1  0
 22 23  1  0
 22 60  1  0
 22 61  1  0
 23 24  1  1
 23 25  1  0
 24 62  1  0
 25 26  1  0
 25 27  1  0
 25 63  1  1
 26 64  1  0
 27 28  1  6
 27 29  1  0
 28 65  1  0
 28 66  1  0
 28 67  1  0
 29 37  1  0
 29 30  1  6
 29 31  1  0
 30 68  1  0
 31 32  1  0
 31 33  1  0
 31 69  1  6
 32 70  1  0
 33 34  1  0
 33 71  1  0
 33 72  1  0
 34 35  1  0
 34 73  1  0
 34 74  1  0
 35 36  2  0
 35 37  1  0
 37 75  1  6
M  END
>  <i_m_ct_stereo_status>  (410) 
1

>  <s_m_source_file>  (410) 
/var/tmp/pbs.5076255.sched01/tmp1cu33jom/138ve8n868x.sdf

>  <i_m_source_file_index>  (410) 
21

>  <i_lp_mmshare_version>  (410) 
48012

>  <i_f3d_flags>  (410) 
0

>  <s_epik_input>  (410) 
W09IXVtDQEhdMVtDSDJdW0NIMl1DKD1PKVtDQEBIXShDPTJbQ0gzXSlbQ0BAXTEoW09IXSlbQ0BAXTMoW0NIM10pW0NASF0oW09IXSlbQ0BAXShbT0hdKShDMkMoPU8pW0NAQEhdKFtPSF0pW0NAQEhdKE80KUMzNDUpW0NIMl1bQ0BIXShbQ0gzXSlbQ0BIXTZbQ0BAXShbQ0gzXSkoW0NAQEhdNVtPSF0pW0NAQEhdKFtDSDNdKVtDQEhdNltPSF0=

>  <s_epik_cmdline>  (410) 
J2VwaWtfcHl0aG9uJywgJy1waHQnLCAnMi4wJywgJy1waCcsICc3LjAnLCAnLXRuJywgJzgnLCAnLW1hJywgJzIwMCcsICctaW1hZScsICc8aW5maWxlLm1hZT4nLCAnLW9tYWUnLCAnPG91dGZpbGUubWFlPic=

>  <r_lp_tautomer_probability>  (410) 
0.99995

>  <r_epik_Ionization_Penalty>  (410) 
0.00306714

>  <r_epik_Ionization_Penalty_Charging>  (410) 
0

>  <r_epik_Ionization_Penalty_Neutral>  (410) 
0.00306714

>  <r_epik_State_Penalty>  (410) 
0.00215435

>  <r_epik_Charging_Adjusted_Penalty>  (410) 
0.00215435

>  <i_epik_Tot_Q>  (410) 
0

>  <i_epik_Tot_abs_Q>  (410) 
0

>  <s_lp_Force_Field>  (410) 
OPLS3e

>  <r_lp_Energy>  (410) 
183.181

>  <b_lp_Chiralities_Consistent>  (410) 
1

>  <s_lp_Variant>  (410) 
108:0-1

>  <s_i_glide_gridfile>  (410) 
pfpi4k_grid

>  <i_i_glide_lignum>  (410) 
21

>  <i_i_glide_rotatable_bonds>  (410) 
7

>  <r_i_docking_score>  (410) 
-3.53802

>  <r_i_glide_ligand_efficiency>  (410) 
-0.0956223

>  <r_i_glide_ligand_efficiency_sa>  (410) 
-0.318635

>  <r_i_glide_ligand_efficiency_ln>  (410) 
-0.767315

>  <r_i_glide_gscore>  (410) 
-3.53802

>  <r_i_glide_lipo>  (410) 
-0.453823

>  <r_i_glide_hbond>  (410) 
0

>  <r_i_glide_metal>  (410) 
-0

>  <r_i_glide_rewards>  (410) 
-1.02473

>  <r_i_glide_evdw>  (410) 
-16.0768

>  <r_i_glide_ecoul>  (410) 
-8.37085

>  <r_i_glide_erotb>  (410) 
0

>  <r_i_glide_esite>  (410) 
0

>  <r_i_glide_emodel>  (410) 
-37.2484

>  <r_i_glide_energy>  (410) 
-24.4477

>  <r_i_glide_einternal>  (410) 
4.92269

>  <r_i_glide_intrahb_reward>  (410) 
-1

>  <i_i_glide_confnum>  (410) 
2

>  <i_i_glide_posenum>  (410) 
39

>  <r_i_glide_eff_state_penalty>  (410) 
0

>  <ligand_id>  (410) 
108

>  <original_smiles>  (410) 
CC1=C2C(=O)C(O)C3OC34C(O)C3(C)C(C)C(O)C3C(C)CC2(O)C(O)C4(C)C2(O)C(O)CCC(=O)C12

>  <smiles>  (410) 
[H]OC1([H])C(=O)C2=C(C([H])([H])[H])C3([H])C(=O)C([H])([H])C([H])([H])C([H])(O[H])C3(O[H])C3(C([H])([H])[H])C([H])(O[H])C2(O[H])C([H])([H])C([H])(C([H])([H])[H])C2([H])C([H])(O[H])C([H])(C([H])([H])[H])C2(C([H])([H])[H])C([H])(O[H])C32OC12[H]

$$$$
108:0:1
     RDKit          3D

 75 80  0  0  1  0  0  0  0  0999 V2000
    8.4350   -7.1587    3.5005 C   0  0  0  0  0  0  0  0  0  0  0  0
    7.1754   -7.6146    2.7286 C   0  0  0  0  0  0  0  0  0  0  0  0
    6.3512   -8.6070    3.1690 C   0  0  0  0  0  0  0  0  0  0  0  0
    6.3114   -8.6745    4.6122 C   0  0  0  0  0  0  0  0  0  0  0  0
    6.8080   -9.5814    5.2853 O   0  0  0  0  0  0  0  0  0  0  0  0
    5.5522   -7.5210    5.2898 C   0  0  1  0  0  0  0  0  0  0  0  0
    6.3291   -6.3707    5.5423 O   0  0  0  0  0  0  0  0  0  0  0  0
    4.1351   -7.2435    4.7691 C   0  0  1  0  0  0  0  0  0  0  0  0
    3.7626   -6.0423    4.1026 O   0  0  0  0  0  0  0  0  0  0  0  0
    3.5045   -7.2252    3.3282 C   0  0  2  0  0  0  0  0  0  0  0  0
    1.9882   -7.7461    3.3507 C   0  0  1  0  0  0  0  0  0  0  0  0
    1.6429   -8.5724    2.2812 O   0  0  0  0  0  0  0  0  0  0  0  0
    1.4101   -8.5461    4.5765 C   0  0  1  0  0  0  0  0  0  0  0  0
    1.0625   -7.5176    5.6881 C   0  0  0  0  0  0  0  0  0  0  0  0
    0.1268   -9.4512    4.4018 C   0  0  1  0  0  0  0  0  0  0  0  0
   -0.9302   -9.2318    3.3017 C   0  0  0  0  0  0  0  0  0  0  0  0
    0.9617  -10.7233    4.4591 C   0  0  1  0  0  0  0  0  0  0  0  0
    1.1101  -11.4629    3.2719 O   0  0  0  0  0  0  0  0  0  0  0  0
    2.1390   -9.8836    4.9740 C   0  0  1  0  0  0  0  0  0  0  0  0
    3.6175  -10.3056    4.6862 C   0  0  1  0  0  0  0  0  0  0  0  0
    3.8679  -11.6726    5.3577 C   0  0  0  0  0  0  0  0  0  0  0  0
    4.1797  -10.3645    3.1895 C   0  0  0  0  0  0  0  0  0  0  0  0
    5.2153   -9.3824    2.4031 C   0  0  2  0  0  0  0  0  0  0  0  0
    5.9206  -10.2963    1.5700 O   0  0  0  0  0  0  0  0  0  0  0  0
    4.5137   -8.5022    1.3203 C   0  0  1  0  0  0  0  0  0  0  0  0
    3.5518   -9.2569    0.6167 O   0  0  0  0  0  0  0  0  0  0  0  0
    4.1189   -7.0625    1.8272 C   0  0  1  0  0  0  0  0  0  0  0  0
    2.9998   -6.3712    0.9404 C   0  0  0  0  0  0  0  0  0  0  0  0
    5.4580   -6.1564    1.4719 C   0  0  1  0  0  0  0  0  0  0  0  0
    5.3714   -5.8915    0.0782 O   0  0  0  0  0  0  0  0  0  0  0  0
    5.5339   -4.6829    2.0268 C   0  0  1  0  0  0  0  0  0  0  0  0
    5.7998   -4.6456    3.3978 O   0  0  0  0  0  0  0  0  0  0  0  0
    6.6528   -3.8210    1.3846 C   0  0  0  0  0  0  0  0  0  0  0  0
    8.0433   -4.4805    1.4631 C   0  0  0  0  0  0  0  0  0  0  0  0
    8.0131   -5.9078    0.9446 C   0  0  0  0  0  0  0  0  0  0  0  0
    8.8385   -6.2577    0.1088 O   0  0  0  0  0  0  0  0  0  0  0  0
    6.8831   -6.8566    1.4463 C   0  0  1  0  0  0  0  0  0  0  0  0
    9.3206   -7.2291    2.8717 H   0  0  0  0  0  0  0  0  0  0  0  0
    8.6784   -7.7895    4.3524 H   0  0  0  0  0  0  0  0  0  0  0  0
    8.3433   -6.1379    3.8598 H   0  0  0  0  0  0  0  0  0  0  0  0
    5.3843   -7.9050    6.3014 H   0  0  0  0  0  0  0  0  0  0  0  0
    5.8180   -5.7517    6.0427 H   0  0  0  0  0  0  0  0  0  0  0  0
    3.4879   -7.4516    5.6026 H   0  0  0  0  0  0  0  0  0  0  0  0
    1.3576   -6.8676    3.2175 H   0  0  0  0  0  0  0  0  0  0  0  0
    2.0627   -9.4152    2.3891 H   0  0  0  0  0  0  0  0  0  0  0  0
    0.0114   -7.2273    5.6353 H   0  0  0  0  0  0  0  0  0  0  0  0
    1.6053   -6.5755    5.6190 H   0  0  0  0  0  0  0  0  0  0  0  0
    1.2128   -7.9206    6.6917 H   0  0  0  0  0  0  0  0  0  0  0  0
   -0.3880   -9.4567    5.3641 H   0  0  0  0  0  0  0  0  0  0  0  0
   -0.5855   -9.5462    2.3177 H   0  0  0  0  0  0  0  0  0  0  0  0
   -1.2352   -8.1888    3.2498 H   0  0  0  0  0  0  0  0  0  0  0  0
   -1.8333   -9.8127    3.4570 H   0  0  0  0  0  0  0  0  0  0  0  0
    0.5910  -11.3938    5.2388 H   0  0  0  0  0  0  0  0  0  0  0  0
    1.4168  -12.3285    3.5056 H   0  0  0  0  0  0  0  0  0  0  0  0
    2.0127   -9.9414    6.0567 H   0  0  0  0  0  0  0  0  0  0  0  0
    4.1996   -9.6863    5.3374 H   0  0  0  0  0  0  0  0  0  0  0  0
    3.3042  -12.4750    4.8870 H   0  0  0  0  0  0  0  0  0  0  0  0
    3.5818  -11.6523    6.4083 H   0  0  0  0  0  0  0  0  0  0  0  0
    4.9241  -11.9395    5.3267 H   0  0  0  0  0  0  0  0  0  0  0  0
    4.6674  -11.3369    3.1476 H   0  0  0  0  0  0  0  0  0  0  0  0
    3.3249  -10.5753    2.5572 H   0  0  0  0  0  0  0  0  0  0  0  0
    5.3105  -10.9379    1.2105 H   0  0  0  0  0  0  0  0  0  0  0  0
    5.1734   -8.3824    0.4690 H   0  0  0  0  0  0  0  0  0  0  0  0
    3.8802  -10.1362    0.4692 H   0  0  0  0  0  0  0  0  0  0  0  0
    3.0019   -5.2869    1.0275 H   0  0  0  0  0  0  0  0  0  0  0  0
    1.9592   -6.6178    1.1096 H   0  0  0  0  0  0  0  0  0  0  0  0
    3.1348   -6.6000   -0.1098 H   0  0  0  0  0  0  0  0  0  0  0  0
    4.5142   -5.5283   -0.0996 H   0  0  0  0  0  0  0  0  0  0  0  0
    4.5845   -4.1639    1.8776 H   0  0  0  0  0  0  0  0  0  0  0  0
    5.1149   -5.1489    3.8270 H   0  0  0  0  0  0  0  0  0  0  0  0
    6.4222   -3.6178    0.3361 H   0  0  0  0  0  0  0  0  0  0  0  0
    6.6735   -2.8360    1.8558 H   0  0  0  0  0  0  0  0  0  0  0  0
    8.7514   -3.8972    0.8764 H   0  0  0  0  0  0  0  0  0  0  0  0
    8.4465   -4.5347    2.4704 H   0  0  0  0  0  0  0  0  0  0  0  0
    6.9458   -7.6352    0.7003 H   0  0  0  0  0  0  0  0  0  0  0  0
  1  2  1  0
  1 38  1  0
  1 39  1  0
  1 40  1  0
  2 37  1  0
  2  3  2  0
  3 23  1  0
  3  4  1  0
  4  5  2  0
  4  6  1  0
  6  7  1  0
  6  8  1  0
  6 41  1  1
  7 42  1  0
  8 10  1  0
  8  9  1  0
  8 43  1  1
 10  9  1  1
 10 27  1  0
 10 11  1  0
 11 12  1  0
 11 13  1  0
 11 44  1  6
 12 45  1  0
 13 19  1  0
 13 14  1  1
 13 15  1  0
 14 46  1  0
 14 47  1  0
 14 48  1  0
 15 16  1  0
 15 17  1  0
 15 49  1  1
 16 50  1  0
 16 51  1  0
 16 52  1  0
 17 18  1  0
 17 19  1  0
 17 53  1  1
 18 54  1  0
 19 20  1  0
 19 55  1  1
 20 21  1  0
 20 22  1  0
 20 56  1  1
 21 57  1  0
 21 58  1  0
 21 59  1  0
 22 23  1  0
 22 60  1  0
 22 61  1  0
 23 24  1  6
 23 25  1  0
 24 62  1  0
 25 26  1  0
 25 27  1  0
 25 63  1  6
 26 64  1  0
 27 28  1  6
 27 29  1  0
 28 65  1  0
 28 66  1  0
 28 67  1  0
 29 37  1  0
 29 30  1  6
 29 31  1  0
 30 68  1  0
 31 32  1  0
 31 33  1  0
 31 69  1  1
 32 70  1  0
 33 34  1  0
 33 71  1  0
 33 72  1  0
 34 35  1  0
 34 73  1  0
 34 74  1  0
 35 36  2  0
 35 37  1  0
 37 75  1  6
M  END
>  <i_m_ct_stereo_status>  (411) 
1

>  <s_m_source_file>  (411) 
/var/tmp/pbs.5076255.sched01/tmp1cu33jom/138ve8n868x.sdf

>  <i_m_source_file_index>  (411) 
21

>  <i_lp_mmshare_version>  (411) 
48012

>  <i_f3d_flags>  (411) 
0

>  <s_epik_input>  (411) 
W09IXVtDQEhdMVtDSDJdW0NIMl1DKD1PKVtDQEBIXShDPTJbQ0gzXSlbQ0BAXTEoW09IXSlbQ0BAXTMoW0NIM10pW0NASF0oW09IXSlbQ0BAXShbT0hdKShDMkMoPU8pW0NAQEhdKFtPSF0pW0NAQEhdKE80KUMzNDUpW0NIMl1bQ0BIXShbQ0gzXSlbQ0BIXTZbQ0BAXShbQ0gzXSkoW0NAQEhdNVtPSF0pW0NAQEhdKFtDSDNdKVtDQEhdNltPSF0=

>  <s_epik_cmdline>  (411) 
J2VwaWtfcHl0aG9uJywgJy1waHQnLCAnMi4wJywgJy1waCcsICc3LjAnLCAnLXRuJywgJzgnLCAnLW1hJywgJzIwMCcsICctaW1hZScsICc8aW5maWxlLm1hZT4nLCAnLW9tYWUnLCAnPG91dGZpbGUubWFlPic=

>  <r_lp_tautomer_probability>  (411) 
0.99995

>  <r_epik_Ionization_Penalty>  (411) 
0.00306714

>  <r_epik_Ionization_Penalty_Charging>  (411) 
0

>  <r_epik_Ionization_Penalty_Neutral>  (411) 
0.00306714

>  <r_epik_State_Penalty>  (411) 
0.00215435

>  <r_epik_Charging_Adjusted_Penalty>  (411) 
0.00215435

>  <i_epik_Tot_Q>  (411) 
0

>  <i_epik_Tot_abs_Q>  (411) 
0

>  <s_lp_Force_Field>  (411) 
OPLS3e

>  <r_lp_Energy>  (411) 
183.181

>  <b_lp_Chiralities_Consistent>  (411) 
1

>  <s_lp_Variant>  (411) 
108:0-1

>  <s_i_glide_gridfile>  (411) 
pfpi4k_grid

>  <i_i_glide_lignum>  (411) 
21

>  <i_i_glide_rotatable_bonds>  (411) 
7

>  <r_i_docking_score>  (411) 
-3.37133

>  <r_i_glide_ligand_efficiency>  (411) 
-0.091117

>  <r_i_glide_ligand_efficiency_sa>  (411) 
-0.303622

>  <r_i_glide_ligand_efficiency_ln>  (411) 
-0.731162

>  <r_i_glide_gscore>  (411) 
-3.37133

>  <r_i_glide_lipo>  (411) 
-0.469351

>  <r_i_glide_hbond>  (411) 
0

>  <r_i_glide_metal>  (411) 
-0

>  <r_i_glide_rewards>  (411) 
-0.5

>  <r_i_glide_evdw>  (411) 
-22.1612

>  <r_i_glide_ecoul>  (411) 
-8.62461

>  <r_i_glide_erotb>  (411) 
0

>  <r_i_glide_esite>  (411) 
-0.000227822

>  <r_i_glide_emodel>  (411) 
-40.5696

>  <r_i_glide_energy>  (411) 
-30.7858

>  <r_i_glide_einternal>  (411) 
2.62029

>  <r_i_glide_intrahb_reward>  (411) 
-0.5

>  <i_i_glide_confnum>  (411) 
1

>  <i_i_glide_posenum>  (411) 
8

>  <r_i_glide_eff_state_penalty>  (411) 
0

>  <ligand_id>  (411) 
108

>  <original_smiles>  (411) 
CC1=C2C(=O)C(O)C3OC34C(O)C3(C)C(C)C(O)C3C(C)CC2(O)C(O)C4(C)C2(O)C(O)CCC(=O)C12

>  <smiles>  (411) 
[H]OC1([H])C(=O)C2=C(C([H])([H])[H])C3([H])C(=O)C([H])([H])C([H])([H])C([H])(O[H])C3(O[H])C3(C([H])([H])[H])C([H])(O[H])C2(O[H])C([H])([H])C([H])(C([H])([H])[H])C2([H])C([H])(O[H])C([H])(C([H])([H])[H])C2(C([H])([H])[H])C([H])(O[H])C32OC12[H]

$$$$
108:0:2
     RDKit          3D

 75 80  0  0  1  0  0  0  0  0999 V2000
    5.0933   -7.7385    6.3507 C   0  0  0  0  0  0  0  0  0  0  0  0
    3.9968   -7.1016    5.4507 C   0  0  0  0  0  0  0  0  0  0  0  0
    4.0999   -5.8559    4.9299 C   0  0  0  0  0  0  0  0  0  0  0  0
    5.4701   -5.4466    4.7147 C   0  0  0  0  0  0  0  0  0  0  0  0
    6.0782   -4.6098    5.3875 O   0  0  0  0  0  0  0  0  0  0  0  0
    6.1385   -6.1526    3.5274 C   0  0  1  0  0  0  0  0  0  0  0  0
    6.7049   -7.4133    3.8157 O   0  0  0  0  0  0  0  0  0  0  0  0
    5.3862   -6.0936    2.1937 C   0  0  1  0  0  0  0  0  0  0  0  0
    4.8633   -7.2335    1.5245 O   0  0  0  0  0  0  0  0  0  0  0  0
    3.8665   -6.2394    1.8106 C   0  0  2  0  0  0  0  0  0  0  0  0
    3.4736   -5.2982    0.5859 C   0  0  1  0  0  0  0  0  0  0  0  0
    2.2530   -4.6290    0.7541 O   0  0  0  0  0  0  0  0  0  0  0  0
    4.3785   -4.0956    0.1461 C   0  0  1  0  0  0  0  0  0  0  0  0
    5.5455   -4.6888   -0.6879 C   0  0  0  0  0  0  0  0  0  0  0  0
    3.8161   -2.9049   -0.7195 C   0  0  1  0  0  0  0  0  0  0  0  0
    2.5933   -2.9999   -1.6538 C   0  0  0  0  0  0  0  0  0  0  0  0
    3.8321   -1.9742    0.4684 C   0  0  1  0  0  0  0  0  0  0  0  0
    2.5888   -1.6063    1.0077 O   0  0  0  0  0  0  0  0  0  0  0  0
    4.7144   -2.9815    1.2061 C   0  0  1  0  0  0  0  0  0  0  0  0
    4.7013   -3.1056    2.7706 C   0  0  1  0  0  0  0  0  0  0  0  0
    5.1768   -1.7608    3.3517 C   0  0  0  0  0  0  0  0  0  0  0  0
    3.3724   -3.5598    3.5249 C   0  0  0  0  0  0  0  0  0  0  0  0
    3.0014   -4.9585    4.2653 C   0  0  2  0  0  0  0  0  0  0  0  0
    2.2224   -4.4975    5.3549 O   0  0  0  0  0  0  0  0  0  0  0  0
    1.9510   -5.8212    3.4968 C   0  0  1  0  0  0  0  0  0  0  0  0
    0.9198   -5.0500    2.9559 O   0  0  0  0  0  0  0  0  0  0  0  0
    2.5791   -6.9033    2.5521 C   0  0  1  0  0  0  0  0  0  0  0  0
    1.5685   -7.3842    1.4130 C   0  0  0  0  0  0  0  0  0  0  0  0
    2.6647   -8.2110    3.5365 C   0  0  1  0  0  0  0  0  0  0  0  0
    1.3297   -8.7166    3.5781 O   0  0  0  0  0  0  0  0  0  0  0  0
    3.4650   -9.4859    3.0660 C   0  0  1  0  0  0  0  0  0  0  0  0
    4.8521   -9.3250    3.1836 O   0  0  0  0  0  0  0  0  0  0  0  0
    3.1941  -10.7678    3.8967 C   0  0  0  0  0  0  0  0  0  0  0  0
    3.4740  -10.5549    5.3919 C   0  0  0  0  0  0  0  0  0  0  0  0
    2.7722   -9.3036    5.9356 C   0  0  0  0  0  0  0  0  0  0  0  0
    2.1868   -9.3332    7.0094 O   0  0  0  0  0  0  0  0  0  0  0  0
    2.8249   -7.9957    5.1059 C   0  0  1  0  0  0  0  0  0  0  0  0
    4.6568   -8.0736    7.2890 H   0  0  0  0  0  0  0  0  0  0  0  0
    5.8683   -7.0389    6.6564 H   0  0  0  0  0  0  0  0  0  0  0  0
    5.5743   -8.5845    5.8669 H   0  0  0  0  0  0  0  0  0  0  0  0
    7.0244   -5.5326    3.3575 H   0  0  0  0  0  0  0  0  0  0  0  0
    6.0066   -8.0714    3.8063 H   0  0  0  0  0  0  0  0  0  0  0  0
    6.0131   -5.5031    1.5506 H   0  0  0  0  0  0  0  0  0  0  0  0
    3.3403   -5.9477   -0.2831 H   0  0  0  0  0  0  0  0  0  0  0  0
    2.2846   -3.9011    0.1457 H   0  0  0  0  0  0  0  0  0  0  0  0
    5.3141   -4.6469   -1.7563 H   0  0  0  0  0  0  0  0  0  0  0  0
    5.7350   -5.7433   -0.4869 H   0  0  0  0  0  0  0  0  0  0  0  0
    6.4749   -4.1399   -0.5493 H   0  0  0  0  0  0  0  0  0  0  0  0
    4.6463   -2.5365   -1.3118 H   0  0  0  0  0  0  0  0  0  0  0  0
    1.6492   -3.0556   -1.1170 H   0  0  0  0  0  0  0  0  0  0  0  0
    2.6601   -3.8531   -2.3219 H   0  0  0  0  0  0  0  0  0  0  0  0
    2.5169   -2.1083   -2.2767 H   0  0  0  0  0  0  0  0  0  0  0  0
    4.3859   -1.0595    0.2437 H   0  0  0  0  0  0  0  0  0  0  0  0
    2.0507   -1.2915    0.3026 H   0  0  0  0  0  0  0  0  0  0  0  0
    5.7123   -2.6582    0.9310 H   0  0  0  0  0  0  0  0  0  0  0  0
    5.5619   -3.7086    2.9958 H   0  0  0  0  0  0  0  0  0  0  0  0
    4.4619   -0.9646    3.1768 H   0  0  0  0  0  0  0  0  0  0  0  0
    6.1217   -1.4596    2.9140 H   0  0  0  0  0  0  0  0  0  0  0  0
    5.3354   -1.8399    4.4235 H   0  0  0  0  0  0  0  0  0  0  0  0
    3.2836   -2.8073    4.3067 H   0  0  0  0  0  0  0  0  0  0  0  0
    2.5429   -3.2617    2.8945 H   0  0  0  0  0  0  0  0  0  0  0  0
    2.7837   -3.9754    5.9131 H   0  0  0  0  0  0  0  0  0  0  0  0
    1.2765   -6.3063    4.1960 H   0  0  0  0  0  0  0  0  0  0  0  0
    1.3217   -4.4101    2.3932 H   0  0  0  0  0  0  0  0  0  0  0  0
    1.8183   -8.3862    1.0623 H   0  0  0  0  0  0  0  0  0  0  0  0
    1.4867   -6.8101    0.5041 H   0  0  0  0  0  0  0  0  0  0  0  0
    0.5364   -7.4237    1.7646 H   0  0  0  0  0  0  0  0  0  0  0  0
    1.3006   -9.5155    4.0890 H   0  0  0  0  0  0  0  0  0  0  0  0
    3.2365   -9.6985    2.0221 H   0  0  0  0  0  0  0  0  0  0  0  0
    5.2520  -10.0351    2.6865 H   0  0  0  0  0  0  0  0  0  0  0  0
    2.1729  -11.1262    3.7559 H   0  0  0  0  0  0  0  0  0  0  0  0
    3.8208  -11.5856    3.5185 H   0  0  0  0  0  0  0  0  0  0  0  0
    3.1441  -11.4261    5.9489 H   0  0  0  0  0  0  0  0  0  0  0  0
    4.5444  -10.4800    5.5611 H   0  0  0  0  0  0  0  0  0  0  0  0
    1.9714   -7.4745    5.5361 H   0  0  0  0  0  0  0  0  0  0  0  0
  1  2  1  0
  1 38  1  0
  1 39  1  0
  1 40  1  0
  2 37  1  0
  2  3  2  0
  3 23  1  0
  3  4  1  0
  4  5  2  0
  4  6  1  0
  6  7  1  0
  6  8  1  0
  6 41  1  6
  7 42  1  0
  8 10  1  0
  8  9  1  0
  8 43  1  6
 10  9  1  6
 10 27  1  0
 10 11  1  0
 11 12  1  0
 11 13  1  0
 11 44  1  6
 12 45  1  0
 13 19  1  0
 13 14  1  6
 13 15  1  0
 14 46  1  0
 14 47  1  0
 14 48  1  0
 15 16  1  0
 15 17  1  0
 15 49  1  6
 16 50  1  0
 16 51  1  0
 16 52  1  0
 17 18  1  0
 17 19  1  0
 17 53  1  6
 18 54  1  0
 19 20  1  0
 19 55  1  6
 20 21  1  0
 20 22  1  0
 20 56  1  6
 21 57  1  0
 21 58  1  0
 21 59  1  0
 22 23  1  0
 22 60  1  0
 22 61  1  0
 23 24  1  1
 23 25  1  0
 24 62  1  0
 25 26  1  0
 25 27  1  0
 25 63  1  1
 26 64  1  0
 27 28  1  6
 27 29  1  0
 28 65  1  0
 28 66  1  0
 28 67  1  0
 29 37  1  0
 29 30  1  1
 29 31  1  0
 30 68  1  0
 31 32  1  0
 31 33  1  0
 31 69  1  6
 32 70  1  0
 33 34  1  0
 33 71  1  0
 33 72  1  0
 34 35  1  0
 34 73  1  0
 34 74  1  0
 35 36  2  0
 35 37  1  0
 37 75  1  1
M  END
>  <i_m_ct_stereo_status>  (412) 
1

>  <s_m_source_file>  (412) 
/var/tmp/pbs.5076255.sched01/tmp1cu33jom/138ve8n868x.sdf

>  <i_m_source_file_index>  (412) 
21

>  <i_lp_mmshare_version>  (412) 
48012

>  <i_f3d_flags>  (412) 
0

>  <s_epik_input>  (412) 
W09IXVtDQEhdMVtDSDJdW0NIMl1DKD1PKVtDQEBIXShDPTJbQ0gzXSlbQ0BAXTEoW09IXSlbQ0BAXTMoW0NIM10pW0NASF0oW09IXSlbQ0BAXShbT0hdKShDMkMoPU8pW0NAQEhdKFtPSF0pW0NAQEhdKE80KUMzNDUpW0NIMl1bQ0BIXShbQ0gzXSlbQ0BIXTZbQ0BAXShbQ0gzXSkoW0NAQEhdNVtPSF0pW0NAQEhdKFtDSDNdKVtDQEhdNltPSF0=

>  <s_epik_cmdline>  (412) 
J2VwaWtfcHl0aG9uJywgJy1waHQnLCAnMi4wJywgJy1waCcsICc3LjAnLCAnLXRuJywgJzgnLCAnLW1hJywgJzIwMCcsICctaW1hZScsICc8aW5maWxlLm1hZT4nLCAnLW9tYWUnLCAnPG91dGZpbGUubWFlPic=

>  <r_lp_tautomer_probability>  (412) 
0.99995

>  <r_epik_Ionization_Penalty>  (412) 
0.00306714

>  <r_epik_Ionization_Penalty_Charging>  (412) 
0

>  <r_epik_Ionization_Penalty_Neutral>  (412) 
0.00306714

>  <r_epik_State_Penalty>  (412) 
0.00215435

>  <r_epik_Charging_Adjusted_Penalty>  (412) 
0.00215435

>  <i_epik_Tot_Q>  (412) 
0

>  <i_epik_Tot_abs_Q>  (412) 
0

>  <s_lp_Force_Field>  (412) 
OPLS3e

>  <r_lp_Energy>  (412) 
183.181

>  <b_lp_Chiralities_Consistent>  (412) 
1

>  <s_lp_Variant>  (412) 
108:0-1

>  <s_i_glide_gridfile>  (412) 
pfpi4k_grid

>  <i_i_glide_lignum>  (412) 
21

>  <i_i_glide_rotatable_bonds>  (412) 
7

>  <r_i_docking_score>  (412) 
-3.08585

>  <r_i_glide_ligand_efficiency>  (412) 
-0.0834014

>  <r_i_glide_ligand_efficiency_sa>  (412) 
-0.277912

>  <r_i_glide_ligand_efficiency_ln>  (412) 
-0.669249

>  <r_i_glide_gscore>  (412) 
-3.08585

>  <r_i_glide_lipo>  (412) 
-0.207981

>  <r_i_glide_hbond>  (412) 
0

>  <r_i_glide_metal>  (412) 
-0

>  <r_i_glide_rewards>  (412) 
-1

>  <r_i_glide_evdw>  (412) 
-18.6083

>  <r_i_glide_ecoul>  (412) 
-6.13519

>  <r_i_glide_erotb>  (412) 
0

>  <r_i_glide_esite>  (412) 
-0.0271814

>  <r_i_glide_emodel>  (412) 
-38.164

>  <r_i_glide_energy>  (412) 
-24.7435

>  <r_i_glide_einternal>  (412) 
3.99592

>  <r_i_glide_intrahb_reward>  (412) 
-1

>  <i_i_glide_confnum>  (412) 
1

>  <i_i_glide_posenum>  (412) 
2

>  <r_i_glide_eff_state_penalty>  (412) 
0

>  <ligand_id>  (412) 
108

>  <original_smiles>  (412) 
CC1=C2C(=O)C(O)C3OC34C(O)C3(C)C(C)C(O)C3C(C)CC2(O)C(O)C4(C)C2(O)C(O)CCC(=O)C12

>  <smiles>  (412) 
[H]OC1([H])C(=O)C2=C(C([H])([H])[H])C3([H])C(=O)C([H])([H])C([H])([H])C([H])(O[H])C3(O[H])C3(C([H])([H])[H])C([H])(O[H])C2(O[H])C([H])([H])C([H])(C([H])([H])[H])C2([H])C([H])(O[H])C([H])(C([H])([H])[H])C2(C([H])([H])[H])C([H])(O[H])C32OC12[H]

$$$$
108:1:0
     RDKit          3D

 75 80  0  0  1  0  0  0  0  0999 V2000
    1.1830    1.2967    7.8914 C   0  0  0  0  0  0  0  0  0  0  0  0
    1.8358    1.3975    6.4950 C   0  0  0  0  0  0  0  0  0  0  0  0
    2.7347    0.4804    6.0261 C   0  0  0  0  0  0  0  0  0  0  0  0
    2.6983   -0.8417    6.6791 C   0  0  0  0  0  0  0  0  0  0  0  0
    3.5568   -1.2578    7.4554 O   0  0  0  0  0  0  0  0  0  0  0  0
    1.4842   -1.7189    6.3176 C   0  0  1  0  0  0  0  0  0  0  0  0
    0.7596   -2.0950    7.4710 O   0  0  0  0  0  0  0  0  0  0  0  0
    0.5561   -0.9585    5.3671 C   0  0  2  0  0  0  0  0  0  0  0  0
   -0.2460   -1.4307    4.3143 O   0  0  0  0  0  0  0  0  0  0  0  0
    0.9920   -0.8089    3.8918 C   0  0  2  0  0  0  0  0  0  0  0  0
    1.5324   -1.9210    2.8822 C   0  0  1  0  0  0  0  0  0  0  0  0
    2.1273   -1.4549    1.6916 O   0  0  0  0  0  0  0  0  0  0  0  0
    2.3059   -3.1951    3.3826 C   0  0  1  0  0  0  0  0  0  0  0  0
    1.2855   -4.0804    4.1834 C   0  0  0  0  0  0  0  0  0  0  0  0
    2.9645   -4.2289    2.3943 C   0  0  1  0  0  0  0  0  0  0  0  0
    3.1936   -4.0071    0.8999 C   0  0  0  0  0  0  0  0  0  0  0  0
    4.1292   -4.3536    3.3742 C   0  0  1  0  0  0  0  0  0  0  0  0
    5.4249   -4.5805    2.8673 O   0  0  0  0  0  0  0  0  0  0  0  0
    3.7558   -2.9765    3.9663 C   0  0  1  0  0  0  0  0  0  0  0  0
    4.7377   -1.7823    3.6559 C   0  0  1  0  0  0  0  0  0  0  0  0
    5.2335   -1.5500    2.2022 C   0  0  0  0  0  0  0  0  0  0  0  0
    4.7115   -0.4723    4.5205 C   0  0  0  0  0  0  0  0  0  0  0  0
    3.5448    0.5977    4.7092 C   0  0  2  0  0  0  0  0  0  0  0  0
    4.3448    1.7414    4.9529 O   0  0  0  0  0  0  0  0  0  0  0  0
    2.7023    1.0583    3.4444 C   0  0  1  0  0  0  0  0  0  0  0  0
    3.3992    0.7937    2.2586 O   0  0  0  0  0  0  0  0  0  0  0  0
    1.1389    0.7251    3.4201 C   0  0  1  0  0  0  0  0  0  0  0  0
    0.4879    0.8638    1.9935 C   0  0  0  0  0  0  0  0  0  0  0  0
    0.4862    1.9494    4.2961 C   0  0  1  0  0  0  0  0  0  0  0  0
    0.6630    3.1294    3.5028 O   0  0  0  0  0  0  0  0  0  0  0  0
   -1.0924    2.0040    4.4765 C   0  0  1  0  0  0  0  0  0  0  0  0
   -1.7685    0.7835    4.2982 O   0  0  0  0  0  0  0  0  0  0  0  0
   -1.5781    2.5468    5.8328 C   0  0  0  0  0  0  0  0  0  0  0  0
   -0.8658    3.8378    6.2352 C   0  0  0  0  0  0  0  0  0  0  0  0
    0.6509    3.6702    6.2964 C   0  0  0  0  0  0  0  0  0  0  0  0
    1.3320    4.4841    6.9202 O   0  0  0  0  0  0  0  0  0  0  0  0
    1.3100    2.4845    5.5529 C   0  0  1  0  0  0  0  0  0  0  0  0
    1.2442    2.2391    8.4368 H   0  0  0  0  0  0  0  0  0  0  0  0
    1.6815    0.5866    8.5495 H   0  0  0  0  0  0  0  0  0  0  0  0
    0.1408    0.9981    7.8359 H   0  0  0  0  0  0  0  0  0  0  0  0
    1.9190   -2.5989    5.8772 H   0  0  0  0  0  0  0  0  0  0  0  0
    0.2019   -2.8226    7.2347 H   0  0  0  0  0  0  0  0  0  0  0  0
    0.0033   -0.1772    5.8737 H   0  0  0  0  0  0  0  0  0  0  0  0
    0.6158   -2.3319    2.4771 H   0  0  0  0  0  0  0  0  0  0  0  0
    1.4611   -1.1583    1.0799 H   0  0  0  0  0  0  0  0  0  0  0  0
    1.7800   -4.7867    4.8529 H   0  0  0  0  0  0  0  0  0  0  0  0
    0.6642   -4.6773    3.5133 H   0  0  0  0  0  0  0  0  0  0  0  0
    0.5499   -3.5579    4.7782 H   0  0  0  0  0  0  0  0  0  0  0  0
    2.4602   -5.1925    2.4699 H   0  0  0  0  0  0  0  0  0  0  0  0
    3.8131   -3.1499    0.6775 H   0  0  0  0  0  0  0  0  0  0  0  0
    2.2466   -3.8728    0.3863 H   0  0  0  0  0  0  0  0  0  0  0  0
    3.6787   -4.8711    0.4481 H   0  0  0  0  0  0  0  0  0  0  0  0
    3.9272   -5.1321    4.1123 H   0  0  0  0  0  0  0  0  0  0  0  0
    5.5279   -5.5103    2.7347 H   0  0  0  0  0  0  0  0  0  0  0  0
    3.7319   -3.1318    5.0419 H   0  0  0  0  0  0  0  0  0  0  0  0
    5.6714   -2.1919    4.0484 H   0  0  0  0  0  0  0  0  0  0  0  0
    4.4832   -1.2227    1.4993 H   0  0  0  0  0  0  0  0  0  0  0  0
    5.6795   -2.4343    1.7613 H   0  0  0  0  0  0  0  0  0  0  0  0
    6.0205   -0.7961    2.1754 H   0  0  0  0  0  0  0  0  0  0  0  0
    5.0788   -0.7404    5.5087 H   0  0  0  0  0  0  0  0  0  0  0  0
    5.5755    0.0697    4.1334 H   0  0  0  0  0  0  0  0  0  0  0  0
    4.6357    2.0758    4.1141 H   0  0  0  0  0  0  0  0  0  0  0  0
    2.7870    2.1414    3.3702 H   0  0  0  0  0  0  0  0  0  0  0  0
    3.2343   -0.1172    2.0206 H   0  0  0  0  0  0  0  0  0  0  0  0
   -0.3910    1.5047    1.9593 H   0  0  0  0  0  0  0  0  0  0  0  0
    0.1004   -0.0730    1.6034 H   0  0  0  0  0  0  0  0  0  0  0  0
    1.1733    1.2702    1.2499 H   0  0  0  0  0  0  0  0  0  0  0  0
    0.2785    3.0020    2.6442 H   0  0  0  0  0  0  0  0  0  0  0  0
   -1.5311    2.6579    3.7189 H   0  0  0  0  0  0  0  0  0  0  0  0
   -2.4594    0.9064    3.6542 H   0  0  0  0  0  0  0  0  0  0  0  0
   -2.6528    2.7373    5.7900 H   0  0  0  0  0  0  0  0  0  0  0  0
   -1.4450    1.8007    6.6132 H   0  0  0  0  0  0  0  0  0  0  0  0
   -1.0924    4.6262    5.5183 H   0  0  0  0  0  0  0  0  0  0  0  0
   -1.2246    4.1804    7.2040 H   0  0  0  0  0  0  0  0  0  0  0  0
    2.2148    2.9577    5.1796 H   0  0  0  0  0  0  0  0  0  0  0  0
  1  2  1  0
  1 38  1  0
  1 39  1  0
  1 40  1  0
  2 37  1  0
  2  3  2  0
  3 23  1  0
  3  4  1  0
  4  5  2  0
  4  6  1  0
  6  7  1  0
  6  8  1  0
  6 41  1  6
  7 42  1  0
  8 10  1  0
  8  9  1  0
  8 43  1  1
 10  9  1  6
 10 27  1  0
 10 11  1  0
 11 12  1  0
 11 13  1  0
 11 44  1  6
 12 45  1  0
 13 19  1  0
 13 14  1  1
 13 15  1  0
 14 46  1  0
 14 47  1  0
 14 48  1  0
 15 16  1  0
 15 17  1  0
 15 49  1  6
 16 50  1  0
 16 51  1  0
 16 52  1  0
 17 18  1  0
 17 19  1  0
 17 53  1  1
 18 54  1  0
 19 20  1  0
 19 55  1  1
 20 21  1  0
 20 22  1  0
 20 56  1  1
 21 57  1  0
 21 58  1  0
 21 59  1  0
 22 23  1  0
 22 60  1  0
 22 61  1  0
 23 24  1  1
 23 25  1  0
 24 62  1  0
 25 26  1  0
 25 27  1  0
 25 63  1  1
 26 64  1  0
 27 28  1  6
 27 29  1  0
 28 65  1  0
 28 66  1  0
 28 67  1  0
 29 37  1  0
 29 30  1  6
 29 31  1  0
 30 68  1  0
 31 32  1  0
 31 33  1  0
 31 69  1  6
 32 70  1  0
 33 34  1  0
 33 71  1  0
 33 72  1  0
 34 35  1  0
 34 73  1  0
 34 74  1  0
 35 36  2  0
 35 37  1  0
 37 75  1  6
M  END
>  <i_m_ct_stereo_status>  (413) 
1

>  <s_m_source_file>  (413) 
/var/tmp/pbs.5076255.sched01/tmp1cu33jom/138ve8n868x.sdf

>  <i_m_source_file_index>  (413) 
22

>  <i_lp_mmshare_version>  (413) 
48012

>  <i_f3d_flags>  (413) 
0

>  <s_epik_input>  (413) 
W09IXVtDQEhdMVtDSDJdW0NIMl1DKD1PKVtDQEBIXShDPTJbQ0gzXSlbQ0BAXTEoW09IXSlbQ0BAXTMoW0NIM10pW0NASF0oW09IXSlbQ0BAXShbT0hdKShDMkMoPU8pW0NAQEhdKFtPSF0pW0NAQEhdKE80KUMzNDUpW0NIMl1bQ0BIXShbQ0gzXSlbQ0BIXTZbQ0BAXShbQ0gzXSkoW0NAQEhdNVtPSF0pW0NAQEhdKFtDSDNdKVtDQEhdNltPSF0=

>  <s_epik_cmdline>  (413) 
J2VwaWtfcHl0aG9uJywgJy1waHQnLCAnMi4wJywgJy1waCcsICc3LjAnLCAnLXRuJywgJzgnLCAnLW1hJywgJzIwMCcsICctaW1hZScsICc8aW5maWxlLm1hZT4nLCAnLW9tYWUnLCAnPG91dGZpbGUubWFlPic=

>  <r_lp_tautomer_probability>  (413) 
0.99995

>  <r_epik_Ionization_Penalty>  (413) 
0.00306714

>  <r_epik_Ionization_Penalty_Charging>  (413) 
0

>  <r_epik_Ionization_Penalty_Neutral>  (413) 
0.00306714

>  <r_epik_State_Penalty>  (413) 
0.00215435

>  <r_epik_Charging_Adjusted_Penalty>  (413) 
0.00215435

>  <i_epik_Tot_Q>  (413) 
0

>  <i_epik_Tot_abs_Q>  (413) 
0

>  <s_lp_Force_Field>  (413) 
OPLS3e

>  <r_lp_Energy>  (413) 
181.237

>  <b_lp_Chiralities_Consistent>  (413) 
1

>  <s_lp_Variant>  (413) 
108:0-2

>  <s_i_glide_gridfile>  (413) 
pfpi4k_grid

>  <i_i_glide_lignum>  (413) 
22

>  <i_i_glide_rotatable_bonds>  (413) 
7

>  <r_i_docking_score>  (413) 
-2.83817

>  <r_i_glide_ligand_efficiency>  (413) 
-0.0767072

>  <r_i_glide_ligand_efficiency_sa>  (413) 
-0.255605

>  <r_i_glide_ligand_efficiency_ln>  (413) 
-0.615532

>  <r_i_glide_gscore>  (413) 
-2.83817

>  <r_i_glide_lipo>  (413) 
-0.229541

>  <r_i_glide_hbond>  (413) 
0

>  <r_i_glide_metal>  (413) 
-0

>  <r_i_glide_rewards>  (413) 
-0.5

>  <r_i_glide_evdw>  (413) 
-20.365

>  <r_i_glide_ecoul>  (413) 
-7.26742

>  <r_i_glide_erotb>  (413) 
0

>  <r_i_glide_esite>  (413) 
-0.000263568

>  <r_i_glide_emodel>  (413) 
-35.9522

>  <r_i_glide_energy>  (413) 
-27.6324

>  <r_i_glide_einternal>  (413) 
3.88271

>  <r_i_glide_intrahb_reward>  (413) 
-0.5

>  <i_i_glide_confnum>  (413) 
2

>  <i_i_glide_posenum>  (413) 
1

>  <r_i_glide_eff_state_penalty>  (413) 
0

>  <ligand_id>  (413) 
108

>  <original_smiles>  (413) 
CC1=C2C(=O)C(O)C3OC34C(O)C3(C)C(C)C(O)C3C(C)CC2(O)C(O)C4(C)C2(O)C(O)CCC(=O)C12

>  <smiles>  (413) 
[H]OC1([H])C(=O)C2=C(C([H])([H])[H])C3([H])C(=O)C([H])([H])C([H])([H])C([H])(O[H])C3(O[H])C3(C([H])([H])[H])C([H])(O[H])C2(O[H])C([H])([H])C([H])(C([H])([H])[H])C2([H])C([H])(O[H])C([H])(C([H])([H])[H])C2(C([H])([H])[H])C([H])(O[H])C32OC12[H]

$$$$
108:1:1
     RDKit          3D

 75 80  0  0  1  0  0  0  0  0999 V2000
    1.3301    2.5782    7.2455 C   0  0  0  0  0  0  0  0  0  0  0  0
    2.1244    2.0967    6.0085 C   0  0  0  0  0  0  0  0  0  0  0  0
    2.7598    0.8915    5.9574 C   0  0  0  0  0  0  0  0  0  0  0  0
    2.2767   -0.1335    6.9081 C   0  0  0  0  0  0  0  0  0  0  0  0
    2.8859   -0.4865    7.9159 O   0  0  0  0  0  0  0  0  0  0  0  0
    0.8982   -0.7428    6.5745 C   0  0  1  0  0  0  0  0  0  0  0  0
    0.0011   -0.5699    7.6593 O   0  0  0  0  0  0  0  0  0  0  0  0
    0.3349   -0.0930    5.3076 C   0  0  2  0  0  0  0  0  0  0  0  0
   -0.4493   -0.6338    4.2743 O   0  0  0  0  0  0  0  0  0  0  0  0
    0.9503   -0.5031    3.9461 C   0  0  2  0  0  0  0  0  0  0  0  0
    1.2280   -1.9681    3.3659 C   0  0  1  0  0  0  0  0  0  0  0  0
    2.0238   -2.0484    2.2165 O   0  0  0  0  0  0  0  0  0  0  0  0
    1.5646   -3.1789    4.3157 C   0  0  1  0  0  0  0  0  0  0  0  0
    0.2623   -3.5014    5.1220 C   0  0  0  0  0  0  0  0  0  0  0  0
    1.9996   -4.5880    3.7622 C   0  0  1  0  0  0  0  0  0  0  0  0
    2.4402   -4.8830    2.3315 C   0  0  0  0  0  0  0  0  0  0  0  0
    2.9712   -4.7003    4.9360 C   0  0  1  0  0  0  0  0  0  0  0  0
    4.1946   -5.3771    4.7431 O   0  0  0  0  0  0  0  0  0  0  0  0
    2.9495   -3.1601    5.0745 C   0  0  1  0  0  0  0  0  0  0  0  0
    4.2573   -2.3917    4.6519 C   0  0  1  0  0  0  0  0  0  0  0  0
    4.9331   -2.7245    3.2950 C   0  0  0  0  0  0  0  0  0  0  0  0
    4.5221   -0.9200    5.1314 C   0  0  0  0  0  0  0  0  0  0  0  0
    3.7097    0.4152    4.8250 C   0  0  2  0  0  0  0  0  0  0  0  0
    4.7868    1.3347    4.9281 O   0  0  0  0  0  0  0  0  0  0  0  0
    3.1673    0.6726    3.3545 C   0  0  1  0  0  0  0  0  0  0  0  0
    3.8998   -0.0463    2.3963 O   0  0  0  0  0  0  0  0  0  0  0  0
    1.5853    0.7403    3.1349 C   0  0  1  0  0  0  0  0  0  0  0  0
    1.1485    0.6094    1.6310 C   0  0  0  0  0  0  0  0  0  0  0  0
    1.2259    2.2971    3.5284 C   0  0  1  0  0  0  0  0  0  0  0  0
    1.8200    3.0880    2.4839 O   0  0  0  0  0  0  0  0  0  0  0  0
   -0.2821    2.7883    3.4236 C   0  0  1  0  0  0  0  0  0  0  0  0
   -1.2657    1.7850    3.4147 O   0  0  0  0  0  0  0  0  0  0  0  0
   -0.7241    3.8069    4.4903 C   0  0  0  0  0  0  0  0  0  0  0  0
    0.2843    4.9466    4.6556 C   0  0  0  0  0  0  0  0  0  0  0  0
    1.6754    4.4341    5.0248 C   0  0  0  0  0  0  0  0  0  0  0  0
    2.4942    5.1950    5.5389 O   0  0  0  0  0  0  0  0  0  0  0  0
    2.0375    2.9575    4.7392 C   0  0  1  0  0  0  0  0  0  0  0  0
    1.6043    3.5926    7.5323 H   0  0  0  0  0  0  0  0  0  0  0  0
    1.5357    1.9974    8.1431 H   0  0  0  0  0  0  0  0  0  0  0  0
    0.2578    2.5488    7.0835 H   0  0  0  0  0  0  0  0  0  0  0  0
    1.1075   -1.7898    6.4505 H   0  0  0  0  0  0  0  0  0  0  0  0
    0.0093    0.3436    7.9044 H   0  0  0  0  0  0  0  0  0  0  0  0
   -0.0160    0.9170    5.4827 H   0  0  0  0  0  0  0  0  0  0  0  0
    0.2759   -2.2404    2.9096 H   0  0  0  0  0  0  0  0  0  0  0  0
    1.6935   -1.4469    1.5660 H   0  0  0  0  0  0  0  0  0  0  0  0
    0.4599   -4.0773    6.0301 H   0  0  0  0  0  0  0  0  0  0  0  0
   -0.4252   -4.0993    4.5256 H   0  0  0  0  0  0  0  0  0  0  0  0
   -0.3530   -2.6615    5.4164 H   0  0  0  0  0  0  0  0  0  0  0  0
    1.2309   -5.3280    3.9859 H   0  0  0  0  0  0  0  0  0  0  0  0
    3.2970   -4.3052    2.0109 H   0  0  0  0  0  0  0  0  0  0  0  0
    1.6314   -4.6750    1.6399 H   0  0  0  0  0  0  0  0  0  0  0  0
    2.6990   -5.9337    2.2079 H   0  0  0  0  0  0  0  0  0  0  0  0
    2.4790   -5.1504    5.7980 H   0  0  0  0  0  0  0  0  0  0  0  0
    4.0355   -6.3009    4.8609 H   0  0  0  0  0  0  0  0  0  0  0  0
    2.7707   -2.9767    6.1308 H   0  0  0  0  0  0  0  0  0  0  0  0
    4.9933   -2.8846    5.2945 H   0  0  0  0  0  0  0  0  0  0  0  0
    4.3736   -2.4283    2.4206 H   0  0  0  0  0  0  0  0  0  0  0  0
    5.1563   -3.7803    3.1785 H   0  0  0  0  0  0  0  0  0  0  0  0
    5.8958   -2.2255    3.2132 H   0  0  0  0  0  0  0  0  0  0  0  0
    4.6962   -0.9671    6.2051 H   0  0  0  0  0  0  0  0  0  0  0  0
    5.5390   -0.7551    4.7778 H   0  0  0  0  0  0  0  0  0  0  0  0
    4.6096    2.0832    4.3749 H   0  0  0  0  0  0  0  0  0  0  0  0
    3.5538    1.6365    3.0387 H   0  0  0  0  0  0  0  0  0  0  0  0
    3.6358    0.2382    1.5328 H   0  0  0  0  0  0  0  0  0  0  0  0
    0.5098    1.4203    1.2838 H   0  0  0  0  0  0  0  0  0  0  0  0
    0.5270   -0.2602    1.4382 H   0  0  0  0  0  0  0  0  0  0  0  0
    1.9826    0.5862    0.9286 H   0  0  0  0  0  0  0  0  0  0  0  0
    1.1421    3.4456    1.9017 H   0  0  0  0  0  0  0  0  0  0  0  0
   -0.4500    3.2867    2.4794 H   0  0  0  0  0  0  0  0  0  0  0  0
   -1.2818    1.4030    2.5481 H   0  0  0  0  0  0  0  0  0  0  0  0
   -1.6869    4.2284    4.1938 H   0  0  0  0  0  0  0  0  0  0  0  0
   -0.9002    3.3192    5.4488 H   0  0  0  0  0  0  0  0  0  0  0  0
    0.3631    5.5180    3.7295 H   0  0  0  0  0  0  0  0  0  0  0  0
   -0.0560    5.6408    5.4227 H   0  0  0  0  0  0  0  0  0  0  0  0
    3.0752    3.0668    4.4319 H   0  0  0  0  0  0  0  0  0  0  0  0
  1  2  1  0
  1 38  1  0
  1 39  1  0
  1 40  1  0
  2 37  1  0
  2  3  2  0
  3 23  1  0
  3  4  1  0
  4  5  2  0
  4  6  1  0
  6  7  1  0
  6  8  1  0
  6 41  1  6
  7 42  1  0
  8 10  1  0
  8  9  1  0
  8 43  1  1
 10  9  1  6
 10 27  1  0
 10 11  1  0
 11 12  1  0
 11 13  1  0
 11 44  1  6
 12 45  1  0
 13 19  1  0
 13 14  1  1
 13 15  1  0
 14 46  1  0
 14 47  1  0
 14 48  1  0
 15 16  1  0
 15 17  1  0
 15 49  1  1
 16 50  1  0
 16 51  1  0
 16 52  1  0
 17 18  1  0
 17 19  1  0
 17 53  1  1
 18 54  1  0
 19 20  1  0
 19 55  1  1
 20 21  1  0
 20 22  1  0
 20 56  1  1
 21 57  1  0
 21 58  1  0
 21 59  1  0
 22 23  1  0
 22 60  1  0
 22 61  1  0
 23 24  1  6
 23 25  1  0
 24 62  1  0
 25 26  1  0
 25 27  1  0
 25 63  1  6
 26 64  1  0
 27 28  1  6
 27 29  1  0
 28 65  1  0
 28 66  1  0
 28 67  1  0
 29 37  1  0
 29 30  1  6
 29 31  1  0
 30 68  1  0
 31 32  1  0
 31 33  1  0
 31 69  1  6
 32 70  1  0
 33 34  1  0
 33 71  1  0
 33 72  1  0
 34 35  1  0
 34 73  1  0
 34 74  1  0
 35 36  2  0
 35 37  1  0
 37 75  1  6
M  END
>  <i_m_ct_stereo_status>  (414) 
1

>  <s_m_source_file>  (414) 
/var/tmp/pbs.5076255.sched01/tmp1cu33jom/138ve8n868x.sdf

>  <i_m_source_file_index>  (414) 
22

>  <i_lp_mmshare_version>  (414) 
48012

>  <i_f3d_flags>  (414) 
0

>  <s_epik_input>  (414) 
W09IXVtDQEhdMVtDSDJdW0NIMl1DKD1PKVtDQEBIXShDPTJbQ0gzXSlbQ0BAXTEoW09IXSlbQ0BAXTMoW0NIM10pW0NASF0oW09IXSlbQ0BAXShbT0hdKShDMkMoPU8pW0NAQEhdKFtPSF0pW0NAQEhdKE80KUMzNDUpW0NIMl1bQ0BIXShbQ0gzXSlbQ0BIXTZbQ0BAXShbQ0gzXSkoW0NAQEhdNVtPSF0pW0NAQEhdKFtDSDNdKVtDQEhdNltPSF0=

>  <s_epik_cmdline>  (414) 
J2VwaWtfcHl0aG9uJywgJy1waHQnLCAnMi4wJywgJy1waCcsICc3LjAnLCAnLXRuJywgJzgnLCAnLW1hJywgJzIwMCcsICctaW1hZScsICc8aW5maWxlLm1hZT4nLCAnLW9tYWUnLCAnPG91dGZpbGUubWFlPic=

>  <r_lp_tautomer_probability>  (414) 
0.99995

>  <r_epik_Ionization_Penalty>  (414) 
0.00306714

>  <r_epik_Ionization_Penalty_Charging>  (414) 
0

>  <r_epik_Ionization_Penalty_Neutral>  (414) 
0.00306714

>  <r_epik_State_Penalty>  (414) 
0.00215435

>  <r_epik_Charging_Adjusted_Penalty>  (414) 
0.00215435

>  <i_epik_Tot_Q>  (414) 
0

>  <i_epik_Tot_abs_Q>  (414) 
0

>  <s_lp_Force_Field>  (414) 
OPLS3e

>  <r_lp_Energy>  (414) 
181.237

>  <b_lp_Chiralities_Consistent>  (414) 
1

>  <s_lp_Variant>  (414) 
108:0-2

>  <s_i_glide_gridfile>  (414) 
pfpi4k_grid

>  <i_i_glide_lignum>  (414) 
22

>  <i_i_glide_rotatable_bonds>  (414) 
7

>  <r_i_docking_score>  (414) 
-2.37566

>  <r_i_glide_ligand_efficiency>  (414) 
-0.064207

>  <r_i_glide_ligand_efficiency_sa>  (414) 
-0.213952

>  <r_i_glide_ligand_efficiency_ln>  (414) 
-0.515225

>  <r_i_glide_gscore>  (414) 
-2.37566

>  <r_i_glide_lipo>  (414) 
-0.115214

>  <r_i_glide_hbond>  (414) 
0

>  <r_i_glide_metal>  (414) 
-0

>  <r_i_glide_rewards>  (414) 
0

>  <r_i_glide_evdw>  (414) 
-19.7234

>  <r_i_glide_ecoul>  (414) 
-8.44101

>  <r_i_glide_erotb>  (414) 
0

>  <r_i_glide_esite>  (414) 
-0.00812499

>  <r_i_glide_emodel>  (414) 
-29.5108

>  <r_i_glide_energy>  (414) 
-28.1644

>  <r_i_glide_einternal>  (414) 
5.60122

>  <r_i_glide_intrahb_reward>  (414) 
-0

>  <i_i_glide_confnum>  (414) 
2

>  <i_i_glide_posenum>  (414) 
13

>  <r_i_glide_eff_state_penalty>  (414) 
0

>  <ligand_id>  (414) 
108

>  <original_smiles>  (414) 
CC1=C2C(=O)C(O)C3OC34C(O)C3(C)C(C)C(O)C3C(C)CC2(O)C(O)C4(C)C2(O)C(O)CCC(=O)C12

>  <smiles>  (414) 
[H]OC1([H])C(=O)C2=C(C([H])([H])[H])C3([H])C(=O)C([H])([H])C([H])([H])C([H])(O[H])C3(O[H])C3(C([H])([H])[H])C([H])(O[H])C2(O[H])C([H])([H])C([H])(C([H])([H])[H])C2([H])C([H])(O[H])C([H])(C([H])([H])[H])C2(C([H])([H])[H])C([H])(O[H])C32OC12[H]

$$$$
108:1:2
     RDKit          3D

 75 80  0  0  1  0  0  0  0  0999 V2000
   -1.8619    0.9732    5.9609 C   0  0  0  0  0  0  0  0  0  0  0  0
   -0.3767    1.3880    5.9359 C   0  0  0  0  0  0  0  0  0  0  0  0
    0.5540    0.8622    6.7865 C   0  0  0  0  0  0  0  0  0  0  0  0
    0.2196   -0.4406    7.3896 C   0  0  0  0  0  0  0  0  0  0  0  0
   -0.1227   -0.5967    8.5599 O   0  0  0  0  0  0  0  0  0  0  0  0
    0.2736   -1.6463    6.4337 C   0  0  1  0  0  0  0  0  0  0  0  0
   -0.9758   -2.3135    6.3865 O   0  0  0  0  0  0  0  0  0  0  0  0
    0.6579   -1.1843    5.0283 C   0  0  2  0  0  0  0  0  0  0  0  0
    1.4268   -1.8248    4.0427 O   0  0  0  0  0  0  0  0  0  0  0  0
    2.1325   -0.7998    4.7814 C   0  0  2  0  0  0  0  0  0  0  0  0
    3.4637   -1.6124    5.1431 C   0  0  1  0  0  0  0  0  0  0  0  0
    4.6686   -0.9089    5.0420 O   0  0  0  0  0  0  0  0  0  0  0  0
    3.5278   -2.5700    6.3918 C   0  0  1  0  0  0  0  0  0  0  0  0
    2.6061   -3.7940    6.0721 C   0  0  0  0  0  0  0  0  0  0  0  0
    4.8686   -3.2483    6.8650 C   0  0  1  0  0  0  0  0  0  0  0  0
    6.2670   -2.8645    6.4011 C   0  0  0  0  0  0  0  0  0  0  0  0
    4.4091   -3.0404    8.3038 C   0  0  1  0  0  0  0  0  0  0  0  0
    5.3910   -2.7919    9.2819 O   0  0  0  0  0  0  0  0  0  0  0  0
    3.4724   -1.9092    7.8284 C   0  0  1  0  0  0  0  0  0  0  0  0
    3.8736   -0.4372    8.2197 C   0  0  1  0  0  0  0  0  0  0  0  0
    5.3317    0.0480    7.9920 C   0  0  0  0  0  0  0  0  0  0  0  0
    2.8219    0.7300    8.1779 C   0  0  0  0  0  0  0  0  0  0  0  0
    2.0225    1.3413    6.9394 C   0  0  2  0  0  0  0  0  0  0  0  0
    1.8594    2.6679    7.4238 O   0  0  0  0  0  0  0  0  0  0  0  0
    2.7801    1.5776    5.5654 C   0  0  1  0  0  0  0  0  0  0  0  0
    4.1652    1.7118    5.7586 O   0  0  0  0  0  0  0  0  0  0  0  0
    2.3151    0.7288    4.2916 C   0  0  1  0  0  0  0  0  0  0  0  0
    3.3568    0.7243    3.1098 C   0  0  0  0  0  0  0  0  0  0  0  0
    1.0444    1.6125    3.7243 C   0  0  1  0  0  0  0  0  0  0  0  0
    1.6311    2.8162    3.2050 O   0  0  0  0  0  0  0  0  0  0  0  0
    0.3071    1.1202    2.4085 C   0  0  1  0  0  0  0  0  0  0  0  0
    0.5593   -0.2190    2.0781 O   0  0  0  0  0  0  0  0  0  0  0  0
   -1.2196    1.3506    2.3850 C   0  0  0  0  0  0  0  0  0  0  0  0
   -1.6098    2.7704    2.8105 C   0  0  0  0  0  0  0  0  0  0  0  0
   -1.0778    3.1415    4.1920 C   0  0  0  0  0  0  0  0  0  0  0  0
   -1.5602    4.1020    4.8013 O   0  0  0  0  0  0  0  0  0  0  0  0
    0.0794    2.3064    4.7968 C   0  0  1  0  0  0  0  0  0  0  0  0
   -2.5202    1.8399    5.9703 H   0  0  0  0  0  0  0  0  0  0  0  0
   -2.1409    0.4377    6.8642 H   0  0  0  0  0  0  0  0  0  0  0  0
   -2.1316    0.3453    5.1154 H   0  0  0  0  0  0  0  0  0  0  0  0
    0.9988   -2.3041    6.8774 H   0  0  0  0  0  0  0  0  0  0  0  0
   -0.8580   -3.0963    5.8654 H   0  0  0  0  0  0  0  0  0  0  0  0
   -0.1530   -0.6708    4.5243 H   0  0  0  0  0  0  0  0  0  0  0  0
    3.5999   -2.2753    4.2825 H   0  0  0  0  0  0  0  0  0  0  0  0
    4.6776   -0.4658    4.2100 H   0  0  0  0  0  0  0  0  0  0  0  0
    2.3085   -4.3402    6.9728 H   0  0  0  0  0  0  0  0  0  0  0  0
    3.1110   -4.5157    5.4269 H   0  0  0  0  0  0  0  0  0  0  0  0
    1.6977   -3.5909    5.5236 H   0  0  0  0  0  0  0  0  0  0  0  0
    4.8094   -4.3282    6.7243 H   0  0  0  0  0  0  0  0  0  0  0  0
    6.5263   -1.8306    6.5903 H   0  0  0  0  0  0  0  0  0  0  0  0
    6.3433   -3.0433    5.3326 H   0  0  0  0  0  0  0  0  0  0  0  0
    7.0253   -3.4782    6.8804 H   0  0  0  0  0  0  0  0  0  0  0  0
    3.8208   -3.8942    8.6425 H   0  0  0  0  0  0  0  0  0  0  0  0
    5.9186   -2.0760    8.9571 H   0  0  0  0  0  0  0  0  0  0  0  0
    2.5098   -2.1336    8.2830 H   0  0  0  0  0  0  0  0  0  0  0  0
    3.9280   -0.5340    9.3064 H   0  0  0  0  0  0  0  0  0  0  0  0
    5.6153    0.1605    6.9567 H   0  0  0  0  0  0  0  0  0  0  0  0
    6.0759   -0.5945    8.4480 H   0  0  0  0  0  0  0  0  0  0  0  0
    5.4900    1.0214    8.4556 H   0  0  0  0  0  0  0  0  0  0  0  0
    2.1017    0.5306    8.9720 H   0  0  0  0  0  0  0  0  0  0  0  0
    3.3796    1.5503    8.6264 H   0  0  0  0  0  0  0  0  0  0  0  0
    2.7164    3.0622    7.5028 H   0  0  0  0  0  0  0  0  0  0  0  0
    2.6447    2.6235    5.3014 H   0  0  0  0  0  0  0  0  0  0  0  0
    4.5505    2.0323    4.9561 H   0  0  0  0  0  0  0  0  0  0  0  0
    2.9472    1.0571    2.1579 H   0  0  0  0  0  0  0  0  0  0  0  0
    3.7314   -0.2650    2.8587 H   0  0  0  0  0  0  0  0  0  0  0  0
    4.2153    1.3606    3.2965 H   0  0  0  0  0  0  0  0  0  0  0  0
    1.0205    3.2244    2.6029 H   0  0  0  0  0  0  0  0  0  0  0  0
    0.6998    1.6444    1.5316 H   0  0  0  0  0  0  0  0  0  0  0  0
    0.6112   -0.2981    1.1243 H   0  0  0  0  0  0  0  0  0  0  0  0
   -1.6000    1.1785    1.3749 H   0  0  0  0  0  0  0  0  0  0  0  0
   -1.7340    0.6317    3.0162 H   0  0  0  0  0  0  0  0  0  0  0  0
   -1.2126    3.4801    2.0945 H   0  0  0  0  0  0  0  0  0  0  0  0
   -2.6925    2.8999    2.7860 H   0  0  0  0  0  0  0  0  0  0  0  0
    0.6465    3.0807    5.3090 H   0  0  0  0  0  0  0  0  0  0  0  0
  1  2  1  0
  1 38  1  0
  1 39  1  0
  1 40  1  0
  2 37  1  0
  2  3  2  0
  3 23  1  0
  3  4  1  0
  4  5  2  0
  4  6  1  0
  6  7  1  0
  6  8  1  0
  6 41  1  1
  7 42  1  0
  8 10  1  0
  8  9  1  0
  8 43  1  6
 10  9  1  6
 10 27  1  0
 10 11  1  0
 11 12  1  0
 11 13  1  0
 11 44  1  6
 12 45  1  0
 13 19  1  0
 13 14  1  6
 13 15  1  0
 14 46  1  0
 14 47  1  0
 14 48  1  0
 15 16  1  0
 15 17  1  0
 15 49  1  6
 16 50  1  0
 16 51  1  0
 16 52  1  0
 17 18  1  0
 17 19  1  0
 17 53  1  1
 18 54  1  0
 19 20  1  0
 19 55  1  1
 20 21  1  0
 20 22  1  0
 20 56  1  1
 21 57  1  0
 21 58  1  0
 21 59  1  0
 22 23  1  0
 22 60  1  0
 22 61  1  0
 23 24  1  1
 23 25  1  0
 24 62  1  0
 25 26  1  0
 25 27  1  0
 25 63  1  6
 26 64  1  0
 27 28  1  6
 27 29  1  0
 28 65  1  0
 28 66  1  0
 28 67  1  0
 29 37  1  0
 29 30  1  6
 29 31  1  0
 30 68  1  0
 31 32  1  0
 31 33  1  0
 31 69  1  6
 32 70  1  0
 33 34  1  0
 33 71  1  0
 33 72  1  0
 34 35  1  0
 34 73  1  0
 34 74  1  0
 35 36  2  0
 35 37  1  0
 37 75  1  1
M  END
>  <i_m_ct_stereo_status>  (415) 
1

>  <s_m_source_file>  (415) 
/var/tmp/pbs.5076255.sched01/tmp1cu33jom/138ve8n868x.sdf

>  <i_m_source_file_index>  (415) 
22

>  <i_lp_mmshare_version>  (415) 
48012

>  <i_f3d_flags>  (415) 
0

>  <s_epik_input>  (415) 
W09IXVtDQEhdMVtDSDJdW0NIMl1DKD1PKVtDQEBIXShDPTJbQ0gzXSlbQ0BAXTEoW09IXSlbQ0BAXTMoW0NIM10pW0NASF0oW09IXSlbQ0BAXShbT0hdKShDMkMoPU8pW0NAQEhdKFtPSF0pW0NAQEhdKE80KUMzNDUpW0NIMl1bQ0BIXShbQ0gzXSlbQ0BIXTZbQ0BAXShbQ0gzXSkoW0NAQEhdNVtPSF0pW0NAQEhdKFtDSDNdKVtDQEhdNltPSF0=

>  <s_epik_cmdline>  (415) 
J2VwaWtfcHl0aG9uJywgJy1waHQnLCAnMi4wJywgJy1waCcsICc3LjAnLCAnLXRuJywgJzgnLCAnLW1hJywgJzIwMCcsICctaW1hZScsICc8aW5maWxlLm1hZT4nLCAnLW9tYWUnLCAnPG91dGZpbGUubWFlPic=

>  <r_lp_tautomer_probability>  (415) 
0.99995

>  <r_epik_Ionization_Penalty>  (415) 
0.00306714

>  <r_epik_Ionization_Penalty_Charging>  (415) 
0

>  <r_epik_Ionization_Penalty_Neutral>  (415) 
0.00306714

>  <r_epik_State_Penalty>  (415) 
0.00215435

>  <r_epik_Charging_Adjusted_Penalty>  (415) 
0.00215435

>  <i_epik_Tot_Q>  (415) 
0

>  <i_epik_Tot_abs_Q>  (415) 
0

>  <s_lp_Force_Field>  (415) 
OPLS3e

>  <r_lp_Energy>  (415) 
181.237

>  <b_lp_Chiralities_Consistent>  (415) 
1

>  <s_lp_Variant>  (415) 
108:0-2

>  <s_i_glide_gridfile>  (415) 
pfpi4k_grid

>  <i_i_glide_lignum>  (415) 
22

>  <i_i_glide_rotatable_bonds>  (415) 
7

>  <r_i_docking_score>  (415) 
-2.22136

>  <r_i_glide_ligand_efficiency>  (415) 
-0.0600368

>  <r_i_glide_ligand_efficiency_sa>  (415) 
-0.200056

>  <r_i_glide_ligand_efficiency_ln>  (415) 
-0.481761

>  <r_i_glide_gscore>  (415) 
-2.22136

>  <r_i_glide_lipo>  (415) 
-0.0338503

>  <r_i_glide_hbond>  (415) 
-0.0374329

>  <r_i_glide_metal>  (415) 
-0

>  <r_i_glide_rewards>  (415) 
0

>  <r_i_glide_evdw>  (415) 
-18.0514

>  <r_i_glide_ecoul>  (415) 
-7.7939

>  <r_i_glide_erotb>  (415) 
0

>  <r_i_glide_esite>  (415) 
-0.0784216

>  <r_i_glide_emodel>  (415) 
-28.6721

>  <r_i_glide_energy>  (415) 
-25.8453

>  <r_i_glide_einternal>  (415) 
2.17674

>  <r_i_glide_intrahb_reward>  (415) 
-0

>  <i_i_glide_confnum>  (415) 
2

>  <i_i_glide_posenum>  (415) 
16

>  <r_i_glide_eff_state_penalty>  (415) 
0

>  <ligand_id>  (415) 
108

>  <original_smiles>  (415) 
CC1=C2C(=O)C(O)C3OC34C(O)C3(C)C(C)C(O)C3C(C)CC2(O)C(O)C4(C)C2(O)C(O)CCC(=O)C12

>  <smiles>  (415) 
[H]OC1([H])C(=O)C2=C(C([H])([H])[H])C3([H])C(=O)C([H])([H])C([H])([H])C([H])(O[H])C3(O[H])C3(C([H])([H])[H])C([H])(O[H])C2(O[H])C([H])([H])C([H])(C([H])([H])[H])C2([H])C([H])(O[H])C([H])(C([H])([H])[H])C2(C([H])([H])[H])C([H])(O[H])C32OC12[H]

$$$$
108:3:0
     RDKit          3D

 75 80  0  0  1  0  0  0  0  0999 V2000
    7.2527   -3.0946   -1.9213 C   0  0  0  0  0  0  0  0  0  0  0  0
    6.1271   -3.6910   -1.0547 C   0  0  0  0  0  0  0  0  0  0  0  0
    6.3385   -4.1010    0.2237 C   0  0  0  0  0  0  0  0  0  0  0  0
    7.3312   -3.2848    0.8723 C   0  0  0  0  0  0  0  0  0  0  0  0
    8.4471   -3.7045    1.1180 O   0  0  0  0  0  0  0  0  0  0  0  0
    6.8797   -1.8428    1.1590 C   0  0  1  0  0  0  0  0  0  0  0  0
    7.2657   -1.0592    0.1173 O   0  0  0  0  0  0  0  0  0  0  0  0
    5.4258   -1.5590    1.4677 C   0  0  2  0  0  0  0  0  0  0  0  0
    5.2079   -2.5153    2.4298 O   0  0  0  0  0  0  0  0  0  0  0  0
    4.0504   -2.3496    1.6735 C   0  0  1  0  0  0  0  0  0  0  0  0
    3.1266   -1.8783    2.8113 C   0  0  1  0  0  0  0  0  0  0  0  0
    1.8822   -1.2826    2.4819 O   0  0  0  0  0  0  0  0  0  0  0  0
    3.2853   -2.6053    4.2245 C   0  0  1  0  0  0  0  0  0  0  0  0
    4.1103   -1.6130    5.0989 C   0  0  0  0  0  0  0  0  0  0  0  0
    1.9740   -3.0351    4.9776 C   0  0  1  0  0  0  0  0  0  0  0  0
    0.5531   -2.5684    4.6442 C   0  0  0  0  0  0  0  0  0  0  0  0
    2.2985   -4.5111    4.8125 C   0  0  1  0  0  0  0  0  0  0  0  0
    1.5349   -5.1937    3.8547 O   0  0  0  0  0  0  0  0  0  0  0  0
    3.7278   -4.1311    4.4466 C   0  0  1  0  0  0  0  0  0  0  0  0
    4.8342   -5.1851    3.9467 C   0  0  1  0  0  0  0  0  0  0  0  0
    4.4251   -6.6525    4.2057 C   0  0  0  0  0  0  0  0  0  0  0  0
    5.8220   -5.0568    2.7137 C   0  0  0  0  0  0  0  0  0  0  0  0
    5.4785   -5.0269    1.1554 C   0  0  2  0  0  0  0  0  0  0  0  0
    5.8132   -6.3284    0.7341 O   0  0  0  0  0  0  0  0  0  0  0  0
    4.0068   -4.8941    0.8133 C   0  0  1  0  0  0  0  0  0  0  0  0
    3.2081   -5.6924    1.6474 O   0  0  0  0  0  0  0  0  0  0  0  0
    3.5124   -3.4385    0.5982 C   0  0  1  0  0  0  0  0  0  0  0  0
    2.0111   -3.5517    0.8160 C   0  0  0  0  0  0  0  0  0  0  0  0
    3.6623   -3.1509   -1.0017 C   0  0  1  0  0  0  0  0  0  0  0  0
    2.5421   -3.7770   -1.6483 O   0  0  0  0  0  0  0  0  0  0  0  0
    3.4756   -1.6483   -1.4391 C   0  0  1  0  0  0  0  0  0  0  0  0
    4.5798   -0.8267   -1.1213 O   0  0  0  0  0  0  0  0  0  0  0  0
    3.3334   -1.4653   -2.9757 C   0  0  0  0  0  0  0  0  0  0  0  0
    4.5274   -2.0406   -3.7073 C   0  0  0  0  0  0  0  0  0  0  0  0
    4.7727   -3.4752   -3.2920 C   0  0  0  0  0  0  0  0  0  0  0  0
    4.9210   -4.2933   -4.1916 O   0  0  0  0  0  0  0  0  0  0  0  0
    4.8021   -3.8811   -1.7831 C   0  0  1  0  0  0  0  0  0  0  0  0
    7.2815   -3.7478   -2.7790 H   0  0  0  0  0  0  0  0  0  0  0  0
    8.2637   -3.1488   -1.5155 H   0  0  0  0  0  0  0  0  0  0  0  0
    7.0860   -2.0731   -2.2535 H   0  0  0  0  0  0  0  0  0  0  0  0
    7.4107   -1.3745    1.9994 H   0  0  0  0  0  0  0  0  0  0  0  0
    7.2951   -0.1837    0.4799 H   0  0  0  0  0  0  0  0  0  0  0  0
    5.3407   -0.5457    1.8515 H   0  0  0  0  0  0  0  0  0  0  0  0
    3.5511   -0.8935    2.9983 H   0  0  0  0  0  0  0  0  0  0  0  0
    1.9179   -0.9531    1.5970 H   0  0  0  0  0  0  0  0  0  0  0  0
    4.2440   -1.9545    6.1261 H   0  0  0  0  0  0  0  0  0  0  0  0
    3.6257   -0.6396    5.1982 H   0  0  0  0  0  0  0  0  0  0  0  0
    5.1155   -1.4442    4.7158 H   0  0  0  0  0  0  0  0  0  0  0  0
    2.1457   -2.8366    6.0352 H   0  0  0  0  0  0  0  0  0  0  0  0
    0.2706   -2.8699    3.6347 H   0  0  0  0  0  0  0  0  0  0  0  0
    0.4535   -1.4842    4.7106 H   0  0  0  0  0  0  0  0  0  0  0  0
   -0.1894   -3.0080    5.3145 H   0  0  0  0  0  0  0  0  0  0  0  0
    2.2484   -5.0233    5.7741 H   0  0  0  0  0  0  0  0  0  0  0  0
    1.8671   -4.8655    3.0308 H   0  0  0  0  0  0  0  0  0  0  0  0
    4.0839   -4.0284    5.4697 H   0  0  0  0  0  0  0  0  0  0  0  0
    5.6097   -5.1054    4.7193 H   0  0  0  0  0  0  0  0  0  0  0  0
    3.5399   -6.9689    3.6587 H   0  0  0  0  0  0  0  0  0  0  0  0
    4.1942   -6.7923    5.2617 H   0  0  0  0  0  0  0  0  0  0  0  0
    5.2330   -7.3423    3.9551 H   0  0  0  0  0  0  0  0  0  0  0  0
    6.4762   -4.2556    2.9759 H   0  0  0  0  0  0  0  0  0  0  0  0
    6.5667   -5.8399    2.8419 H   0  0  0  0  0  0  0  0  0  0  0  0
    5.3235   -6.9454    1.2437 H   0  0  0  0  0  0  0  0  0  0  0  0
    3.8277   -5.4360   -0.1109 H   0  0  0  0  0  0  0  0  0  0  0  0
    3.5059   -6.5790    1.5673 H   0  0  0  0  0  0  0  0  0  0  0  0
    1.6181   -4.4388    0.3195 H   0  0  0  0  0  0  0  0  0  0  0  0
    1.4434   -2.6788    0.4406 H   0  0  0  0  0  0  0  0  0  0  0  0
    1.7445   -3.6775    1.8508 H   0  0  0  0  0  0  0  0  0  0  0  0
    2.7389   -4.6800   -1.9083 H   0  0  0  0  0  0  0  0  0  0  0  0
    2.6147   -1.2452   -0.9708 H   0  0  0  0  0  0  0  0  0  0  0  0
    4.2931    0.0618   -1.2584 H   0  0  0  0  0  0  0  0  0  0  0  0
    2.4183   -1.9160   -3.3684 H   0  0  0  0  0  0  0  0  0  0  0  0
    3.2928   -0.4095   -3.2489 H   0  0  0  0  0  0  0  0  0  0  0  0
    4.3796   -2.0223   -4.7898 H   0  0  0  0  0  0  0  0  0  0  0  0
    5.4027   -1.4863   -3.4695 H   0  0  0  0  0  0  0  0  0  0  0  0
    4.6839   -4.9709   -1.7981 H   0  0  0  0  0  0  0  0  0  0  0  0
  1  2  1  0
  1 38  1  0
  1 39  1  0
  1 40  1  0
  2 37  1  0
  2  3  2  0
  3 23  1  0
  3  4  1  0
  4  5  2  0
  4  6  1  0
  6  7  1  0
  6  8  1  0
  6 41  1  1
  7 42  1  0
  8 10  1  0
  8  9  1  0
  8 43  1  1
 10  9  1  1
 10 27  1  0
 10 11  1  0
 11 12  1  0
 11 13  1  0
 11 44  1  1
 12 45  1  0
 13 19  1  0
 13 14  1  1
 13 15  1  0
 14 46  1  0
 14 47  1  0
 14 48  1  0
 15 16  1  0
 15 17  1  0
 15 49  1  1
 16 50  1  0
 16 51  1  0
 16 52  1  0
 17 18  1  0
 17 19  1  0
 17 53  1  1
 18 54  1  0
 19 20  1  0
 19 55  1  1
 20 21  1  0
 20 22  1  0
 20 56  1  1
 21 57  1  0
 21 58  1  0
 21 59  1  0
 22 23  1  0
 22 60  1  0
 22 61  1  0
 23 24  1  6
 23 25  1  0
 24 62  1  0
 25 26  1  0
 25 27  1  0
 25 63  1  6
 26 64  1  0
 27 28  1  6
 27 29  1  0
 28 65  1  0
 28 66  1  0
 28 67  1  0
 29 37  1  0
 29 30  1  6
 29 31  1  0
 30 68  1  0
 31 32  1  0
 31 33  1  0
 31 69  1  1
 32 70  1  0
 33 34  1  0
 33 71  1  0
 33 72  1  0
 34 35  1  0
 34 73  1  0
 34 74  1  0
 35 36  2  0
 35 37  1  0
 37 75  1  6
M  END
>  <i_m_ct_stereo_status>  (416) 
1

>  <s_m_source_file>  (416) 
/var/tmp/pbs.5076255.sched01/tmp1cu33jom/138ve8n868x.sdf

>  <i_m_source_file_index>  (416) 
24

>  <i_lp_mmshare_version>  (416) 
48012

>  <i_f3d_flags>  (416) 
0

>  <s_epik_input>  (416) 
W09IXVtDQEhdMVtDSDJdW0NIMl1DKD1PKVtDQEBIXShDPTJbQ0gzXSlbQ0BAXTEoW09IXSlbQ0BAXTMoW0NIM10pW0NASF0oW09IXSlbQ0BAXShbT0hdKShDMkMoPU8pW0NAQEhdKFtPSF0pW0NAQEhdKE80KUMzNDUpW0NIMl1bQ0BIXShbQ0gzXSlbQ0BIXTZbQ0BAXShbQ0gzXSkoW0NAQEhdNVtPSF0pW0NAQEhdKFtDSDNdKVtDQEhdNltPSF0=

>  <s_epik_cmdline>  (416) 
J2VwaWtfcHl0aG9uJywgJy1waHQnLCAnMi4wJywgJy1waCcsICc3LjAnLCAnLXRuJywgJzgnLCAnLW1hJywgJzIwMCcsICctaW1hZScsICc8aW5maWxlLm1hZT4nLCAnLW9tYWUnLCAnPG91dGZpbGUubWFlPic=

>  <r_lp_tautomer_probability>  (416) 
0.99995

>  <r_epik_Ionization_Penalty>  (416) 
0.00306714

>  <r_epik_Ionization_Penalty_Charging>  (416) 
0

>  <r_epik_Ionization_Penalty_Neutral>  (416) 
0.00306714

>  <r_epik_State_Penalty>  (416) 
0.00215435

>  <r_epik_Charging_Adjusted_Penalty>  (416) 
0.00215435

>  <i_epik_Tot_Q>  (416) 
0

>  <i_epik_Tot_abs_Q>  (416) 
0

>  <s_lp_Force_Field>  (416) 
OPLS3e

>  <r_lp_Energy>  (416) 
222.393

>  <b_lp_Chiralities_Consistent>  (416) 
1

>  <s_lp_Variant>  (416) 
108:0-4

>  <s_i_glide_gridfile>  (416) 
pfpi4k_grid

>  <i_i_glide_lignum>  (416) 
24

>  <i_i_glide_rotatable_bonds>  (416) 
7

>  <r_i_docking_score>  (416) 
-3.69415

>  <r_i_glide_ligand_efficiency>  (416) 
-0.099842

>  <r_i_glide_ligand_efficiency_sa>  (416) 
-0.332696

>  <r_i_glide_ligand_efficiency_ln>  (416) 
-0.801175

>  <r_i_glide_gscore>  (416) 
-3.69415

>  <r_i_glide_lipo>  (416) 
-0.526291

>  <r_i_glide_hbond>  (416) 
-0.300968

>  <r_i_glide_metal>  (416) 
-0

>  <r_i_glide_rewards>  (416) 
-0.855193

>  <r_i_glide_evdw>  (416) 
-5.67989

>  <r_i_glide_ecoul>  (416) 
-11.5181

>  <r_i_glide_erotb>  (416) 
0

>  <r_i_glide_esite>  (416) 
0

>  <r_i_glide_emodel>  (416) 
-26.0174

>  <r_i_glide_energy>  (416) 
-17.1979

>  <r_i_glide_einternal>  (416) 
2.5563

>  <r_i_glide_intrahb_reward>  (416) 
-0.5

>  <i_i_glide_confnum>  (416) 
1

>  <i_i_glide_posenum>  (416) 
23

>  <r_i_glide_eff_state_penalty>  (416) 
0

>  <ligand_id>  (416) 
108

>  <original_smiles>  (416) 
CC1=C2C(=O)C(O)C3OC34C(O)C3(C)C(C)C(O)C3C(C)CC2(O)C(O)C4(C)C2(O)C(O)CCC(=O)C12

>  <smiles>  (416) 
[H]OC1([H])C(=O)C2=C(C([H])([H])[H])C3([H])C(=O)C([H])([H])C([H])([H])C([H])(O[H])C3(O[H])C3(C([H])([H])[H])C([H])(O[H])C2(O[H])C([H])([H])C([H])(C([H])([H])[H])C2([H])C([H])(O[H])C([H])(C([H])([H])[H])C2(C([H])([H])[H])C([H])(O[H])C32OC12[H]

$$$$
108:3:1
     RDKit          3D

 75 80  0  0  1  0  0  0  0  0999 V2000
    2.7396   -5.8403    6.1289 C   0  0  0  0  0  0  0  0  0  0  0  0
    2.5983   -5.0168    4.8224 C   0  0  0  0  0  0  0  0  0  0  0  0
    3.3624   -3.9221    4.5738 C   0  0  0  0  0  0  0  0  0  0  0  0
    4.7171   -4.0392    5.1366 C   0  0  0  0  0  0  0  0  0  0  0  0
    5.1650   -3.3295    6.0351 O   0  0  0  0  0  0  0  0  0  0  0  0
    5.6038   -5.1331    4.4908 C   0  0  1  0  0  0  0  0  0  0  0  0
    5.5187   -6.3712    5.1631 O   0  0  0  0  0  0  0  0  0  0  0  0
    5.4834   -5.3442    2.9734 C   0  0  2  0  0  0  0  0  0  0  0  0
    5.4401   -4.0477    2.5143 O   0  0  0  0  0  0  0  0  0  0  0  0
    4.6200   -4.8297    1.7072 C   0  0  1  0  0  0  0  0  0  0  0  0
    5.3702   -4.6387    0.3831 C   0  0  1  0  0  0  0  0  0  0  0  0
    5.0150   -5.4876   -0.6842 O   0  0  0  0  0  0  0  0  0  0  0  0
    5.9950   -3.2013    0.0541 C   0  0  1  0  0  0  0  0  0  0  0  0
    7.5054   -3.3447    0.3819 C   0  0  0  0  0  0  0  0  0  0  0  0
    5.8099   -2.6275   -1.4064 C   0  0  1  0  0  0  0  0  0  0  0  0
    5.3387   -3.4159   -2.6217 C   0  0  0  0  0  0  0  0  0  0  0  0
    4.9181   -1.5128   -0.8965 C   0  0  1  0  0  0  0  0  0  0  0  0
    3.5599   -1.6345   -1.1918 O   0  0  0  0  0  0  0  0  0  0  0  0
    5.3987   -1.7921    0.5293 C   0  0  1  0  0  0  0  0  0  0  0  0
    4.8077   -1.0910    1.8476 C   0  0  1  0  0  0  0  0  0  0  0  0
    3.9497    0.1497    1.5035 C   0  0  0  0  0  0  0  0  0  0  0  0
    4.4008   -1.7755    3.2291 C   0  0  0  0  0  0  0  0  0  0  0  0
    3.1652   -2.7816    3.5015 C   0  0  2  0  0  0  0  0  0  0  0  0
    2.1686   -1.9499    4.0588 O   0  0  0  0  0  0  0  0  0  0  0  0
    2.4834   -3.3280    2.2318 C   0  0  1  0  0  0  0  0  0  0  0  0
    2.3486   -2.3413    1.2482 O   0  0  0  0  0  0  0  0  0  0  0  0
    2.9974   -4.6870    1.6616 C   0  0  1  0  0  0  0  0  0  0  0  0
    2.5263   -4.7229    0.1518 C   0  0  0  0  0  0  0  0  0  0  0  0
    2.0951   -5.8297    2.4034 C   0  0  1  0  0  0  0  0  0  0  0  0
    0.8495   -5.9028    1.7033 O   0  0  0  0  0  0  0  0  0  0  0  0
    2.6005   -7.3060    2.2528 C   0  0  1  0  0  0  0  0  0  0  0  0
    3.7802   -7.5797    2.9694 O   0  0  0  0  0  0  0  0  0  0  0  0
    1.5826   -8.3662    2.7529 C   0  0  0  0  0  0  0  0  0  0  0  0
    1.1234   -8.1076    4.2017 C   0  0  0  0  0  0  0  0  0  0  0  0
    0.6330   -6.6629    4.4085 C   0  0  0  0  0  0  0  0  0  0  0  0
   -0.4273   -6.4265    4.9626 O   0  0  0  0  0  0  0  0  0  0  0  0
    1.5231   -5.5133    3.8487 C   0  0  1  0  0  0  0  0  0  0  0  0
    1.7850   -5.9011    6.6502 H   0  0  0  0  0  0  0  0  0  0  0  0
    3.4075   -5.3829    6.8582 H   0  0  0  0  0  0  0  0  0  0  0  0
    3.0913   -6.8472    5.9368 H   0  0  0  0  0  0  0  0  0  0  0  0
    6.6256   -4.7834    4.6520 H   0  0  0  0  0  0  0  0  0  0  0  0
    6.1546   -6.9672    4.7946 H   0  0  0  0  0  0  0  0  0  0  0  0
    6.3284   -5.9438    2.6411 H   0  0  0  0  0  0  0  0  0  0  0  0
    6.2432   -5.2465    0.6035 H   0  0  0  0  0  0  0  0  0  0  0  0
    4.2137   -5.1859   -1.0820 H   0  0  0  0  0  0  0  0  0  0  0  0
    8.0770   -2.4428    0.1507 H   0  0  0  0  0  0  0  0  0  0  0  0
    7.9738   -4.1367   -0.2093 H   0  0  0  0  0  0  0  0  0  0  0  0
    7.6911   -3.5671    1.4363 H   0  0  0  0  0  0  0  0  0  0  0  0
    6.7458   -2.1441   -1.6629 H   0  0  0  0  0  0  0  0  0  0  0  0
    4.3321   -3.8205   -2.5060 H   0  0  0  0  0  0  0  0  0  0  0  0
    6.0001   -4.2465   -2.8535 H   0  0  0  0  0  0  0  0  0  0  0  0
    5.2988   -2.7800   -3.5045 H   0  0  0  0  0  0  0  0  0  0  0  0
    5.2626   -0.5397   -1.2499 H   0  0  0  0  0  0  0  0  0  0  0  0
    3.1941   -2.2462   -0.5576 H   0  0  0  0  0  0  0  0  0  0  0  0
    6.3123   -1.2065    0.4784 H   0  0  0  0  0  0  0  0  0  0  0  0
    5.6945   -0.5658    2.2252 H   0  0  0  0  0  0  0  0  0  0  0  0
    3.0526   -0.0697    0.9428 H   0  0  0  0  0  0  0  0  0  0  0  0
    4.5085    0.8396    0.8759 H   0  0  0  0  0  0  0  0  0  0  0  0
    3.6501    0.6960    2.3921 H   0  0  0  0  0  0  0  0  0  0  0  0
    5.3453   -2.1206    3.6236 H   0  0  0  0  0  0  0  0  0  0  0  0
    4.2543   -0.9504    3.9261 H   0  0  0  0  0  0  0  0  0  0  0  0
    2.0693   -1.1802    3.5118 H   0  0  0  0  0  0  0  0  0  0  0  0
    1.4227   -3.4389    2.4378 H   0  0  0  0  0  0  0  0  0  0  0  0
    1.7940   -1.6435    1.5700 H   0  0  0  0  0  0  0  0  0  0  0  0
    1.4963   -4.4210   -0.0274 H   0  0  0  0  0  0  0  0  0  0  0  0
    2.6057   -5.7234   -0.2753 H   0  0  0  0  0  0  0  0  0  0  0  0
    3.0660   -4.0240   -0.4799 H   0  0  0  0  0  0  0  0  0  0  0  0
    0.4801   -6.7516    1.8966 H   0  0  0  0  0  0  0  0  0  0  0  0
    2.8091   -7.5054    1.2011 H   0  0  0  0  0  0  0  0  0  0  0  0
    3.5988   -7.4919    3.8980 H   0  0  0  0  0  0  0  0  0  0  0  0
    0.7089   -8.4220    2.1028 H   0  0  0  0  0  0  0  0  0  0  0  0
    2.0284   -9.3652    2.6893 H   0  0  0  0  0  0  0  0  0  0  0  0
    0.3124   -8.7843    4.4493 H   0  0  0  0  0  0  0  0  0  0  0  0
    1.9278   -8.3395    4.8958 H   0  0  0  0  0  0  0  0  0  0  0  0
    0.7989   -4.6981    3.8150 H   0  0  0  0  0  0  0  0  0  0  0  0
  1  2  1  0
  1 38  1  0
  1 39  1  0
  1 40  1  0
  2 37  1  0
  2  3  2  0
  3 23  1  0
  3  4  1  0
  4  5  2  0
  4  6  1  0
  6  7  1  0
  6  8  1  0
  6 41  1  6
  7 42  1  0
  8 10  1  0
  8  9  1  0
  8 43  1  6
 10  9  1  1
 10 27  1  0
 10 11  1  0
 11 12  1  0
 11 13  1  0
 11 44  1  1
 12 45  1  0
 13 19  1  0
 13 14  1  1
 13 15  1  0
 14 46  1  0
 14 47  1  0
 14 48  1  0
 15 16  1  0
 15 17  1  0
 15 49  1  6
 16 50  1  0
 16 51  1  0
 16 52  1  0
 17 18  1  0
 17 19  1  0
 17 53  1  6
 18 54  1  0
 19 20  1  0
 19 55  1  6
 20 21  1  0
 20 22  1  0
 20 56  1  1
 21 57  1  0
 21 58  1  0
 21 59  1  0
 22 23  1  0
 22 60  1  0
 22 61  1  0
 23 24  1  1
 23 25  1  0
 24 62  1  0
 25 26  1  0
 25 27  1  0
 25 63  1  1
 26 64  1  0
 27 28  1  6
 27 29  1  0
 28 65  1  0
 28 66  1  0
 28 67  1  0
 29 37  1  0
 29 30  1  6
 29 31  1  0
 30 68  1  0
 31 32  1  0
 31 33  1  0
 31 69  1  6
 32 70  1  0
 33 34  1  0
 33 71  1  0
 33 72  1  0
 34 35  1  0
 34 73  1  0
 34 74  1  0
 35 36  2  0
 35 37  1  0
 37 75  1  6
M  END
>  <i_m_ct_stereo_status>  (417) 
1

>  <s_m_source_file>  (417) 
/var/tmp/pbs.5076255.sched01/tmp1cu33jom/138ve8n868x.sdf

>  <i_m_source_file_index>  (417) 
24

>  <i_lp_mmshare_version>  (417) 
48012

>  <i_f3d_flags>  (417) 
0

>  <s_epik_input>  (417) 
W09IXVtDQEhdMVtDSDJdW0NIMl1DKD1PKVtDQEBIXShDPTJbQ0gzXSlbQ0BAXTEoW09IXSlbQ0BAXTMoW0NIM10pW0NASF0oW09IXSlbQ0BAXShbT0hdKShDMkMoPU8pW0NAQEhdKFtPSF0pW0NAQEhdKE80KUMzNDUpW0NIMl1bQ0BIXShbQ0gzXSlbQ0BIXTZbQ0BAXShbQ0gzXSkoW0NAQEhdNVtPSF0pW0NAQEhdKFtDSDNdKVtDQEhdNltPSF0=

>  <s_epik_cmdline>  (417) 
J2VwaWtfcHl0aG9uJywgJy1waHQnLCAnMi4wJywgJy1waCcsICc3LjAnLCAnLXRuJywgJzgnLCAnLW1hJywgJzIwMCcsICctaW1hZScsICc8aW5maWxlLm1hZT4nLCAnLW9tYWUnLCAnPG91dGZpbGUubWFlPic=

>  <r_lp_tautomer_probability>  (417) 
0.99995

>  <r_epik_Ionization_Penalty>  (417) 
0.00306714

>  <r_epik_Ionization_Penalty_Charging>  (417) 
0

>  <r_epik_Ionization_Penalty_Neutral>  (417) 
0.00306714

>  <r_epik_State_Penalty>  (417) 
0.00215435

>  <r_epik_Charging_Adjusted_Penalty>  (417) 
0.00215435

>  <i_epik_Tot_Q>  (417) 
0

>  <i_epik_Tot_abs_Q>  (417) 
0

>  <s_lp_Force_Field>  (417) 
OPLS3e

>  <r_lp_Energy>  (417) 
222.393

>  <b_lp_Chiralities_Consistent>  (417) 
1

>  <s_lp_Variant>  (417) 
108:0-4

>  <s_i_glide_gridfile>  (417) 
pfpi4k_grid

>  <i_i_glide_lignum>  (417) 
24

>  <i_i_glide_rotatable_bonds>  (417) 
7

>  <r_i_docking_score>  (417) 
-3.56398

>  <r_i_glide_ligand_efficiency>  (417) 
-0.0963239

>  <r_i_glide_ligand_efficiency_sa>  (417) 
-0.320972

>  <r_i_glide_ligand_efficiency_ln>  (417) 
-0.772944

>  <r_i_glide_gscore>  (417) 
-3.56398

>  <r_i_glide_lipo>  (417) 
-0.774297

>  <r_i_glide_hbond>  (417) 
-0.26127

>  <r_i_glide_metal>  (417) 
-0

>  <r_i_glide_rewards>  (417) 
-0.505531

>  <r_i_glide_evdw>  (417) 
-22.7445

>  <r_i_glide_ecoul>  (417) 
-5.79345

>  <r_i_glide_erotb>  (417) 
0

>  <r_i_glide_esite>  (417) 
-0.0166439

>  <r_i_glide_emodel>  (417) 
-39.3616

>  <r_i_glide_energy>  (417) 
-28.5379

>  <r_i_glide_einternal>  (417) 
1.02721

>  <r_i_glide_intrahb_reward>  (417) 
-0.5

>  <i_i_glide_confnum>  (417) 
2

>  <i_i_glide_posenum>  (417) 
28

>  <r_i_glide_eff_state_penalty>  (417) 
0

>  <ligand_id>  (417) 
108

>  <original_smiles>  (417) 
CC1=C2C(=O)C(O)C3OC34C(O)C3(C)C(C)C(O)C3C(C)CC2(O)C(O)C4(C)C2(O)C(O)CCC(=O)C12

>  <smiles>  (417) 
[H]OC1([H])C(=O)C2=C(C([H])([H])[H])C3([H])C(=O)C([H])([H])C([H])([H])C([H])(O[H])C3(O[H])C3(C([H])([H])[H])C([H])(O[H])C2(O[H])C([H])([H])C([H])(C([H])([H])[H])C2([H])C([H])(O[H])C([H])(C([H])([H])[H])C2(C([H])([H])[H])C([H])(O[H])C32OC12[H]

$$$$
108:3:2
     RDKit          3D

 75 80  0  0  1  0  0  0  0  0999 V2000
    2.6802   -6.6583    6.0748 C   0  0  0  0  0  0  0  0  0  0  0  0
    2.5531   -5.7209    4.8528 C   0  0  0  0  0  0  0  0  0  0  0  0
    3.3402   -4.6063    4.7130 C   0  0  0  0  0  0  0  0  0  0  0  0
    4.6828   -4.7955    5.2658 C   0  0  0  0  0  0  0  0  0  0  0  0
    5.1277   -4.1735    6.2303 O   0  0  0  0  0  0  0  0  0  0  0  0
    5.5708   -5.8199    4.5216 C   0  0  1  0  0  0  0  0  0  0  0  0
    5.4899   -7.1079    5.0970 O   0  0  0  0  0  0  0  0  0  0  0  0
    5.4348   -5.8949    2.9902 C   0  0  2  0  0  0  0  0  0  0  0  0
    5.4167   -4.5533    2.6606 O   0  0  0  0  0  0  0  0  0  0  0  0
    4.5870   -5.2458    1.7821 C   0  0  1  0  0  0  0  0  0  0  0  0
    5.3463   -4.9326    0.4816 C   0  0  1  0  0  0  0  0  0  0  0  0
    5.0121   -5.6855   -0.6601 O   0  0  0  0  0  0  0  0  0  0  0  0
    5.9932   -3.4776    0.2961 C   0  0  1  0  0  0  0  0  0  0  0  0
    7.5036   -3.6647    0.6091 C   0  0  0  0  0  0  0  0  0  0  0  0
    5.8098   -2.7625   -1.1010 C   0  0  1  0  0  0  0  0  0  0  0  0
    5.3292   -3.4243   -2.3943 C   0  0  0  0  0  0  0  0  0  0  0  0
    4.9147   -1.6986   -0.4702 C   0  0  1  0  0  0  0  0  0  0  0  0
    3.5460   -1.8103   -0.7526 O   0  0  0  0  0  0  0  0  0  0  0  0
    5.4190   -2.1103    0.9107 C   0  0  1  0  0  0  0  0  0  0  0  0
    4.8089   -1.5407    2.2795 C   0  0  1  0  0  0  0  0  0  0  0  0
    3.9666   -0.2591    2.0635 C   0  0  0  0  0  0  0  0  0  0  0  0
    4.4023   -2.3558    3.5807 C   0  0  0  0  0  0  0  0  0  0  0  0
    3.1562   -3.3722    3.7533 C   0  0  2  0  0  0  0  0  0  0  0  0
    2.1898   -2.5644    4.3951 O   0  0  0  0  0  0  0  0  0  0  0  0
    2.4573   -3.7692    2.4415 C   0  0  1  0  0  0  0  0  0  0  0  0
    2.2525   -2.6630    1.6113 O   0  0  0  0  0  0  0  0  0  0  0  0
    2.9609   -5.0735    1.7426 C   0  0  1  0  0  0  0  0  0  0  0  0
    2.4997   -4.9625    0.2356 C   0  0  0  0  0  0  0  0  0  0  0  0
    2.0380   -6.2783    2.3600 C   0  0  1  0  0  0  0  0  0  0  0  0
    0.7859   -6.2615    1.6562 O   0  0  0  0  0  0  0  0  0  0  0  0
    2.5280   -7.7445    2.0683 C   0  0  1  0  0  0  0  0  0  0  0  0
    3.6949   -8.0832    2.7741 O   0  0  0  0  0  0  0  0  0  0  0  0
    1.5071   -8.8421    2.4654 C   0  0  0  0  0  0  0  0  0  0  0  0
    1.0498   -8.7190    3.9305 C   0  0  0  0  0  0  0  0  0  0  0  0
    0.5872   -7.2966    4.2671 C   0  0  0  0  0  0  0  0  0  0  0  0
   -0.4867   -7.1007    4.8455 O   0  0  0  0  0  0  0  0  0  0  0  0
    1.4761   -6.0998    3.8342 C   0  0  1  0  0  0  0  0  0  0  0  0
    1.7263   -6.7661    6.5920 H   0  0  0  0  0  0  0  0  0  0  0  0
    3.3466   -6.2844    6.8499 H   0  0  0  0  0  0  0  0  0  0  0  0
    3.0301   -7.6493    5.7954 H   0  0  0  0  0  0  0  0  0  0  0  0
    6.5926   -5.4870    4.7047 H   0  0  0  0  0  0  0  0  0  0  0  0
    6.0420   -7.6986    4.6075 H   0  0  0  0  0  0  0  0  0  0  0  0
    6.2881   -6.4557    2.6043 H   0  0  0  0  0  0  0  0  0  0  0  0
    6.2201   -5.5566    0.6362 H   0  0  0  0  0  0  0  0  0  0  0  0
    4.1939   -5.3630   -1.0180 H   0  0  0  0  0  0  0  0  0  0  0  0
    8.0835   -2.7520    0.4641 H   0  0  0  0  0  0  0  0  0  0  0  0
    7.9668   -4.4013   -0.0488 H   0  0  0  0  0  0  0  0  0  0  0  0
    7.6784   -3.9814    1.6383 H   0  0  0  0  0  0  0  0  0  0  0  0
    6.7528   -2.2579   -1.3128 H   0  0  0  0  0  0  0  0  0  0  0  0
    4.3241   -3.8278   -2.3059 H   0  0  0  0  0  0  0  0  0  0  0  0
    5.9814   -4.2308   -2.7018 H   0  0  0  0  0  0  0  0  0  0  0  0
    5.2974   -2.7155   -3.2171 H   0  0  0  0  0  0  0  0  0  0  0  0
    5.2520   -0.6981   -0.7433 H   0  0  0  0  0  0  0  0  0  0  0  0
    3.0980   -1.0464   -0.4135 H   0  0  0  0  0  0  0  0  0  0  0  0
    6.3413   -1.5287    0.9061 H   0  0  0  0  0  0  0  0  0  0  0  0
    5.6923   -1.0639    2.7168 H   0  0  0  0  0  0  0  0  0  0  0  0
    3.0627   -0.3986    1.4808 H   0  0  0  0  0  0  0  0  0  0  0  0
    4.5423    0.4908    1.5248 H   0  0  0  0  0  0  0  0  0  0  0  0
    3.6644    0.1886    3.0073 H   0  0  0  0  0  0  0  0  0  0  0  0
    5.3427   -2.7531    3.9452 H   0  0  0  0  0  0  0  0  0  0  0  0
    4.2644   -1.6018    4.3541 H   0  0  0  0  0  0  0  0  0  0  0  0
    2.0606   -1.7910    3.8610 H   0  0  0  0  0  0  0  0  0  0  0  0
    1.4057   -3.9190    2.6467 H   0  0  0  0  0  0  0  0  0  0  0  0
    3.0859   -2.4276    1.2196 H   0  0  0  0  0  0  0  0  0  0  0  0
    1.4687   -4.6507    0.0960 H   0  0  0  0  0  0  0  0  0  0  0  0
    2.5778   -5.9141   -0.2899 H   0  0  0  0  0  0  0  0  0  0  0  0
    3.0443   -4.2079   -0.3188 H   0  0  0  0  0  0  0  0  0  0  0  0
    0.3916   -7.1098    1.7516 H   0  0  0  0  0  0  0  0  0  0  0  0
    2.7501   -7.8545    1.0064 H   0  0  0  0  0  0  0  0  0  0  0  0
    3.9128   -8.9835    2.5697 H   0  0  0  0  0  0  0  0  0  0  0  0
    0.6327   -8.8210    1.8144 H   0  0  0  0  0  0  0  0  0  0  0  0
    1.9387   -9.8349    2.3105 H   0  0  0  0  0  0  0  0  0  0  0  0
    0.2354   -9.4164    4.1225 H   0  0  0  0  0  0  0  0  0  0  0  0
    1.8548   -9.0161    4.6047 H   0  0  0  0  0  0  0  0  0  0  0  0
    0.7608   -5.2797    3.8784 H   0  0  0  0  0  0  0  0  0  0  0  0
  1  2  1  0
  1 38  1  0
  1 39  1  0
  1 40  1  0
  2 37  1  0
  2  3  2  0
  3 23  1  0
  3  4  1  0
  4  5  2  0
  4  6  1  0
  6  7  1  0
  6  8  1  0
  6 41  1  6
  7 42  1  0
  8 10  1  0
  8  9  1  0
  8 43  1  6
 10  9  1  1
 10 27  1  0
 10 11  1  0
 11 12  1  0
 11 13  1  0
 11 44  1  1
 12 45  1  0
 13 19  1  0
 13 14  1  1
 13 15  1  0
 14 46  1  0
 14 47  1  0
 14 48  1  0
 15 16  1  0
 15 17  1  0
 15 49  1  6
 16 50  1  0
 16 51  1  0
 16 52  1  0
 17 18  1  0
 17 19  1  0
 17 53  1  6
 18 54  1  0
 19 20  1  0
 19 55  1  6
 20 21  1  0
 20 22  1  0
 20 56  1  1
 21 57  1  0
 21 58  1  0
 21 59  1  0
 22 23  1  0
 22 60  1  0
 22 61  1  0
 23 24  1  1
 23 25  1  0
 24 62  1  0
 25 26  1  0
 25 27  1  0
 25 63  1  1
 26 64  1  0
 27 28  1  6
 27 29  1  0
 28 65  1  0
 28 66  1  0
 28 67  1  0
 29 37  1  0
 29 30  1  6
 29 31  1  0
 30 68  1  0
 31 32  1  0
 31 33  1  0
 31 69  1  6
 32 70  1  0
 33 34  1  0
 33 71  1  0
 33 72  1  0
 34 35  1  0
 34 73  1  0
 34 74  1  0
 35 36  2  0
 35 37  1  0
 37 75  1  6
M  END
>  <i_m_ct_stereo_status>  (418) 
1

>  <s_m_source_file>  (418) 
/var/tmp/pbs.5076255.sched01/tmp1cu33jom/138ve8n868x.sdf

>  <i_m_source_file_index>  (418) 
24

>  <i_lp_mmshare_version>  (418) 
48012

>  <i_f3d_flags>  (418) 
0

>  <s_epik_input>  (418) 
W09IXVtDQEhdMVtDSDJdW0NIMl1DKD1PKVtDQEBIXShDPTJbQ0gzXSlbQ0BAXTEoW09IXSlbQ0BAXTMoW0NIM10pW0NASF0oW09IXSlbQ0BAXShbT0hdKShDMkMoPU8pW0NAQEhdKFtPSF0pW0NAQEhdKE80KUMzNDUpW0NIMl1bQ0BIXShbQ0gzXSlbQ0BIXTZbQ0BAXShbQ0gzXSkoW0NAQEhdNVtPSF0pW0NAQEhdKFtDSDNdKVtDQEhdNltPSF0=

>  <s_epik_cmdline>  (418) 
J2VwaWtfcHl0aG9uJywgJy1waHQnLCAnMi4wJywgJy1waCcsICc3LjAnLCAnLXRuJywgJzgnLCAnLW1hJywgJzIwMCcsICctaW1hZScsICc8aW5maWxlLm1hZT4nLCAnLW9tYWUnLCAnPG91dGZpbGUubWFlPic=

>  <r_lp_tautomer_probability>  (418) 
0.99995

>  <r_epik_Ionization_Penalty>  (418) 
0.00306714

>  <r_epik_Ionization_Penalty_Charging>  (418) 
0

>  <r_epik_Ionization_Penalty_Neutral>  (418) 
0.00306714

>  <r_epik_State_Penalty>  (418) 
0.00215435

>  <r_epik_Charging_Adjusted_Penalty>  (418) 
0.00215435

>  <i_epik_Tot_Q>  (418) 
0

>  <i_epik_Tot_abs_Q>  (418) 
0

>  <s_lp_Force_Field>  (418) 
OPLS3e

>  <r_lp_Energy>  (418) 
222.393

>  <b_lp_Chiralities_Consistent>  (418) 
1

>  <s_lp_Variant>  (418) 
108:0-4

>  <s_i_glide_gridfile>  (418) 
pfpi4k_grid

>  <i_i_glide_lignum>  (418) 
24

>  <i_i_glide_rotatable_bonds>  (418) 
7

>  <r_i_docking_score>  (418) 
-2.86608

>  <r_i_glide_ligand_efficiency>  (418) 
-0.0774617

>  <r_i_glide_ligand_efficiency_sa>  (418) 
-0.258119

>  <r_i_glide_ligand_efficiency_ln>  (418) 
-0.621586

>  <r_i_glide_gscore>  (418) 
-2.86608

>  <r_i_glide_lipo>  (418) 
-0.711273

>  <r_i_glide_hbond>  (418) 
-0.297078

>  <r_i_glide_metal>  (418) 
-0

>  <r_i_glide_rewards>  (418) 
-4.25022e-05

>  <r_i_glide_evdw>  (418) 
-23.1877

>  <r_i_glide_ecoul>  (418) 
-4.52304

>  <r_i_glide_erotb>  (418) 
0

>  <r_i_glide_esite>  (418) 
-0.0198469

>  <r_i_glide_emodel>  (418) 
-31.7844

>  <r_i_glide_energy>  (418) 
-27.7107

>  <r_i_glide_einternal>  (418) 
2.20389

>  <r_i_glide_intrahb_reward>  (418) 
-0

>  <i_i_glide_confnum>  (418) 
2

>  <i_i_glide_posenum>  (418) 
4

>  <r_i_glide_eff_state_penalty>  (418) 
0

>  <ligand_id>  (418) 
108

>  <original_smiles>  (418) 
CC1=C2C(=O)C(O)C3OC34C(O)C3(C)C(C)C(O)C3C(C)CC2(O)C(O)C4(C)C2(O)C(O)CCC(=O)C12

>  <smiles>  (418) 
[H]OC1([H])C(=O)C2=C(C([H])([H])[H])C3([H])C(=O)C([H])([H])C([H])([H])C([H])(O[H])C3(O[H])C3(C([H])([H])[H])C([H])(O[H])C2(O[H])C([H])([H])C([H])(C([H])([H])[H])C2([H])C([H])(O[H])C([H])(C([H])([H])[H])C2(C([H])([H])[H])C([H])(O[H])C32OC12[H]

$$$$
109:0:0
     RDKit          3D

 56 61  0  0  1  0  0  0  0  0999 V2000
    5.0850   -9.4862    2.1814 C   0  0  0  0  0  0  0  0  0  0  0  0
    4.5915   -8.5807    1.0427 C   0  0  0  0  0  0  0  0  0  0  0  0
    4.6490   -7.0685    1.3357 C   0  0  1  0  0  0  0  0  0  0  0  0
    3.6783   -6.5842    2.4434 C   0  0  0  0  0  0  0  0  0  0  0  0
    2.5277   -7.3735    2.5853 N   0  0  0  0  0  0  0  0  0  0  0  0
    1.3839   -7.1490    3.3593 C   0  0  0  0  0  0  0  0  0  0  0  0
    1.2587   -6.0190    4.2019 C   0  0  0  0  0  0  0  0  0  0  0  0
    0.0661   -5.7420    4.8953 C   0  0  0  0  0  0  0  0  0  0  0  0
   -0.1082   -4.6052    5.6429 O   0  0  0  0  0  0  0  0  0  0  0  0
    0.3854   -3.3930    5.0744 C   0  0  0  0  0  0  0  0  0  0  0  0
   -0.9907   -6.6652    4.8080 C   0  0  0  0  0  0  0  0  0  0  0  0
   -0.8689   -7.8295    4.0215 C   0  0  0  0  0  0  0  0  0  0  0  0
    0.3180   -8.0800    3.2822 C   0  0  0  0  0  0  0  0  0  0  0  0
    0.5090   -9.1754    2.4760 O   0  0  0  0  0  0  0  0  0  0  0  0
   -0.4757  -10.1959    2.4942 C   0  0  0  0  0  0  0  0  0  0  0  0
    3.7027   -5.2276    2.5361 C   0  0  0  0  0  0  0  0  0  0  0  0
    2.7296   -4.6343    1.5445 C   0  0  0  0  0  0  0  0  0  0  0  0
    3.2493   -5.0334    0.1259 C   0  0  1  0  0  0  0  0  0  0  0  0
    3.7727   -3.7600   -0.5232 C   0  0  0  0  0  0  0  0  0  0  0  0
    4.7716   -3.2470    0.3554 O   0  0  0  0  0  0  0  0  0  0  0  0
    5.5594   -4.1908    1.0486 C   0  0  1  0  0  0  0  0  0  0  0  0
    5.0723   -4.4918    2.4874 C   0  0  2  0  0  0  0  0  0  0  0  0
    6.1712   -5.5159    2.7760 C   0  0  0  0  0  0  0  0  0  0  0  0
    6.0230   -6.4012    1.5450 C   0  0  1  0  0  0  0  0  0  0  0  0
    7.1167   -7.2520    1.1766 O   0  0  0  0  0  0  0  0  0  0  0  0
    8.3425   -6.6318    0.8245 C   0  0  0  0  0  0  0  0  0  0  0  0
    5.7094   -5.4782    0.4178 N   0  0  0  0  0  0  0  0  0  0  0  0
    4.3989   -6.1152    0.1273 C   0  0  1  0  0  0  0  0  0  0  0  0
    5.0860  -10.5301    1.8551 H   0  0  0  0  0  0  0  0  0  0  0  0
    4.4430   -9.4149    3.0604 H   0  0  0  0  0  0  0  0  0  0  0  0
    6.1061   -9.2424    2.4832 H   0  0  0  0  0  0  0  0  0  0  0  0
    5.2312   -8.7815    0.1785 H   0  0  0  0  0  0  0  0  0  0  0  0
    3.5997   -8.8918    0.7204 H   0  0  0  0  0  0  0  0  0  0  0  0
    2.0815   -5.3440    4.3209 H   0  0  0  0  0  0  0  0  0  0  0  0
    0.2434   -2.5664    5.7704 H   0  0  0  0  0  0  0  0  0  0  0  0
   -0.1745   -3.1656    4.1661 H   0  0  0  0  0  0  0  0  0  0  0  0
    1.4448   -3.4027    4.8279 H   0  0  0  0  0  0  0  0  0  0  0  0
   -1.9136   -6.4656    5.3189 H   0  0  0  0  0  0  0  0  0  0  0  0
   -1.7063   -8.5057    3.9854 H   0  0  0  0  0  0  0  0  0  0  0  0
   -0.1843  -10.9997    1.8165 H   0  0  0  0  0  0  0  0  0  0  0  0
   -1.4510   -9.8330    2.1661 H   0  0  0  0  0  0  0  0  0  0  0  0
   -0.5569  -10.6208    3.4956 H   0  0  0  0  0  0  0  0  0  0  0  0
    2.6405   -3.5549    1.6974 H   0  0  0  0  0  0  0  0  0  0  0  0
    1.7273   -5.0366    1.6846 H   0  0  0  0  0  0  0  0  0  0  0  0
    2.3925   -5.4044   -0.4450 H   0  0  0  0  0  0  0  0  0  0  0  0
    4.1871   -3.9727   -1.5063 H   0  0  0  0  0  0  0  0  0  0  0  0
    2.9841   -3.0208   -0.6526 H   0  0  0  0  0  0  0  0  0  0  0  0
    6.5475   -3.7275    1.1024 H   0  0  0  0  0  0  0  0  0  0  0  0
    5.0983   -3.5961    3.1048 H   0  0  0  0  0  0  0  0  0  0  0  0
    7.1625   -5.0620    2.8385 H   0  0  0  0  0  0  0  0  0  0  0  0
    6.0139   -6.0561    3.7154 H   0  0  0  0  0  0  0  0  0  0  0  0
    9.0047   -7.4083    0.4500 H   0  0  0  0  0  0  0  0  0  0  0  0
    8.8260   -6.1434    1.6699 H   0  0  0  0  0  0  0  0  0  0  0  0
    8.2322   -5.9142    0.0153 H   0  0  0  0  0  0  0  0  0  0  0  0
    4.5369   -6.6403   -0.8240 H   0  0  0  0  0  0  0  0  0  0  0  0
    2.5552   -8.2804    2.1288 H   0  0  0  0  0  0  0  0  0  0  0  0
  1  2  1  0
  1 29  1  0
  1 30  1  0
  1 31  1  0
  3  2  1  6
  2 32  1  0
  2 33  1  0
  3 24  1  0
  3 28  1  0
  3  4  1  0
  4  5  1  0
  4 16  2  0
  5  6  1  0
  5 56  1  0
  6 13  1  0
  6  7  2  0
  7  8  1  0
  7 34  1  0
  8  9  1  0
  8 11  2  0
  9 10  1  0
 10 35  1  0
 10 36  1  0
 10 37  1  0
 11 12  1  0
 11 38  1  0
 12 13  2  0
 12 39  1  0
 13 14  1  0
 14 15  1  0
 15 40  1  0
 15 41  1  0
 15 42  1  0
 16 22  1  0
 16 17  1  0
 17 18  1  0
 17 43  1  0
 17 44  1  0
 18 28  1  0
 18 19  1  0
 18 45  1  6
 19 20  1  0
 19 46  1  0
 19 47  1  0
 20 21  1  0
 21 27  1  0
 21 22  1  0
 21 48  1  1
 22 23  1  0
 22 49  1  1
 23 24  1  0
 23 50  1  0
 23 51  1  0
 24 25  1  6
 24 27  1  0
 25 26  1  0
 26 52  1  0
 26 53  1  0
 26 54  1  0
 27 28  1  0
 28 55  1  6
M  END
>  <i_m_ct_stereo_status>  (419) 
1

>  <s_m_source_file>  (419) 
/var/tmp/pbs.5076255.sched01/tmp1cu33jom/138ve8n868x.sdf

>  <i_m_source_file_index>  (419) 
25

>  <i_lp_mmshare_version>  (419) 
48012

>  <i_f3d_flags>  (419) 
0

>  <s_epik_input>  (419) 
W0NIM11bQ0gyXVtDQF0xMltDQEBdMyhPW0NIM10pTjRbQ0BASF01W0NASF0oW0NIMl0zKVtDQEBIXShbQ0gyXVtDQEBIXShbQ0gyXU81KVtDQEhdMjQpQ1wxPU4vYzZbY0hdYyhPW0NIM10pW2NIXVtjSF1jNk9bQ0gzXQ==

>  <s_epik_cmdline>  (419) 
J2VwaWtfcHl0aG9uJywgJy1waHQnLCAnMi4wJywgJy1waCcsICc3LjAnLCAnLXRuJywgJzgnLCAnLW1hJywgJzIwMCcsICctaW1hZScsICc8aW5maWxlLm1hZT4nLCAnLW9tYWUnLCAnPG91dGZpbGUubWFlPic=

>  <r_lp_tautomer_probability>  (419) 
1

>  <r_epik_Ionization_Penalty>  (419) 
1.3729

>  <r_epik_Ionization_Penalty_Charging>  (419) 
1.06318

>  <r_epik_Ionization_Penalty_Neutral>  (419) 
0.309722

>  <r_epik_State_Penalty>  (419) 
-0

>  <r_epik_Charging_Adjusted_Penalty>  (419) 
1.06318

>  <i_epik_Tot_Q>  (419) 
0

>  <i_epik_Tot_abs_Q>  (419) 
0

>  <s_epik_Chemistry_Notes>  (419) 
This compound has an imine and may undergo hydrolysis. This compound contains an acetal/aminal-like group ( X-CH(R)-Y where X, Y are N, S, or O) that may be acid/base labile, releasing an aldehyde.

>  <s_lp_Force_Field>  (419) 
OPLS3e

>  <r_lp_Energy>  (419) 
117.295

>  <b_lp_Chiralities_Consistent>  (419) 
1

>  <s_lp_Variant>  (419) 
109:0-1

>  <s_i_glide_gridfile>  (419) 
pfpi4k_grid

>  <i_i_glide_lignum>  (419) 
25

>  <i_i_glide_rotatable_bonds>  (419) 
6

>  <r_i_docking_score>  (419) 
-2.46318

>  <r_i_glide_ligand_efficiency>  (419) 
-0.0879707

>  <r_i_glide_ligand_efficiency_sa>  (419) 
-0.267131

>  <r_i_glide_ligand_efficiency_ln>  (419) 
-0.568574

>  <r_i_glide_gscore>  (419) 
-2.46318

>  <r_i_glide_lipo>  (419) 
-0.258639

>  <r_i_glide_hbond>  (419) 
0

>  <r_i_glide_metal>  (419) 
-0

>  <r_i_glide_rewards>  (419) 
-0.987254

>  <r_i_glide_evdw>  (419) 
-23.5591

>  <r_i_glide_ecoul>  (419) 
-1.97888

>  <r_i_glide_erotb>  (419) 
0.263069

>  <r_i_glide_esite>  (419) 
-0.00557019

>  <r_i_glide_emodel>  (419) 
-28.4218

>  <r_i_glide_energy>  (419) 
-25.538

>  <r_i_glide_einternal>  (419) 
1.42356

>  <r_i_glide_intrahb_reward>  (419) 
-0

>  <i_i_glide_confnum>  (419) 
5

>  <i_i_glide_posenum>  (419) 
2

>  <r_i_glide_eff_state_penalty>  (419) 
0

>  <ligand_id>  (419) 
109

>  <original_smiles>  (419) 
CCC12C(=Nc3cc(OC)ccc3OC)C3CC4COC5C3CC1(OC)N5C42

>  <smiles>  (419) 
[H]c1c([H])c(OC([H])([H])[H])c(N([H])C2=C3C([H])([H])C4([H])C([H])([H])OC5([H])N6C4([H])C2(C([H])([H])C([H])([H])[H])C6(OC([H])([H])[H])C([H])([H])C35[H])c([H])c1OC([H])([H])[H]

$$$$
109:0:1
     RDKit          3D

 56 61  0  0  1  0  0  0  0  0999 V2000
    4.6878   -9.5988    2.2078 C   0  0  0  0  0  0  0  0  0  0  0  0
    4.2360   -8.6293    1.1057 C   0  0  0  0  0  0  0  0  0  0  0  0
    4.4695   -7.1353    1.4209 C   0  0  1  0  0  0  0  0  0  0  0  0
    3.6022   -6.5458    2.5535 C   0  0  0  0  0  0  0  0  0  0  0  0
    2.3692   -7.1833    2.7090 N   0  0  0  0  0  0  0  0  0  0  0  0
    1.3217   -6.8748    3.5906 C   0  0  0  0  0  0  0  0  0  0  0  0
    1.4373   -5.8818    4.5982 C   0  0  0  0  0  0  0  0  0  0  0  0
    0.3408   -5.5553    5.4151 C   0  0  0  0  0  0  0  0  0  0  0  0
    0.4874   -4.5481    6.3398 O   0  0  0  0  0  0  0  0  0  0  0  0
   -0.6158   -3.6607    6.4768 C   0  0  0  0  0  0  0  0  0  0  0  0
   -0.8589   -6.2686    5.2637 C   0  0  0  0  0  0  0  0  0  0  0  0
   -0.9766   -7.2769    4.2976 C   0  0  0  0  0  0  0  0  0  0  0  0
    0.1099   -7.5911    3.4514 C   0  0  0  0  0  0  0  0  0  0  0  0
    0.0483   -8.5582    2.4686 O   0  0  0  0  0  0  0  0  0  0  0  0
   -1.0199   -9.4958    2.5174 C   0  0  0  0  0  0  0  0  0  0  0  0
    3.7807   -5.2010    2.6582 C   0  0  0  0  0  0  0  0  0  0  0  0
    2.8610   -4.4944    1.6884 C   0  0  0  0  0  0  0  0  0  0  0  0
    3.2992   -4.9393    0.2487 C   0  0  1  0  0  0  0  0  0  0  0  0
    3.9591   -3.7317   -0.4052 C   0  0  0  0  0  0  0  0  0  0  0  0
    5.0383   -3.3465    0.4468 O   0  0  0  0  0  0  0  0  0  0  0  0
    5.7193   -4.3853    1.1200 C   0  0  1  0  0  0  0  0  0  0  0  0
    5.2310   -4.6356    2.5692 C   0  0  2  0  0  0  0  0  0  0  0  0
    6.2117   -5.7829    2.8292 C   0  0  0  0  0  0  0  0  0  0  0  0
    5.9267   -6.6371    1.5910 C   0  0  1  0  0  0  0  0  0  0  0  0
    6.9017   -7.6093    1.2297 O   0  0  0  0  0  0  0  0  0  0  0  0
    8.1971   -7.1460    0.8717 C   0  0  0  0  0  0  0  0  0  0  0  0
    5.7034   -5.6789    0.4813 N   0  0  0  0  0  0  0  0  0  0  0  0
    4.3234   -6.1515    0.2214 C   0  0  1  0  0  0  0  0  0  0  0  0
    4.5502  -10.6310    1.8848 H   0  0  0  0  0  0  0  0  0  0  0  0
    4.1105   -9.4602    3.1225 H   0  0  0  0  0  0  0  0  0  0  0  0
    5.7452   -9.4814    2.4458 H   0  0  0  0  0  0  0  0  0  0  0  0
    4.7892   -8.8852    0.1985 H   0  0  0  0  0  0  0  0  0  0  0  0
    3.1937   -8.8238    0.8540 H   0  0  0  0  0  0  0  0  0  0  0  0
    2.3556   -5.3345    4.7468 H   0  0  0  0  0  0  0  0  0  0  0  0
   -0.4014   -2.9081    7.2367 H   0  0  0  0  0  0  0  0  0  0  0  0
   -1.5430   -4.1493    6.7771 H   0  0  0  0  0  0  0  0  0  0  0  0
   -0.7817   -3.1477    5.5284 H   0  0  0  0  0  0  0  0  0  0  0  0
   -1.7155   -6.0644    5.8798 H   0  0  0  0  0  0  0  0  0  0  0  0
   -1.9205   -7.7904    4.2218 H   0  0  0  0  0  0  0  0  0  0  0  0
   -0.9280  -10.2033    1.6952 H   0  0  0  0  0  0  0  0  0  0  0  0
   -2.0019   -9.0299    2.4251 H   0  0  0  0  0  0  0  0  0  0  0  0
   -0.9773  -10.0679    3.4432 H   0  0  0  0  0  0  0  0  0  0  0  0
    2.9123   -3.4130    1.8453 H   0  0  0  0  0  0  0  0  0  0  0  0
    1.8238   -4.7722    1.8657 H   0  0  0  0  0  0  0  0  0  0  0  0
    2.4058   -5.1998   -0.3191 H   0  0  0  0  0  0  0  0  0  0  0  0
    4.3207   -3.9805   -1.4015 H   0  0  0  0  0  0  0  0  0  0  0  0
    3.2672   -2.8975   -0.5096 H   0  0  0  0  0  0  0  0  0  0  0  0
    6.7562   -4.0473    1.1496 H   0  0  0  0  0  0  0  0  0  0  0  0
    5.3848   -3.7555    3.1921 H   0  0  0  0  0  0  0  0  0  0  0  0
    7.2442   -5.4341    2.8654 H   0  0  0  0  0  0  0  0  0  0  0  0
    6.0134   -6.3179    3.7610 H   0  0  0  0  0  0  0  0  0  0  0  0
    8.7308   -8.0055    0.4757 H   0  0  0  0  0  0  0  0  0  0  0  0
    8.7418   -6.7479    1.7271 H   0  0  0  0  0  0  0  0  0  0  0  0
    8.1790   -6.3959    0.0794 H   0  0  0  0  0  0  0  0  0  0  0  0
    4.3535   -6.6737   -0.7341 H   0  0  0  0  0  0  0  0  0  0  0  0
    2.2329   -8.0385    2.1855 H   0  0  0  0  0  0  0  0  0  0  0  0
  1  2  1  0
  1 29  1  0
  1 30  1  0
  1 31  1  0
  3  2  1  6
  2 32  1  0
  2 33  1  0
  3 24  1  0
  3 28  1  0
  3  4  1  0
  4  5  1  0
  4 16  2  0
  5  6  1  0
  5 56  1  0
  6 13  1  0
  6  7  2  0
  7  8  1  0
  7 34  1  0
  8  9  1  0
  8 11  2  0
  9 10  1  0
 10 35  1  0
 10 36  1  0
 10 37  1  0
 11 12  1  0
 11 38  1  0
 12 13  2  0
 12 39  1  0
 13 14  1  0
 14 15  1  0
 15 40  1  0
 15 41  1  0
 15 42  1  0
 16 22  1  0
 16 17  1  0
 17 18  1  0
 17 43  1  0
 17 44  1  0
 18 28  1  0
 18 19  1  0
 18 45  1  6
 19 20  1  0
 19 46  1  0
 19 47  1  0
 20 21  1  0
 21 27  1  0
 21 22  1  0
 21 48  1  1
 22 23  1  0
 22 49  1  1
 23 24  1  0
 23 50  1  0
 23 51  1  0
 24 25  1  6
 24 27  1  0
 25 26  1  0
 26 52  1  0
 26 53  1  0
 26 54  1  0
 27 28  1  0
 28 55  1  6
M  END
>  <i_m_ct_stereo_status>  (420) 
1

>  <s_m_source_file>  (420) 
/var/tmp/pbs.5076255.sched01/tmp1cu33jom/138ve8n868x.sdf

>  <i_m_source_file_index>  (420) 
25

>  <i_lp_mmshare_version>  (420) 
48012

>  <i_f3d_flags>  (420) 
0

>  <s_epik_input>  (420) 
W0NIM11bQ0gyXVtDQF0xMltDQEBdMyhPW0NIM10pTjRbQ0BASF01W0NASF0oW0NIMl0zKVtDQEBIXShbQ0gyXVtDQEBIXShbQ0gyXU81KVtDQEhdMjQpQ1wxPU4vYzZbY0hdYyhPW0NIM10pW2NIXVtjSF1jNk9bQ0gzXQ==

>  <s_epik_cmdline>  (420) 
J2VwaWtfcHl0aG9uJywgJy1waHQnLCAnMi4wJywgJy1waCcsICc3LjAnLCAnLXRuJywgJzgnLCAnLW1hJywgJzIwMCcsICctaW1hZScsICc8aW5maWxlLm1hZT4nLCAnLW9tYWUnLCAnPG91dGZpbGUubWFlPic=

>  <r_lp_tautomer_probability>  (420) 
1

>  <r_epik_Ionization_Penalty>  (420) 
1.3729

>  <r_epik_Ionization_Penalty_Charging>  (420) 
1.06318

>  <r_epik_Ionization_Penalty_Neutral>  (420) 
0.309722

>  <r_epik_State_Penalty>  (420) 
-0

>  <r_epik_Charging_Adjusted_Penalty>  (420) 
1.06318

>  <i_epik_Tot_Q>  (420) 
0

>  <i_epik_Tot_abs_Q>  (420) 
0

>  <s_epik_Chemistry_Notes>  (420) 
This compound has an imine and may undergo hydrolysis. This compound contains an acetal/aminal-like group ( X-CH(R)-Y where X, Y are N, S, or O) that may be acid/base labile, releasing an aldehyde.

>  <s_lp_Force_Field>  (420) 
OPLS3e

>  <r_lp_Energy>  (420) 
117.295

>  <b_lp_Chiralities_Consistent>  (420) 
1

>  <s_lp_Variant>  (420) 
109:0-1

>  <s_i_glide_gridfile>  (420) 
pfpi4k_grid

>  <i_i_glide_lignum>  (420) 
25

>  <i_i_glide_rotatable_bonds>  (420) 
6

>  <r_i_docking_score>  (420) 
-2.43294

>  <r_i_glide_ligand_efficiency>  (420) 
-0.0868906

>  <r_i_glide_ligand_efficiency_sa>  (420) 
-0.263851

>  <r_i_glide_ligand_efficiency_ln>  (420) 
-0.561594

>  <r_i_glide_gscore>  (420) 
-2.43294

>  <r_i_glide_lipo>  (420) 
-0.372449

>  <r_i_glide_hbond>  (420) 
0

>  <r_i_glide_metal>  (420) 
-0

>  <r_i_glide_rewards>  (420) 
-0.991602

>  <r_i_glide_evdw>  (420) 
-23.0333

>  <r_i_glide_ecoul>  (420) 
-1.16005

>  <r_i_glide_erotb>  (420) 
0.263069

>  <r_i_glide_esite>  (420) 
-0.00628665

>  <r_i_glide_emodel>  (420) 
-27.143

>  <r_i_glide_energy>  (420) 
-24.1933

>  <r_i_glide_einternal>  (420) 
1.31895

>  <r_i_glide_intrahb_reward>  (420) 
-0

>  <i_i_glide_confnum>  (420) 
4

>  <i_i_glide_posenum>  (420) 
5

>  <r_i_glide_eff_state_penalty>  (420) 
0

>  <ligand_id>  (420) 
109

>  <original_smiles>  (420) 
CCC12C(=Nc3cc(OC)ccc3OC)C3CC4COC5C3CC1(OC)N5C42

>  <smiles>  (420) 
[H]c1c([H])c(OC([H])([H])[H])c(N([H])C2=C3C([H])([H])C4([H])C([H])([H])OC5([H])N6C4([H])C2(C([H])([H])C([H])([H])[H])C6(OC([H])([H])[H])C([H])([H])C35[H])c([H])c1OC([H])([H])[H]

$$$$
109:0:2
     RDKit          3D

 56 61  0  0  1  0  0  0  0  0999 V2000
    3.5515    3.6972    4.9181 C   0  0  0  0  0  0  0  0  0  0  0  0
    2.3521    3.8827    3.9758 C   0  0  0  0  0  0  0  0  0  0  0  0
    1.0020    3.3984    4.5372 C   0  0  1  0  0  0  0  0  0  0  0  0
    0.9048    1.8519    4.7419 C   0  0  0  0  0  0  0  0  0  0  0  0
    1.7208    1.1002    3.8821 N   0  0  0  0  0  0  0  0  0  0  0  0
    1.7941   -0.2829    3.7031 C   0  0  0  0  0  0  0  0  0  0  0  0
    1.0381   -1.2123    4.4744 C   0  0  0  0  0  0  0  0  0  0  0  0
    1.1189   -2.6067    4.2344 C   0  0  0  0  0  0  0  0  0  0  0  0
    0.3364   -3.4353    5.0017 O   0  0  0  0  0  0  0  0  0  0  0  0
    0.4716   -4.8403    4.7924 C   0  0  0  0  0  0  0  0  0  0  0  0
    1.9944   -3.0600    3.2190 C   0  0  0  0  0  0  0  0  0  0  0  0
    2.7535   -2.1586    2.4712 C   0  0  0  0  0  0  0  0  0  0  0  0
    2.6699   -0.7663    2.6939 C   0  0  0  0  0  0  0  0  0  0  0  0
    3.4060    0.1511    1.9816 O   0  0  0  0  0  0  0  0  0  0  0  0
    4.2381   -0.3438    0.9414 C   0  0  0  0  0  0  0  0  0  0  0  0
   -0.3535    1.4932    5.0936 C   0  0  0  0  0  0  0  0  0  0  0  0
   -1.1974    1.3112    3.8533 C   0  0  0  0  0  0  0  0  0  0  0  0
   -1.2678    2.7100    3.1548 C   0  0  1  0  0  0  0  0  0  0  0  0
   -2.6897    3.2187    3.3355 C   0  0  0  0  0  0  0  0  0  0  0  0
   -2.9228    3.2508    4.7399 O   0  0  0  0  0  0  0  0  0  0  0  0
   -1.8321    3.5770    5.5650 C   0  0  1  0  0  0  0  0  0  0  0  0
   -1.0972    2.3499    6.1578 C   0  0  2  0  0  0  0  0  0  0  0  0
   -0.0640    3.1858    6.9036 C   0  0  0  0  0  0  0  0  0  0  0  0
    0.4049    4.0929    5.7761 C   0  0  1  0  0  0  0  0  0  0  0  0
    1.0629    5.3412    6.0875 O   0  0  0  0  0  0  0  0  0  0  0  0
    0.4285    6.1773    7.0416 C   0  0  0  0  0  0  0  0  0  0  0  0
   -0.8155    4.4043    4.9657 N   0  0  0  0  0  0  0  0  0  0  0  0
   -0.2699    3.7800    3.7213 C   0  0  1  0  0  0  0  0  0  0  0  0
    4.4398    4.1560    4.4821 H   0  0  0  0  0  0  0  0  0  0  0  0
    3.7692    2.6419    5.0921 H   0  0  0  0  0  0  0  0  0  0  0  0
    3.3881    4.1768    5.8862 H   0  0  0  0  0  0  0  0  0  0  0  0
    2.2662    4.9620    3.7789 H   0  0  0  0  0  0  0  0  0  0  0  0
    2.5639    3.4500    2.9997 H   0  0  0  0  0  0  0  0  0  0  0  0
    0.3847   -0.8879    5.2604 H   0  0  0  0  0  0  0  0  0  0  0  0
   -0.1649   -5.4256    5.4394 H   0  0  0  0  0  0  0  0  0  0  0  0
    1.5073   -5.1464    4.9780 H   0  0  0  0  0  0  0  0  0  0  0  0
    0.2118   -5.0940    3.7584 H   0  0  0  0  0  0  0  0  0  0  0  0
    2.1222   -4.0995    2.9748 H   0  0  0  0  0  0  0  0  0  0  0  0
    3.3938   -2.5766    1.7223 H   0  0  0  0  0  0  0  0  0  0  0  0
    4.7567    0.4937    0.4788 H   0  0  0  0  0  0  0  0  0  0  0  0
    3.6579   -0.8500    0.1681 H   0  0  0  0  0  0  0  0  0  0  0  0
    5.0006   -1.0270    1.3176 H   0  0  0  0  0  0  0  0  0  0  0  0
   -2.1755    0.9046    4.1211 H   0  0  0  0  0  0  0  0  0  0  0  0
   -0.7544    0.5818    3.1707 H   0  0  0  0  0  0  0  0  0  0  0  0
   -1.0714    2.5620    2.0839 H   0  0  0  0  0  0  0  0  0  0  0  0
   -2.8007    4.2078    2.8969 H   0  0  0  0  0  0  0  0  0  0  0  0
   -3.4162    2.5687    2.8571 H   0  0  0  0  0  0  0  0  0  0  0  0
   -2.2770    4.1412    6.3913 H   0  0  0  0  0  0  0  0  0  0  0  0
   -1.7602    1.7642    6.7856 H   0  0  0  0  0  0  0  0  0  0  0  0
   -0.5272    3.7230    7.7401 H   0  0  0  0  0  0  0  0  0  0  0  0
    0.7480    2.5827    7.3331 H   0  0  0  0  0  0  0  0  0  0  0  0
    1.0009    7.1021    7.1187 H   0  0  0  0  0  0  0  0  0  0  0  0
    0.4060    5.7343    8.0374 H   0  0  0  0  0  0  0  0  0  0  0  0
   -0.5876    6.4343    6.7448 H   0  0  0  0  0  0  0  0  0  0  0  0
   -0.0662    4.6226    3.0419 H   0  0  0  0  0  0  0  0  0  0  0  0
    2.3859    1.6310    3.3335 H   0  0  0  0  0  0  0  0  0  0  0  0
  1  2  1  0
  1 29  1  0
  1 30  1  0
  1 31  1  0
  3  2  1  6
  2 32  1  0
  2 33  1  0
  3 24  1  0
  3 28  1  0
  3  4  1  0
  4  5  1  0
  4 16  2  0
  5  6  1  0
  5 56  1  0
  6 13  1  0
  6  7  2  0
  7  8  1  0
  7 34  1  0
  8  9  1  0
  8 11  2  0
  9 10  1  0
 10 35  1  0
 10 36  1  0
 10 37  1  0
 11 12  1  0
 11 38  1  0
 12 13  2  0
 12 39  1  0
 13 14  1  0
 14 15  1  0
 15 40  1  0
 15 41  1  0
 15 42  1  0
 16 22  1  0
 16 17  1  0
 17 18  1  0
 17 43  1  0
 17 44  1  0
 18 28  1  0
 18 19  1  0
 18 45  1  6
 19 20  1  0
 19 46  1  0
 19 47  1  0
 20 21  1  0
 21 27  1  0
 21 22  1  0
 21 48  1  1
 22 23  1  0
 22 49  1  1
 23 24  1  0
 23 50  1  0
 23 51  1  0
 24 25  1  1
 24 27  1  0
 25 26  1  0
 26 52  1  0
 26 53  1  0
 26 54  1  0
 27 28  1  0
 28 55  1  6
M  END
>  <i_m_ct_stereo_status>  (421) 
1

>  <s_m_source_file>  (421) 
/var/tmp/pbs.5076255.sched01/tmp1cu33jom/138ve8n868x.sdf

>  <i_m_source_file_index>  (421) 
25

>  <i_lp_mmshare_version>  (421) 
48012

>  <i_f3d_flags>  (421) 
0

>  <s_epik_input>  (421) 
W0NIM11bQ0gyXVtDQF0xMltDQEBdMyhPW0NIM10pTjRbQ0BASF01W0NASF0oW0NIMl0zKVtDQEBIXShbQ0gyXVtDQEBIXShbQ0gyXU81KVtDQEhdMjQpQ1wxPU4vYzZbY0hdYyhPW0NIM10pW2NIXVtjSF1jNk9bQ0gzXQ==

>  <s_epik_cmdline>  (421) 
J2VwaWtfcHl0aG9uJywgJy1waHQnLCAnMi4wJywgJy1waCcsICc3LjAnLCAnLXRuJywgJzgnLCAnLW1hJywgJzIwMCcsICctaW1hZScsICc8aW5maWxlLm1hZT4nLCAnLW9tYWUnLCAnPG91dGZpbGUubWFlPic=

>  <r_lp_tautomer_probability>  (421) 
1

>  <r_epik_Ionization_Penalty>  (421) 
1.3729

>  <r_epik_Ionization_Penalty_Charging>  (421) 
1.06318

>  <r_epik_Ionization_Penalty_Neutral>  (421) 
0.309722

>  <r_epik_State_Penalty>  (421) 
-0

>  <r_epik_Charging_Adjusted_Penalty>  (421) 
1.06318

>  <i_epik_Tot_Q>  (421) 
0

>  <i_epik_Tot_abs_Q>  (421) 
0

>  <s_epik_Chemistry_Notes>  (421) 
This compound has an imine and may undergo hydrolysis. This compound contains an acetal/aminal-like group ( X-CH(R)-Y where X, Y are N, S, or O) that may be acid/base labile, releasing an aldehyde.

>  <s_lp_Force_Field>  (421) 
OPLS3e

>  <r_lp_Energy>  (421) 
117.295

>  <b_lp_Chiralities_Consistent>  (421) 
1

>  <s_lp_Variant>  (421) 
109:0-1

>  <s_i_glide_gridfile>  (421) 
pfpi4k_grid

>  <i_i_glide_lignum>  (421) 
25

>  <i_i_glide_rotatable_bonds>  (421) 
6

>  <r_i_docking_score>  (421) 
-2.01254

>  <r_i_glide_ligand_efficiency>  (421) 
-0.0718763

>  <r_i_glide_ligand_efficiency_sa>  (421) 
-0.218259

>  <r_i_glide_ligand_efficiency_ln>  (421) 
-0.464553

>  <r_i_glide_gscore>  (421) 
-2.01254

>  <r_i_glide_lipo>  (421) 
-0.151158

>  <r_i_glide_hbond>  (421) 
0

>  <r_i_glide_metal>  (421) 
-0

>  <r_i_glide_rewards>  (421) 
-0.787713

>  <r_i_glide_evdw>  (421) 
-22.1629

>  <r_i_glide_ecoul>  (421) 
-1.37

>  <r_i_glide_erotb>  (421) 
0.263069

>  <r_i_glide_esite>  (421) 
-0.0230872

>  <r_i_glide_emodel>  (421) 
-26.5004

>  <r_i_glide_energy>  (421) 
-23.5329

>  <r_i_glide_einternal>  (421) 
0.0843068

>  <r_i_glide_intrahb_reward>  (421) 
-0

>  <i_i_glide_confnum>  (421) 
5

>  <i_i_glide_posenum>  (421) 
26

>  <r_i_glide_eff_state_penalty>  (421) 
0

>  <ligand_id>  (421) 
109

>  <original_smiles>  (421) 
CCC12C(=Nc3cc(OC)ccc3OC)C3CC4COC5C3CC1(OC)N5C42

>  <smiles>  (421) 
[H]c1c([H])c(OC([H])([H])[H])c(N([H])C2=C3C([H])([H])C4([H])C([H])([H])OC5([H])N6C4([H])C2(C([H])([H])C([H])([H])[H])C6(OC([H])([H])[H])C([H])([H])C35[H])c([H])c1OC([H])([H])[H]

$$$$
110:0:0
     RDKit          3D

 65 70  0  0  1  0  0  0  0  0999 V2000
    3.7710   -4.4729   -0.3848 C   0  0  0  0  0  0  0  0  0  0  0  0
    4.6487   -4.5343    0.8945 C   0  0  2  0  0  0  0  0  0  0  0  0
    5.3902   -5.8718    1.0416 C   0  0  0  0  0  0  0  0  0  0  0  0
    4.4418   -7.0668    1.1643 C   0  0  0  0  0  0  0  0  0  0  0  0
    3.1526   -6.8283    2.0076 C   0  0  2  0  0  0  0  0  0  0  0  0
    3.3216   -5.5501    3.0087 C   0  0  2  0  0  0  0  0  0  0  0  0
    2.1084   -5.0625    3.9669 C   0  0  0  0  0  0  0  0  0  0  0  0
    1.6882   -5.6548    5.3977 C   0  0  0  0  0  0  0  0  0  0  0  0
    1.5682   -7.1946    5.7163 C   0  0  1  0  0  0  0  0  0  0  0  0
    0.1867   -7.8286    6.0256 C   0  0  0  0  0  0  0  0  0  0  0  0
   -0.3431   -8.9255    5.0435 C   0  0  1  0  0  0  0  0  0  0  0  0
   -1.6470   -8.6455    4.6183 O   0  0  0  0  0  0  0  0  0  0  0  0
    0.4627   -9.3037    3.7773 C   0  0  0  0  0  0  0  0  0  0  0  0
    1.3401   -8.1051    3.3599 C   0  0  1  0  0  0  0  0  0  0  0  0
    0.2767   -7.0954    2.8250 C   0  0  0  0  0  0  0  0  0  0  0  0
    2.2372   -7.8925    4.6000 C   0  0  2  0  0  0  0  0  0  0  0  0
    3.1592   -9.0921    4.7181 C   0  0  0  0  0  0  0  0  0  0  0  0
    3.4636   -9.2629    3.2163 C   0  0  0  0  0  0  0  0  0  0  0  0
    2.5366   -8.2625    2.4205 C   0  0  2  0  0  0  0  0  0  0  0  0
    3.7563   -4.2934    2.1656 C   0  0  1  0  0  0  0  0  0  0  0  0
    4.4557   -3.1991    2.9993 C   0  0  0  0  0  0  0  0  0  0  0  0
    5.5335   -2.6794    2.0919 C   0  0  0  0  0  0  0  0  0  0  0  0
    5.6508   -3.3841    0.9685 C   0  0  0  0  0  0  0  0  0  0  0  0
    6.6466   -3.0636    0.0107 N   0  0  0  0  0  0  0  0  0  0  0  0
    7.7732   -2.2936    0.2658 C   0  0  0  0  0  0  0  0  0  0  0  0
    8.4781   -2.3013   -0.9028 C   0  0  0  0  0  0  0  0  0  0  0  0
    7.7213   -2.9520   -1.8507 N   0  0  0  0  0  0  0  0  0  0  0  0
    6.6190   -3.4459   -1.2897 C   0  0  0  0  0  0  0  0  0  0  0  0
    2.8822   -5.1133   -0.2619 H   0  0  0  0  0  0  0  0  0  0  0  0
    4.3052   -4.8374   -1.2457 H   0  0  0  0  0  0  0  0  0  0  0  0
    3.4257   -3.4341   -0.5370 H   0  0  0  0  0  0  0  0  0  0  0  0
    6.0882   -6.0137    0.2151 H   0  0  0  0  0  0  0  0  0  0  0  0
    6.0129   -5.8484    1.9382 H   0  0  0  0  0  0  0  0  0  0  0  0
    4.1373   -7.3316    0.1620 H   0  0  0  0  0  0  0  0  0  0  0  0
    5.0322   -7.9259    1.4943 H   0  0  0  0  0  0  0  0  0  0  0  0
    2.4468   -6.4690    1.2490 H   0  0  0  0  0  0  0  0  0  0  0  0
    4.1848   -5.7686    3.6576 H   0  0  0  0  0  0  0  0  0  0  0  0
    2.3641   -4.0445    4.2530 H   0  0  0  0  0  0  0  0  0  0  0  0
    1.2195   -4.8376    3.3847 H   0  0  0  0  0  0  0  0  0  0  0  0
    2.4281   -5.2734    6.1033 H   0  0  0  0  0  0  0  0  0  0  0  0
    0.7650   -5.1707    5.7077 H   0  0  0  0  0  0  0  0  0  0  0  0
    2.1539   -7.3605    6.6125 H   0  0  0  0  0  0  0  0  0  0  0  0
    0.2458   -8.3059    7.0175 H   0  0  0  0  0  0  0  0  0  0  0  0
   -0.5551   -7.0378    6.1156 H   0  0  0  0  0  0  0  0  0  0  0  0
   -0.4589   -9.8263    5.6391 H   0  0  0  0  0  0  0  0  0  0  0  0
   -2.1186   -9.4469    4.8362 H   0  0  0  0  0  0  0  0  0  0  0  0
    1.0085  -10.2104    3.9920 H   0  0  0  0  0  0  0  0  0  0  0  0
   -0.2087   -9.6280    2.9780 H   0  0  0  0  0  0  0  0  0  0  0  0
    0.6318   -6.3545    2.1266 H   0  0  0  0  0  0  0  0  0  0  0  0
   -0.2516   -6.5791    3.6241 H   0  0  0  0  0  0  0  0  0  0  0  0
   -0.4915   -7.6165    2.2519 H   0  0  0  0  0  0  0  0  0  0  0  0
    3.0873   -7.2546    4.4981 H   0  0  0  0  0  0  0  0  0  0  0  0
    4.0634   -8.8778    5.2867 H   0  0  0  0  0  0  0  0  0  0  0  0
    2.7090   -9.9763    5.1737 H   0  0  0  0  0  0  0  0  0  0  0  0
    4.5269   -9.1501    3.0337 H   0  0  0  0  0  0  0  0  0  0  0  0
    3.2302  -10.2861    2.9310 H   0  0  0  0  0  0  0  0  0  0  0  0
    2.2104   -8.7702    1.5100 H   0  0  0  0  0  0  0  0  0  0  0  0
    2.8282   -3.8332    1.8073 H   0  0  0  0  0  0  0  0  0  0  0  0
    3.7772   -2.3958    3.2945 H   0  0  0  0  0  0  0  0  0  0  0  0
    4.9164   -3.5841    3.9083 H   0  0  0  0  0  0  0  0  0  0  0  0
    6.1204   -1.8262    2.3855 H   0  0  0  0  0  0  0  0  0  0  0  0
    8.0522   -1.8171    1.2009 H   0  0  0  0  0  0  0  0  0  0  0  0
    9.3987   -1.8608   -1.1537 H   0  0  0  0  0  0  0  0  0  0  0  0
    5.8905   -4.0192   -1.8478 H   0  0  0  0  0  0  0  0  0  0  0  0
    8.0106   -3.0402   -2.8297 H   0  0  0  0  0  0  0  0  0  0  0  0
  2  1  1  6
  1 29  1  0
  1 30  1  0
  1 31  1  0
  2 20  1  0
  2 23  1  0
  2  3  1  0
  3  4  1  0
  3 32  1  0
  3 33  1  0
  4  5  1  0
  4 34  1  0
  4 35  1  0
  5 19  1  0
  5  6  1  0
  5 36  1  6
  6  7  1  0
  6 20  1  0
  6 37  1  1
  7  8  1  0
  7 38  1  0
  7 39  1  0
  8  9  1  0
  8 40  1  0
  8 41  1  0
  9 16  1  0
  9 10  1  0
  9 42  1  1
 10 11  1  0
 10 43  1  0
 10 44  1  0
 11 12  1  0
 11 13  1  0
 11 45  1  1
 12 46  1  0
 13 14  1  0
 13 47  1  0
 13 48  1  0
 14 19  1  0
 14 15  1  6
 14 16  1  0
 15 49  1  0
 15 50  1  0
 15 51  1  0
 16 17  1  0
 16 52  1  6
 17 18  1  0
 17 53  1  0
 17 54  1  0
 18 19  1  0
 18 55  1  0
 18 56  1  0
 19 57  1  6
 20 21  1  0
 20 58  1  6
 21 22  1  0
 21 59  1  0
 21 60  1  0
 22 23  2  0
 22 61  1  0
 23 24  1  0
 24 28  1  0
 24 25  1  0
 25 26  2  0
 25 62  1  0
 26 27  1  0
 26 63  1  0
 27 28  2  0
 27 65  1  0
 28 64  1  0
M  CHG  1  27   1
M  END
>  <i_m_ct_stereo_status>  (422) 
1

>  <s_m_source_file>  (422) 
/var/tmp/pbs.5076255.sched01/tmp1cu33jom/138ve8n868x.sdf

>  <i_m_source_file_index>  (422) 
26

>  <i_lp_mmshare_version>  (422) 
48012

>  <i_f3d_flags>  (422) 
0

>  <s_epik_input>  (422) 
W2NIXTFuW2NIXVtjSF1uMUMyPVtDSF1bQ0gyXVtDQEBIXShbQ0BAXTIzW0NIM10pW0NAQEhdNFtDQEBIXShbQ0gyXVtDSDJdMylbQ0BASF01W0NAXTYoW0NIM10pW0NASF0oW0NIMl1bQ0gyXTUpW0NAQEhdKFtDSDJdW0NIMl00KVtDSDJdW0NAQEhdKFtPSF0pW0NIMl02

>  <s_epik_cmdline>  (422) 
J2VwaWtfcHl0aG9uJywgJy1waHQnLCAnMi4wJywgJy1waCcsICc3LjAnLCAnLXRuJywgJzgnLCAnLW1hJywgJzIwMCcsICctaW1hZScsICc8aW5maWxlLm1hZT4nLCAnLW9tYWUnLCAnPG91dGZpbGUubWFlPic=

>  <r_epik_Ionization_Penalty>  (422) 
0.149303

>  <r_epik_Ionization_Penalty_Charging>  (422) 
0

>  <r_epik_Ionization_Penalty_Neutral>  (422) 
0.149303

>  <r_epik_State_Penalty>  (422) 
0.138592

>  <r_epik_Charging_Adjusted_Penalty>  (422) 
0.138592

>  <i_epik_Tot_Q>  (422) 
1

>  <i_epik_Tot_abs_Q>  (422) 
1

>  <s_lp_Force_Field>  (422) 
OPLS3e

>  <r_lp_Energy>  (422) 
140.822

>  <b_lp_Chiralities_Consistent>  (422) 
1

>  <s_lp_Variant>  (422) 
110:0-1

>  <s_i_glide_gridfile>  (422) 
pfpi4k_grid

>  <i_i_glide_lignum>  (422) 
26

>  <i_i_glide_rotatable_bonds>  (422) 
2

>  <r_i_docking_score>  (422) 
-4.30397

>  <r_i_glide_ligand_efficiency>  (422) 
-0.153713

>  <r_i_glide_ligand_efficiency_sa>  (422) 
-0.466764

>  <r_i_glide_ligand_efficiency_ln>  (422) 
-0.993483

>  <r_i_glide_gscore>  (422) 
-4.30397

>  <r_i_glide_lipo>  (422) 
-0.510645

>  <r_i_glide_hbond>  (422) 
-0.16

>  <r_i_glide_metal>  (422) 
-0

>  <r_i_glide_rewards>  (422) 
-1.11401

>  <r_i_glide_evdw>  (422) 
-14.975

>  <r_i_glide_ecoul>  (422) 
-12.2848

>  <r_i_glide_erotb>  (422) 
0.133329

>  <r_i_glide_esite>  (422) 
-0.061185

>  <r_i_glide_emodel>  (422) 
-35.52

>  <r_i_glide_energy>  (422) 
-27.2597

>  <r_i_glide_einternal>  (422) 
3.26708

>  <r_i_glide_intrahb_reward>  (422) 
-0

>  <i_i_glide_confnum>  (422) 
1

>  <i_i_glide_posenum>  (422) 
3

>  <r_i_glide_eff_state_penalty>  (422) 
0

>  <ligand_id>  (422) 
110

>  <original_smiles>  (422) 
CC12CCC3C(CCC4CC(O)CC5(C)C4CCC35)C1CC=C2n1ccnc1

>  <smiles>  (422) 
[H]OC1([H])C([H])([H])C2([H])C([H])([H])C([H])([H])C3([H])C([H])(C([H])([H])C([H])([H])C4(C([H])([H])[H])C(n5c([H])c([H])[n+]([H])c5[H])=C([H])C([H])([H])C34[H])C3([H])C([H])([H])C([H])([H])C2([H])C3(C([H])([H])[H])C1([H])[H]

$$$$
110:0:1
     RDKit          3D

 65 70  0  0  1  0  0  0  0  0999 V2000
    2.3405   -5.8383    0.6082 C   0  0  0  0  0  0  0  0  0  0  0  0
    3.0618   -4.8669    1.5943 C   0  0  2  0  0  0  0  0  0  0  0  0
    4.4839   -5.3388    1.9648 C   0  0  0  0  0  0  0  0  0  0  0  0
    4.5017   -6.6836    2.6983 C   0  0  0  0  0  0  0  0  0  0  0  0
    3.3804   -6.8925    3.7498 C   0  0  2  0  0  0  0  0  0  0  0  0
    2.7120   -5.4755    4.1981 C   0  0  2  0  0  0  0  0  0  0  0  0
    1.4895   -5.4253    5.2600 C   0  0  0  0  0  0  0  0  0  0  0  0
    1.5787   -5.4815    6.8690 C   0  0  0  0  0  0  0  0  0  0  0  0
    2.4670   -6.5063    7.6854 C   0  0  1  0  0  0  0  0  0  0  0  0
    1.8111   -7.6231    8.5650 C   0  0  0  0  0  0  0  0  0  0  0  0
    2.0725   -9.1407    8.1992 C   0  0  1  0  0  0  0  0  0  0  0  0
    0.8373   -9.8480    8.1543 O   0  0  0  0  0  0  0  0  0  0  0  0
    2.9271   -9.4341    6.9196 C   0  0  0  0  0  0  0  0  0  0  0  0
    2.8380   -8.2601    5.9094 C   0  0  1  0  0  0  0  0  0  0  0  0
    1.3648   -8.3882    5.4010 C   0  0  0  0  0  0  0  0  0  0  0  0
    3.4112   -7.0670    6.6996 C   0  0  2  0  0  0  0  0  0  0  0  0
    4.8979   -7.3182    6.9125 C   0  0  0  0  0  0  0  0  0  0  0  0
    5.2076   -7.9032    5.5198 C   0  0  0  0  0  0  0  0  0  0  0  0
    3.8374   -8.0759    4.7602 C   0  0  2  0  0  0  0  0  0  0  0  0
    2.2247   -4.7002    2.9118 C   0  0  1  0  0  0  0  0  0  0  0  0
    2.0720   -3.1642    3.1254 C   0  0  0  0  0  0  0  0  0  0  0  0
    2.5478   -2.5374    1.8508 C   0  0  0  0  0  0  0  0  0  0  0  0
    3.1069   -3.4463    1.0252 C   0  0  0  0  0  0  0  0  0  0  0  0
    3.6391   -3.1326   -0.2609 N   0  0  0  0  0  0  0  0  0  0  0  0
    4.3737   -3.9443   -1.1054 C   0  0  0  0  0  0  0  0  0  0  0  0
    4.6066   -3.2317   -2.2390 C   0  0  0  0  0  0  0  0  0  0  0  0
    4.0443   -1.9916   -2.0473 N   0  0  0  0  0  0  0  0  0  0  0  0
    3.4654   -1.9419   -0.8392 C   0  0  0  0  0  0  0  0  0  0  0  0
    2.1667   -6.8112    1.0681 H   0  0  0  0  0  0  0  0  0  0  0  0
    2.8941   -6.0408   -0.3060 H   0  0  0  0  0  0  0  0  0  0  0  0
    1.3796   -5.4336    0.2965 H   0  0  0  0  0  0  0  0  0  0  0  0
    5.1355   -5.4273    1.1006 H   0  0  0  0  0  0  0  0  0  0  0  0
    4.9559   -4.5821    2.5983 H   0  0  0  0  0  0  0  0  0  0  0  0
    4.4165   -7.4766    1.9578 H   0  0  0  0  0  0  0  0  0  0  0  0
    5.5058   -6.8032    3.0926 H   0  0  0  0  0  0  0  0  0  0  0  0
    2.6044   -7.3645    3.1512 H   0  0  0  0  0  0  0  0  0  0  0  0
    3.5193   -4.8637    4.5989 H   0  0  0  0  0  0  0  0  0  0  0  0
    1.0373   -4.4456    5.1277 H   0  0  0  0  0  0  0  0  0  0  0  0
    0.6593   -6.0314    4.9198 H   0  0  0  0  0  0  0  0  0  0  0  0
    1.9127   -4.4856    7.1707 H   0  0  0  0  0  0  0  0  0  0  0  0
    0.5584   -5.5351    7.2568 H   0  0  0  0  0  0  0  0  0  0  0  0
    3.0446   -5.8893    8.3710 H   0  0  0  0  0  0  0  0  0  0  0  0
    2.1871   -7.4825    9.5821 H   0  0  0  0  0  0  0  0  0  0  0  0
    0.7393   -7.4414    8.6400 H   0  0  0  0  0  0  0  0  0  0  0  0
    2.6121   -9.5822    9.0388 H   0  0  0  0  0  0  0  0  0  0  0  0
    1.0212  -10.8018    8.0044 H   0  0  0  0  0  0  0  0  0  0  0  0
    3.9437   -9.6501    7.2250 H   0  0  0  0  0  0  0  0  0  0  0  0
    2.6184  -10.3778    6.4702 H   0  0  0  0  0  0  0  0  0  0  0  0
    1.1493   -7.9664    4.4298 H   0  0  0  0  0  0  0  0  0  0  0  0
    0.6404   -7.9916    6.1100 H   0  0  0  0  0  0  0  0  0  0  0  0
    1.0975   -9.4360    5.2631 H   0  0  0  0  0  0  0  0  0  0  0  0
    3.6499   -6.1725    6.1629 H   0  0  0  0  0  0  0  0  0  0  0  0
    5.4640   -6.4022    7.1009 H   0  0  0  0  0  0  0  0  0  0  0  0
    5.1267   -8.0014    7.7303 H   0  0  0  0  0  0  0  0  0  0  0  0
    5.9485   -7.2892    5.0159 H   0  0  0  0  0  0  0  0  0  0  0  0
    5.6825   -8.8763    5.6532 H   0  0  0  0  0  0  0  0  0  0  0  0
    3.8993   -9.0006    4.1810 H   0  0  0  0  0  0  0  0  0  0  0  0
    1.2246   -5.0764    2.6943 H   0  0  0  0  0  0  0  0  0  0  0  0
    1.0389   -2.8843    3.3393 H   0  0  0  0  0  0  0  0  0  0  0  0
    2.6906   -2.8055    3.9487 H   0  0  0  0  0  0  0  0  0  0  0  0
    2.4382   -1.4720    1.6757 H   0  0  0  0  0  0  0  0  0  0  0  0
    4.6703   -4.9751   -0.9141 H   0  0  0  0  0  0  0  0  0  0  0  0
    5.1258   -3.5439   -3.1404 H   0  0  0  0  0  0  0  0  0  0  0  0
    2.9391   -1.0666   -0.4535 H   0  0  0  0  0  0  0  0  0  0  0  0
    4.0582   -1.2342   -2.7230 H   0  0  0  0  0  0  0  0  0  0  0  0
  2  1  1  6
  1 29  1  0
  1 30  1  0
  1 31  1  0
  2 20  1  0
  2 23  1  0
  2  3  1  0
  3  4  1  0
  3 32  1  0
  3 33  1  0
  4  5  1  0
  4 34  1  0
  4 35  1  0
  5 19  1  0
  5  6  1  0
  5 36  1  6
  6  7  1  0
  6 20  1  0
  6 37  1  1
  7  8  1  0
  7 38  1  0
  7 39  1  0
  8  9  1  0
  8 40  1  0
  8 41  1  0
  9 16  1  0
  9 10  1  0
  9 42  1  1
 10 11  1  0
 10 43  1  0
 10 44  1  0
 11 12  1  0
 11 13  1  0
 11 45  1  1
 12 46  1  0
 13 14  1  0
 13 47  1  0
 13 48  1  0
 14 19  1  0
 14 15  1  6
 14 16  1  0
 15 49  1  0
 15 50  1  0
 15 51  1  0
 16 17  1  0
 16 52  1  6
 17 18  1  0
 17 53  1  0
 17 54  1  0
 18 19  1  0
 18 55  1  0
 18 56  1  0
 19 57  1  6
 20 21  1  0
 20 58  1  6
 21 22  1  0
 21 59  1  0
 21 60  1  0
 22 23  2  0
 22 61  1  0
 23 24  1  0
 24 28  1  0
 24 25  1  0
 25 26  2  0
 25 62  1  0
 26 27  1  0
 26 63  1  0
 27 28  2  0
 27 65  1  0
 28 64  1  0
M  CHG  1  27   1
M  END
>  <i_m_ct_stereo_status>  (423) 
1

>  <s_m_source_file>  (423) 
/var/tmp/pbs.5076255.sched01/tmp1cu33jom/138ve8n868x.sdf

>  <i_m_source_file_index>  (423) 
26

>  <i_lp_mmshare_version>  (423) 
48012

>  <i_f3d_flags>  (423) 
0

>  <s_epik_input>  (423) 
W2NIXTFuW2NIXVtjSF1uMUMyPVtDSF1bQ0gyXVtDQEBIXShbQ0BAXTIzW0NIM10pW0NAQEhdNFtDQEBIXShbQ0gyXVtDSDJdMylbQ0BASF01W0NAXTYoW0NIM10pW0NASF0oW0NIMl1bQ0gyXTUpW0NAQEhdKFtDSDJdW0NIMl00KVtDSDJdW0NAQEhdKFtPSF0pW0NIMl02

>  <s_epik_cmdline>  (423) 
J2VwaWtfcHl0aG9uJywgJy1waHQnLCAnMi4wJywgJy1waCcsICc3LjAnLCAnLXRuJywgJzgnLCAnLW1hJywgJzIwMCcsICctaW1hZScsICc8aW5maWxlLm1hZT4nLCAnLW9tYWUnLCAnPG91dGZpbGUubWFlPic=

>  <r_epik_Ionization_Penalty>  (423) 
0.149303

>  <r_epik_Ionization_Penalty_Charging>  (423) 
0

>  <r_epik_Ionization_Penalty_Neutral>  (423) 
0.149303

>  <r_epik_State_Penalty>  (423) 
0.138592

>  <r_epik_Charging_Adjusted_Penalty>  (423) 
0.138592

>  <i_epik_Tot_Q>  (423) 
1

>  <i_epik_Tot_abs_Q>  (423) 
1

>  <s_lp_Force_Field>  (423) 
OPLS3e

>  <r_lp_Energy>  (423) 
140.822

>  <b_lp_Chiralities_Consistent>  (423) 
1

>  <s_lp_Variant>  (423) 
110:0-1

>  <s_i_glide_gridfile>  (423) 
pfpi4k_grid

>  <i_i_glide_lignum>  (423) 
26

>  <i_i_glide_rotatable_bonds>  (423) 
2

>  <r_i_docking_score>  (423) 
-3.38228

>  <r_i_glide_ligand_efficiency>  (423) 
-0.120796

>  <r_i_glide_ligand_efficiency_sa>  (423) 
-0.366807

>  <r_i_glide_ligand_efficiency_ln>  (423) 
-0.78073

>  <r_i_glide_gscore>  (423) 
-3.38228

>  <r_i_glide_lipo>  (423) 
-0.0442769

>  <r_i_glide_hbond>  (423) 
-0.16

>  <r_i_glide_metal>  (423) 
-0

>  <r_i_glide_rewards>  (423) 
-0.807449

>  <r_i_glide_evdw>  (423) 
-17.5433

>  <r_i_glide_ecoul>  (423) 
-10.1566

>  <r_i_glide_erotb>  (423) 
0.133329

>  <r_i_glide_esite>  (423) 
-0.103236

>  <r_i_glide_emodel>  (423) 
-35.5283

>  <r_i_glide_energy>  (423) 
-27.6998

>  <r_i_glide_einternal>  (423) 
0.544582

>  <r_i_glide_intrahb_reward>  (423) 
-0

>  <i_i_glide_confnum>  (423) 
2

>  <i_i_glide_posenum>  (423) 
23

>  <r_i_glide_eff_state_penalty>  (423) 
0

>  <ligand_id>  (423) 
110

>  <original_smiles>  (423) 
CC12CCC3C(CCC4CC(O)CC5(C)C4CCC35)C1CC=C2n1ccnc1

>  <smiles>  (423) 
[H]OC1([H])C([H])([H])C2([H])C([H])([H])C([H])([H])C3([H])C([H])(C([H])([H])C([H])([H])C4(C([H])([H])[H])C(n5c([H])c([H])[n+]([H])c5[H])=C([H])C([H])([H])C34[H])C3([H])C([H])([H])C([H])([H])C2([H])C3(C([H])([H])[H])C1([H])[H]

$$$$
110:0:2
     RDKit          3D

 65 70  0  0  1  0  0  0  0  0999 V2000
    3.5395   -3.2062    4.6540 C   0  0  0  0  0  0  0  0  0  0  0  0
    2.6880   -3.5919    3.4035 C   0  0  2  0  0  0  0  0  0  0  0  0
    1.2156   -3.8381    3.7710 C   0  0  0  0  0  0  0  0  0  0  0  0
    1.0002   -5.0222    4.7198 C   0  0  0  0  0  0  0  0  0  0  0  0
    1.8965   -6.2648    4.4599 C   0  0  2  0  0  0  0  0  0  0  0  0
    2.5368   -6.2529    2.9580 C   0  0  2  0  0  0  0  0  0  0  0  0
    3.5558   -7.4245    2.4682 C   0  0  0  0  0  0  0  0  0  0  0  0
    3.1852   -8.8864    1.9099 C   0  0  0  0  0  0  0  0  0  0  0  0
    2.1274   -9.8535    2.5758 C   0  0  1  0  0  0  0  0  0  0  0  0
    2.5831  -11.1847    3.2614 C   0  0  0  0  0  0  0  0  0  0  0  0
    2.3138  -11.3806    4.7959 C   0  0  1  0  0  0  0  0  0  0  0  0
    3.4920  -11.8181    5.4378 O   0  0  0  0  0  0  0  0  0  0  0  0
    1.6941  -10.1864    5.5878 C   0  0  0  0  0  0  0  0  0  0  0  0
    2.0078   -8.8362    4.8890 C   0  0  1  0  0  0  0  0  0  0  0  0
    3.5412   -8.6870    5.1517 C   0  0  0  0  0  0  0  0  0  0  0  0
    1.3453   -9.0066    3.5012 C   0  0  2  0  0  0  0  0  0  0  0  0
   -0.1603   -9.0298    3.6975 C   0  0  0  0  0  0  0  0  0  0  0  0
   -0.2426   -7.9344    4.7804 C   0  0  0  0  0  0  0  0  0  0  0  0
    1.2289   -7.5484    5.1856 C   0  0  2  0  0  0  0  0  0  0  0  0
    3.2697   -4.8746    2.7115 C   0  0  1  0  0  0  0  0  0  0  0  0
    3.4335   -4.5177    1.2094 C   0  0  0  0  0  0  0  0  0  0  0  0
    3.2083   -3.0385    1.1279 C   0  0  0  0  0  0  0  0  0  0  0  0
    2.7880   -2.5321    2.3082 C   0  0  0  0  0  0  0  0  0  0  0  0
    2.5075   -1.1533    2.5136 N   0  0  0  0  0  0  0  0  0  0  0  0
    2.0965   -0.5496    3.6907 C   0  0  0  0  0  0  0  0  0  0  0  0
    2.0175    0.8040    3.4235 C   0  0  0  0  0  0  0  0  0  0  0  0
    2.3351    0.9771    2.1006 N   0  0  0  0  0  0  0  0  0  0  0  0
    2.6245   -0.2209    1.5452 C   0  0  0  0  0  0  0  0  0  0  0  0
    3.6282   -4.0696    5.3316 H   0  0  0  0  0  0  0  0  0  0  0  0
    3.1330   -2.3683    5.2145 H   0  0  0  0  0  0  0  0  0  0  0  0
    4.5664   -2.9676    4.3502 H   0  0  0  0  0  0  0  0  0  0  0  0
    0.7516   -2.9426    4.1865 H   0  0  0  0  0  0  0  0  0  0  0  0
    0.6491   -4.0485    2.8734 H   0  0  0  0  0  0  0  0  0  0  0  0
    1.1769   -4.6813    5.7321 H   0  0  0  0  0  0  0  0  0  0  0  0
   -0.0641   -5.2491    4.6928 H   0  0  0  0  0  0  0  0  0  0  0  0
    2.7568   -6.0437    5.0934 H   0  0  0  0  0  0  0  0  0  0  0  0
    1.6932   -6.2516    2.2618 H   0  0  0  0  0  0  0  0  0  0  0  0
    4.0594   -7.0098    1.5976 H   0  0  0  0  0  0  0  0  0  0  0  0
    4.4090   -7.4869    3.1285 H   0  0  0  0  0  0  0  0  0  0  0  0
    2.8396   -8.7346    0.8881 H   0  0  0  0  0  0  0  0  0  0  0  0
    4.1134   -9.4451    1.7818 H   0  0  0  0  0  0  0  0  0  0  0  0
    1.4607  -10.1500    1.7702 H   0  0  0  0  0  0  0  0  0  0  0  0
    2.0321  -11.9998    2.7737 H   0  0  0  0  0  0  0  0  0  0  0  0
    3.6263  -11.3923    3.0219 H   0  0  0  0  0  0  0  0  0  0  0  0
    1.6344  -12.2249    4.9015 H   0  0  0  0  0  0  0  0  0  0  0  0
    3.2202  -12.2890    6.2146 H   0  0  0  0  0  0  0  0  0  0  0  0
    0.6311  -10.3745    5.7073 H   0  0  0  0  0  0  0  0  0  0  0  0
    2.0390  -10.1933    6.6220 H   0  0  0  0  0  0  0  0  0  0  0  0
    3.9413   -7.6857    5.1218 H   0  0  0  0  0  0  0  0  0  0  0  0
    4.1416   -9.3093    4.4930 H   0  0  0  0  0  0  0  0  0  0  0  0
    3.7881   -9.0074    6.1631 H   0  0  0  0  0  0  0  0  0  0  0  0
    1.2430   -8.1367    2.8873 H   0  0  0  0  0  0  0  0  0  0  0  0
   -0.7171   -8.7572    2.7999 H   0  0  0  0  0  0  0  0  0  0  0  0
   -0.5526   -9.9876    4.0278 H   0  0  0  0  0  0  0  0  0  0  0  0
   -0.8634   -7.1113    4.4351 H   0  0  0  0  0  0  0  0  0  0  0  0
   -0.7604   -8.3546    5.6429 H   0  0  0  0  0  0  0  0  0  0  0  0
    1.2414   -7.3671    6.2614 H   0  0  0  0  0  0  0  0  0  0  0  0
    4.2801   -5.0066    3.1009 H   0  0  0  0  0  0  0  0  0  0  0  0
    4.4291   -4.7954    0.8350 H   0  0  0  0  0  0  0  0  0  0  0  0
    2.7047   -5.0320    0.5755 H   0  0  0  0  0  0  0  0  0  0  0  0
    3.3902   -2.5056    0.1992 H   0  0  0  0  0  0  0  0  0  0  0  0
    1.9011   -1.0863    4.6217 H   0  0  0  0  0  0  0  0  0  0  0  0
    1.7554    1.6314    4.0701 H   0  0  0  0  0  0  0  0  0  0  0  0
    2.8648   -0.3707    0.4962 H   0  0  0  0  0  0  0  0  0  0  0  0
    2.2916    1.8531    1.5975 H   0  0  0  0  0  0  0  0  0  0  0  0
  2  1  1  1
  1 29  1  0
  1 30  1  0
  1 31  1  0
  2 20  1  0
  2 23  1  0
  2  3  1  0
  3  4  1  0
  3 32  1  0
  3 33  1  0
  4  5  1  0
  4 34  1  0
  4 35  1  0
  5 19  1  0
  5  6  1  0
  5 36  1  1
  6  7  1  0
  6 20  1  0
  6 37  1  6
  7  8  1  0
  7 38  1  0
  7 39  1  0
  8  9  1  0
  8 40  1  0
  8 41  1  0
  9 16  1  0
  9 10  1  0
  9 42  1  6
 10 11  1  0
 10 43  1  0
 10 44  1  0
 11 12  1  0
 11 13  1  0
 11 45  1  6
 12 46  1  0
 13 14  1  0
 13 47  1  0
 13 48  1  0
 14 19  1  0
 14 15  1  6
 14 16  1  0
 15 49  1  0
 15 50  1  0
 15 51  1  0
 16 17  1  0
 16 52  1  6
 17 18  1  0
 17 53  1  0
 17 54  1  0
 18 19  1  0
 18 55  1  0
 18 56  1  0
 19 57  1  1
 20 21  1  0
 20 58  1  1
 21 22  1  0
 21 59  1  0
 21 60  1  0
 22 23  2  0
 22 61  1  0
 23 24  1  0
 24 28  1  0
 24 25  1  0
 25 26  2  0
 25 62  1  0
 26 27  1  0
 26 63  1  0
 27 28  2  0
 27 65  1  0
 28 64  1  0
M  CHG  1  27   1
M  END
>  <i_m_ct_stereo_status>  (424) 
1

>  <s_m_source_file>  (424) 
/var/tmp/pbs.5076255.sched01/tmp1cu33jom/138ve8n868x.sdf

>  <i_m_source_file_index>  (424) 
26

>  <i_lp_mmshare_version>  (424) 
48012

>  <i_f3d_flags>  (424) 
0

>  <s_epik_input>  (424) 
W2NIXTFuW2NIXVtjSF1uMUMyPVtDSF1bQ0gyXVtDQEBIXShbQ0BAXTIzW0NIM10pW0NAQEhdNFtDQEBIXShbQ0gyXVtDSDJdMylbQ0BASF01W0NAXTYoW0NIM10pW0NASF0oW0NIMl1bQ0gyXTUpW0NAQEhdKFtDSDJdW0NIMl00KVtDSDJdW0NAQEhdKFtPSF0pW0NIMl02

>  <s_epik_cmdline>  (424) 
J2VwaWtfcHl0aG9uJywgJy1waHQnLCAnMi4wJywgJy1waCcsICc3LjAnLCAnLXRuJywgJzgnLCAnLW1hJywgJzIwMCcsICctaW1hZScsICc8aW5maWxlLm1hZT4nLCAnLW9tYWUnLCAnPG91dGZpbGUubWFlPic=

>  <r_epik_Ionization_Penalty>  (424) 
0.149303

>  <r_epik_Ionization_Penalty_Charging>  (424) 
0

>  <r_epik_Ionization_Penalty_Neutral>  (424) 
0.149303

>  <r_epik_State_Penalty>  (424) 
0.138592

>  <r_epik_Charging_Adjusted_Penalty>  (424) 
0.138592

>  <i_epik_Tot_Q>  (424) 
1

>  <i_epik_Tot_abs_Q>  (424) 
1

>  <s_lp_Force_Field>  (424) 
OPLS3e

>  <r_lp_Energy>  (424) 
140.822

>  <b_lp_Chiralities_Consistent>  (424) 
1

>  <s_lp_Variant>  (424) 
110:0-1

>  <s_i_glide_gridfile>  (424) 
pfpi4k_grid

>  <i_i_glide_lignum>  (424) 
26

>  <i_i_glide_rotatable_bonds>  (424) 
2

>  <r_i_docking_score>  (424) 
-2.84692

>  <r_i_glide_ligand_efficiency>  (424) 
-0.101676

>  <r_i_glide_ligand_efficiency_sa>  (424) 
-0.308748

>  <r_i_glide_ligand_efficiency_ln>  (424) 
-0.657153

>  <r_i_glide_gscore>  (424) 
-2.84692

>  <r_i_glide_lipo>  (424) 
-0.0720913

>  <r_i_glide_hbond>  (424) 
-0.0217201

>  <r_i_glide_metal>  (424) 
-0

>  <r_i_glide_rewards>  (424) 
-0.807449

>  <r_i_glide_evdw>  (424) 
-25.2501

>  <r_i_glide_ecoul>  (424) 
-4.97188

>  <r_i_glide_erotb>  (424) 
0.133329

>  <r_i_glide_esite>  (424) 
-0.0707022

>  <r_i_glide_emodel>  (424) 
-36.2137

>  <r_i_glide_energy>  (424) 
-30.222

>  <r_i_glide_einternal>  (424) 
1.03979

>  <r_i_glide_intrahb_reward>  (424) 
-0

>  <i_i_glide_confnum>  (424) 
1

>  <i_i_glide_posenum>  (424) 
1

>  <r_i_glide_eff_state_penalty>  (424) 
0

>  <ligand_id>  (424) 
110

>  <original_smiles>  (424) 
CC12CCC3C(CCC4CC(O)CC5(C)C4CCC35)C1CC=C2n1ccnc1

>  <smiles>  (424) 
[H]OC1([H])C([H])([H])C2([H])C([H])([H])C([H])([H])C3([H])C([H])(C([H])([H])C([H])([H])C4(C([H])([H])[H])C(n5c([H])c([H])[n+]([H])c5[H])=C([H])C([H])([H])C34[H])C3([H])C([H])([H])C([H])([H])C2([H])C3(C([H])([H])[H])C1([H])[H]

$$$$
110:1:0
     RDKit          3D

 64 69  0  0  1  0  0  0  0  0999 V2000
    4.3487   -3.3902    2.7780 C   0  0  0  0  0  0  0  0  0  0  0  0
    4.3490   -4.5841    1.7849 C   0  0  2  0  0  0  0  0  0  0  0  0
    2.9967   -4.7894    1.0840 C   0  0  0  0  0  0  0  0  0  0  0  0
    1.8720   -5.1450    2.0569 C   0  0  0  0  0  0  0  0  0  0  0  0
    2.2393   -6.1349    3.1881 C   0  0  2  0  0  0  0  0  0  0  0  0
    3.6034   -6.9504    2.8570 C   0  0  2  0  0  0  0  0  0  0  0  0
    4.2379   -8.0158    3.8965 C   0  0  0  0  0  0  0  0  0  0  0  0
    3.8101   -9.5481    4.1153 C   0  0  0  0  0  0  0  0  0  0  0  0
    2.3144  -10.0410    4.2259 C   0  0  1  0  0  0  0  0  0  0  0  0
    1.7779  -10.5872    5.5748 C   0  0  0  0  0  0  0  0  0  0  0  0
    0.5889   -9.8464    6.2899 C   0  0  1  0  0  0  0  0  0  0  0  0
    0.9012   -9.6348    7.6522 O   0  0  0  0  0  0  0  0  0  0  0  0
    0.0665   -8.5216    5.6599 C   0  0  0  0  0  0  0  0  0  0  0  0
    1.1779   -7.8590    4.8123 C   0  0  1  0  0  0  0  0  0  0  0  0
    2.1694   -7.3670    5.9199 C   0  0  0  0  0  0  0  0  0  0  0  0
    1.4818   -8.9263    3.7398 C   0  0  2  0  0  0  0  0  0  0  0  0
    0.2667   -9.0378    2.8373 C   0  0  0  0  0  0  0  0  0  0  0  0
   -0.0705   -7.5346    2.7565 C   0  0  0  0  0  0  0  0  0  0  0  0
    0.8765   -6.7809    3.7682 C   0  0  2  0  0  0  0  0  0  0  0  0
    4.7470   -5.9252    2.5256 C   0  0  1  0  0  0  0  0  0  0  0  0
    5.9020   -6.5551    1.6948 C   0  0  0  0  0  0  0  0  0  0  0  0
    6.2944   -5.4761    0.7343 C   0  0  0  0  0  0  0  0  0  0  0  0
    5.4558   -4.4379    0.7506 C   0  0  0  0  0  0  0  0  0  0  0  0
    5.7125   -3.3203   -0.0890 N   0  0  0  0  0  0  0  0  0  0  0  0
    4.8091   -2.2621   -0.2218 C   0  0  0  0  0  0  0  0  0  0  0  0
    5.3877   -1.3786   -1.0969 C   0  0  0  0  0  0  0  0  0  0  0  0
    6.6104   -1.8730   -1.5257 N   0  0  0  0  0  0  0  0  0  0  0  0
    6.7420   -3.0215   -0.8961 C   0  0  0  0  0  0  0  0  0  0  0  0
    3.6765   -3.5584    3.6167 H   0  0  0  0  0  0  0  0  0  0  0  0
    4.0374   -2.4505    2.3312 H   0  0  0  0  0  0  0  0  0  0  0  0
    5.3481   -3.2321    3.1846 H   0  0  0  0  0  0  0  0  0  0  0  0
    2.6987   -3.9060    0.5237 H   0  0  0  0  0  0  0  0  0  0  0  0
    3.0942   -5.5816    0.3366 H   0  0  0  0  0  0  0  0  0  0  0  0
    1.5048   -4.2253    2.5136 H   0  0  0  0  0  0  0  0  0  0  0  0
    1.0541   -5.5022    1.4444 H   0  0  0  0  0  0  0  0  0  0  0  0
    2.5535   -5.4530    3.9728 H   0  0  0  0  0  0  0  0  0  0  0  0
    3.4329   -7.4770    1.9188 H   0  0  0  0  0  0  0  0  0  0  0  0
    5.2685   -8.1569    3.5801 H   0  0  0  0  0  0  0  0  0  0  0  0
    4.4284   -7.5432    4.8524 H   0  0  0  0  0  0  0  0  0  0  0  0
    4.2335  -10.0962    3.2715 H   0  0  0  0  0  0  0  0  0  0  0  0
    4.3605   -9.9314    4.9784 H   0  0  0  0  0  0  0  0  0  0  0  0
    2.2202  -10.8641    3.5161 H   0  0  0  0  0  0  0  0  0  0  0  0
    1.4043  -11.5917    5.3608 H   0  0  0  0  0  0  0  0  0  0  0  0
    2.5998  -10.7519    6.2734 H   0  0  0  0  0  0  0  0  0  0  0  0
   -0.2423  -10.5443    6.3426 H   0  0  0  0  0  0  0  0  0  0  0  0
    1.1210  -10.4957    8.0009 H   0  0  0  0  0  0  0  0  0  0  0  0
   -0.8399   -8.7488    5.1032 H   0  0  0  0  0  0  0  0  0  0  0  0
   -0.2761   -7.8407    6.4356 H   0  0  0  0  0  0  0  0  0  0  0  0
    2.8236   -6.5484    5.6569 H   0  0  0  0  0  0  0  0  0  0  0  0
    2.7851   -8.1747    6.3160 H   0  0  0  0  0  0  0  0  0  0  0  0
    1.6277   -6.9639    6.7761 H   0  0  0  0  0  0  0  0  0  0  0  0
    2.0730   -8.6421    2.8987 H   0  0  0  0  0  0  0  0  0  0  0  0
    0.5222   -9.4489    1.8588 H   0  0  0  0  0  0  0  0  0  0  0  0
   -0.5437   -9.6485    3.2376 H   0  0  0  0  0  0  0  0  0  0  0  0
   -0.0089   -7.2062    1.7231 H   0  0  0  0  0  0  0  0  0  0  0  0
   -1.1117   -7.4001    3.0508 H   0  0  0  0  0  0  0  0  0  0  0  0
    0.3008   -5.9800    4.2330 H   0  0  0  0  0  0  0  0  0  0  0  0
    5.1924   -5.6309    3.4770 H   0  0  0  0  0  0  0  0  0  0  0  0
    6.7572   -6.8441    2.3145 H   0  0  0  0  0  0  0  0  0  0  0  0
    5.5853   -7.4263    1.1133 H   0  0  0  0  0  0  0  0  0  0  0  0
    7.1630   -5.5886    0.1106 H   0  0  0  0  0  0  0  0  0  0  0  0
    3.8552   -2.1731    0.2647 H   0  0  0  0  0  0  0  0  0  0  0  0
    5.0052   -0.4322   -1.4439 H   0  0  0  0  0  0  0  0  0  0  0  0
    7.6116   -3.6448   -1.0252 H   0  0  0  0  0  0  0  0  0  0  0  0
  2  1  1  1
  1 29  1  0
  1 30  1  0
  1 31  1  0
  2 20  1  0
  2 23  1  0
  2  3  1  0
  3  4  1  0
  3 32  1  0
  3 33  1  0
  4  5  1  0
  4 34  1  0
  4 35  1  0
  5 19  1  0
  5  6  1  0
  5 36  1  1
  6  7  1  0
  6 20  1  0
  6 37  1  6
  7  8  1  0
  7 38  1  0
  7 39  1  0
  8  9  1  0
  8 40  1  0
  8 41  1  0
  9 16  1  0
  9 10  1  0
  9 42  1  6
 10 11  1  0
 10 43  1  0
 10 44  1  0
 11 12  1  0
 11 13  1  0
 11 45  1  1
 12 46  1  0
 13 14  1  0
 13 47  1  0
 13 48  1  0
 14 19  1  0
 14 15  1  1
 14 16  1  0
 15 49  1  0
 15 50  1  0
 15 51  1  0
 16 17  1  0
 16 52  1  6
 17 18  1  0
 17 53  1  0
 17 54  1  0
 18 19  1  0
 18 55  1  0
 18 56  1  0
 19 57  1  1
 20 21  1  0
 20 58  1  1
 21 22  1  0
 21 59  1  0
 21 60  1  0
 22 23  2  0
 22 61  1  0
 23 24  1  0
 24 28  1  0
 24 25  1  0
 25 26  2  0
 25 62  1  0
 26 27  1  0
 26 63  1  0
 27 28  2  0
 28 64  1  0
M  END
>  <i_m_ct_stereo_status>  (425) 
1

>  <s_m_source_file>  (425) 
/var/tmp/pbs.5076255.sched01/tmp1cu33jom/138ve8n868x.sdf

>  <i_m_source_file_index>  (425) 
27

>  <i_lp_mmshare_version>  (425) 
48012

>  <i_f3d_flags>  (425) 
0

>  <s_epik_input>  (425) 
W2NIXTFuW2NIXVtjSF1uMUMyPVtDSF1bQ0gyXVtDQEBIXShbQ0BAXTIzW0NIM10pW0NAQEhdNFtDQEBIXShbQ0gyXVtDSDJdMylbQ0BASF01W0NAXTYoW0NIM10pW0NASF0oW0NIMl1bQ0gyXTUpW0NAQEhdKFtDSDJdW0NIMl00KVtDSDJdW0NAQEhdKFtPSF0pW0NIMl02

>  <s_epik_cmdline>  (425) 
J2VwaWtfcHl0aG9uJywgJy1waHQnLCAnMi4wJywgJy1waCcsICc3LjAnLCAnLXRuJywgJzgnLCAnLW1hJywgJzIwMCcsICctaW1hZScsICc8aW5maWxlLm1hZT4nLCAnLW9tYWUnLCAnPG91dGZpbGUubWFlPic=

>  <r_epik_Ionization_Penalty>  (425) 
0.889747

>  <r_epik_Ionization_Penalty_Charging>  (425) 
0.889744

>  <r_epik_Ionization_Penalty_Neutral>  (425) 
2.40097e-06

>  <r_epik_State_Penalty>  (425) 
0.928705

>  <r_epik_Charging_Adjusted_Penalty>  (425) 
1.81845

>  <i_epik_Tot_Q>  (425) 
0

>  <i_epik_Tot_abs_Q>  (425) 
0

>  <s_lp_Force_Field>  (425) 
OPLS3e

>  <r_lp_Energy>  (425) 
135.301

>  <b_lp_Chiralities_Consistent>  (425) 
1

>  <s_lp_Variant>  (425) 
110:0-2

>  <s_i_glide_gridfile>  (425) 
pfpi4k_grid

>  <i_i_glide_lignum>  (425) 
27

>  <i_i_glide_rotatable_bonds>  (425) 
2

>  <r_i_docking_score>  (425) 
-3.59254

>  <r_i_glide_ligand_efficiency>  (425) 
-0.128305

>  <r_i_glide_ligand_efficiency_sa>  (425) 
-0.389609

>  <r_i_glide_ligand_efficiency_ln>  (425) 
-0.829263

>  <r_i_glide_gscore>  (425) 
-3.59254

>  <r_i_glide_lipo>  (425) 
-0.26985

>  <r_i_glide_hbond>  (425) 
-0.312504

>  <r_i_glide_metal>  (425) 
-0

>  <r_i_glide_rewards>  (425) 
-0.956305

>  <r_i_glide_evdw>  (425) 
-20.9985

>  <r_i_glide_ecoul>  (425) 
-7.5861

>  <r_i_glide_erotb>  (425) 
0.133962

>  <r_i_glide_esite>  (425) 
0

>  <r_i_glide_emodel>  (425) 
-34.9238

>  <r_i_glide_energy>  (425) 
-28.5846

>  <r_i_glide_einternal>  (425) 
0.395473

>  <r_i_glide_intrahb_reward>  (425) 
-0

>  <i_i_glide_confnum>  (425) 
2

>  <i_i_glide_posenum>  (425) 
25

>  <r_i_glide_eff_state_penalty>  (425) 
0

>  <ligand_id>  (425) 
110

>  <original_smiles>  (425) 
CC12CCC3C(CCC4CC(O)CC5(C)C4CCC35)C1CC=C2n1ccnc1

>  <smiles>  (425) 
[H]OC1([H])C([H])([H])C2([H])C([H])([H])C([H])([H])C3([H])C([H])(C([H])([H])C([H])([H])C4(C([H])([H])[H])C(n5c([H])nc([H])c5[H])=C([H])C([H])([H])C34[H])C3([H])C([H])([H])C([H])([H])C2([H])C3(C([H])([H])[H])C1([H])[H]

$$$$
110:1:1
     RDKit          3D

 64 69  0  0  1  0  0  0  0  0999 V2000
    3.3694   -3.1452    2.1501 C   0  0  0  0  0  0  0  0  0  0  0  0
    4.0612   -4.4170    1.5833 C   0  0  2  0  0  0  0  0  0  0  0  0
    3.1369   -5.2784    0.7105 C   0  0  0  0  0  0  0  0  0  0  0  0
    1.9486   -5.8548    1.4830 C   0  0  0  0  0  0  0  0  0  0  0  0
    2.2446   -6.3500    2.9216 C   0  0  2  0  0  0  0  0  0  0  0  0
    3.8303   -6.6064    3.1540 C   0  0  2  0  0  0  0  0  0  0  0  0
    4.4205   -7.0849    4.5842 C   0  0  0  0  0  0  0  0  0  0  0  0
    4.4638   -8.5756    5.1742 C   0  0  0  0  0  0  0  0  0  0  0  0
    3.2447   -9.5746    5.1315 C   0  0  1  0  0  0  0  0  0  0  0  0
    2.5314   -9.9667    6.4529 C   0  0  0  0  0  0  0  0  0  0  0  0
    0.9943   -9.6415    6.6212 C   0  0  1  0  0  0  0  0  0  0  0  0
    0.7958   -9.0515    7.8924 O   0  0  0  0  0  0  0  0  0  0  0  0
    0.2929   -8.7971    5.5158 C   0  0  0  0  0  0  0  0  0  0  0  0
    1.3424   -7.9524    4.7536 C   0  0  1  0  0  0  0  0  0  0  0  0
    1.7349   -6.8879    5.8319 C   0  0  0  0  0  0  0  0  0  0  0  0
    2.2894   -9.0176    4.1543 C   0  0  2  0  0  0  0  0  0  0  0  0
    1.5192   -9.7903    3.0938 C   0  0  0  0  0  0  0  0  0  0  0  0
    0.7584   -8.5930    2.4865 C   0  0  0  0  0  0  0  0  0  0  0  0
    1.0518   -7.3332    3.3856 C   0  0  2  0  0  0  0  0  0  0  0  0
    4.6258   -5.3083    2.7616 C   0  0  1  0  0  0  0  0  0  0  0  0
    6.1183   -5.5957    2.4222 C   0  0  0  0  0  0  0  0  0  0  0  0
    6.4135   -4.6808    1.2729 C   0  0  0  0  0  0  0  0  0  0  0  0
    5.3234   -4.0740    0.8036 C   0  0  0  0  0  0  0  0  0  0  0  0
    5.4482   -3.1636   -0.2826 N   0  0  0  0  0  0  0  0  0  0  0  0
    4.3442   -2.5340   -0.8747 C   0  0  0  0  0  0  0  0  0  0  0  0
    4.8595   -1.7104   -1.8554 C   0  0  0  0  0  0  0  0  0  0  0  0
    6.2433   -1.8562   -1.9124 N   0  0  0  0  0  0  0  0  0  0  0  0
    6.5197   -2.7340   -0.9637 C   0  0  0  0  0  0  0  0  0  0  0  0
    2.5812   -3.3974    2.8583 H   0  0  0  0  0  0  0  0  0  0  0  0
    2.9059   -2.5149    1.3969 H   0  0  0  0  0  0  0  0  0  0  0  0
    4.0954   -2.5291    2.6835 H   0  0  0  0  0  0  0  0  0  0  0  0
    2.7666   -4.7132   -0.1442 H   0  0  0  0  0  0  0  0  0  0  0  0
    3.7072   -6.1042    0.2772 H   0  0  0  0  0  0  0  0  0  0  0  0
    1.2026   -5.0761    1.5863 H   0  0  0  0  0  0  0  0  0  0  0  0
    1.4945   -6.6081    0.8438 H   0  0  0  0  0  0  0  0  0  0  0  0
    2.0667   -5.4480    3.5011 H   0  0  0  0  0  0  0  0  0  0  0  0
    4.1351   -7.3459    2.4142 H   0  0  0  0  0  0  0  0  0  0  0  0
    5.4863   -6.8732    4.5467 H   0  0  0  0  0  0  0  0  0  0  0  0
    4.1451   -6.3841    5.3636 H   0  0  0  0  0  0  0  0  0  0  0  0
    5.2766   -9.0803    4.6494 H   0  0  0  0  0  0  0  0  0  0  0  0
    4.8155   -8.5184    6.2070 H   0  0  0  0  0  0  0  0  0  0  0  0
    3.6365  -10.5025    4.7129 H   0  0  0  0  0  0  0  0  0  0  0  0
    2.6236  -11.0548    6.4921 H   0  0  0  0  0  0  0  0  0  0  0  0
    3.1016   -9.6453    7.3254 H   0  0  0  0  0  0  0  0  0  0  0  0
    0.4348  -10.5754    6.6676 H   0  0  0  0  0  0  0  0  0  0  0  0
    1.0930   -9.6788    8.5375 H   0  0  0  0  0  0  0  0  0  0  0  0
   -0.2595   -9.4780    4.8739 H   0  0  0  0  0  0  0  0  0  0  0  0
   -0.5009   -8.1848    5.9435 H   0  0  0  0  0  0  0  0  0  0  0  0
    2.1398   -5.9554    5.4665 H   0  0  0  0  0  0  0  0  0  0  0  0
    2.4258   -7.2825    6.5767 H   0  0  0  0  0  0  0  0  0  0  0  0
    0.8565   -6.5627    6.3899 H   0  0  0  0  0  0  0  0  0  0  0  0
    2.9872   -8.7117    3.4072 H   0  0  0  0  0  0  0  0  0  0  0  0
    2.1702  -10.2695    2.3571 H   0  0  0  0  0  0  0  0  0  0  0  0
    0.8629  -10.5671    3.4871 H   0  0  0  0  0  0  0  0  0  0  0  0
    1.0228   -8.4873    1.4386 H   0  0  0  0  0  0  0  0  0  0  0  0
   -0.3083   -8.8192    2.4994 H   0  0  0  0  0  0  0  0  0  0  0  0
    0.1372   -6.7447    3.4487 H   0  0  0  0  0  0  0  0  0  0  0  0
    4.6429   -4.6721    3.6482 H   0  0  0  0  0  0  0  0  0  0  0  0
    6.7858   -5.3910    3.2667 H   0  0  0  0  0  0  0  0  0  0  0  0
    6.2922   -6.6255    2.0942 H   0  0  0  0  0  0  0  0  0  0  0  0
    7.4228   -4.5792    0.9099 H   0  0  0  0  0  0  0  0  0  0  0  0
    3.3114   -2.6685   -0.6120 H   0  0  0  0  0  0  0  0  0  0  0  0
    4.3295   -1.0395   -2.5182 H   0  0  0  0  0  0  0  0  0  0  0  0
    7.5362   -3.0501   -0.7768 H   0  0  0  0  0  0  0  0  0  0  0  0
  2  1  1  1
  1 29  1  0
  1 30  1  0
  1 31  1  0
  2 20  1  0
  2 23  1  0
  2  3  1  0
  3  4  1  0
  3 32  1  0
  3 33  1  0
  4  5  1  0
  4 34  1  0
  4 35  1  0
  5 19  1  0
  5  6  1  0
  5 36  1  1
  6  7  1  0
  6 20  1  0
  6 37  1  6
  7  8  1  0
  7 38  1  0
  7 39  1  0
  8  9  1  0
  8 40  1  0
  8 41  1  0
  9 16  1  0
  9 10  1  0
  9 42  1  6
 10 11  1  0
 10 43  1  0
 10 44  1  0
 11 12  1  0
 11 13  1  0
 11 45  1  1
 12 46  1  0
 13 14  1  0
 13 47  1  0
 13 48  1  0
 14 19  1  0
 14 15  1  1
 14 16  1  0
 15 49  1  0
 15 50  1  0
 15 51  1  0
 16 17  1  0
 16 52  1  6
 17 18  1  0
 17 53  1  0
 17 54  1  0
 18 19  1  0
 18 55  1  0
 18 56  1  0
 19 57  1  1
 20 21  1  0
 20 58  1  1
 21 22  1  0
 21 59  1  0
 21 60  1  0
 22 23  2  0
 22 61  1  0
 23 24  1  0
 24 28  1  0
 24 25  1  0
 25 26  2  0
 25 62  1  0
 26 27  1  0
 26 63  1  0
 27 28  2  0
 28 64  1  0
M  END
>  <i_m_ct_stereo_status>  (426) 
1

>  <s_m_source_file>  (426) 
/var/tmp/pbs.5076255.sched01/tmp1cu33jom/138ve8n868x.sdf

>  <i_m_source_file_index>  (426) 
27

>  <i_lp_mmshare_version>  (426) 
48012

>  <i_f3d_flags>  (426) 
0

>  <s_epik_input>  (426) 
W2NIXTFuW2NIXVtjSF1uMUMyPVtDSF1bQ0gyXVtDQEBIXShbQ0BAXTIzW0NIM10pW0NAQEhdNFtDQEBIXShbQ0gyXVtDSDJdMylbQ0BASF01W0NAXTYoW0NIM10pW0NASF0oW0NIMl1bQ0gyXTUpW0NAQEhdKFtDSDJdW0NIMl00KVtDSDJdW0NAQEhdKFtPSF0pW0NIMl02

>  <s_epik_cmdline>  (426) 
J2VwaWtfcHl0aG9uJywgJy1waHQnLCAnMi4wJywgJy1waCcsICc3LjAnLCAnLXRuJywgJzgnLCAnLW1hJywgJzIwMCcsICctaW1hZScsICc8aW5maWxlLm1hZT4nLCAnLW9tYWUnLCAnPG91dGZpbGUubWFlPic=

>  <r_epik_Ionization_Penalty>  (426) 
0.889747

>  <r_epik_Ionization_Penalty_Charging>  (426) 
0.889744

>  <r_epik_Ionization_Penalty_Neutral>  (426) 
2.40097e-06

>  <r_epik_State_Penalty>  (426) 
0.928705

>  <r_epik_Charging_Adjusted_Penalty>  (426) 
1.81845

>  <i_epik_Tot_Q>  (426) 
0

>  <i_epik_Tot_abs_Q>  (426) 
0

>  <s_lp_Force_Field>  (426) 
OPLS3e

>  <r_lp_Energy>  (426) 
135.301

>  <b_lp_Chiralities_Consistent>  (426) 
1

>  <s_lp_Variant>  (426) 
110:0-2

>  <s_i_glide_gridfile>  (426) 
pfpi4k_grid

>  <i_i_glide_lignum>  (426) 
27

>  <i_i_glide_rotatable_bonds>  (426) 
2

>  <r_i_docking_score>  (426) 
-2.91628

>  <r_i_glide_ligand_efficiency>  (426) 
-0.104153

>  <r_i_glide_ligand_efficiency_sa>  (426) 
-0.316269

>  <r_i_glide_ligand_efficiency_ln>  (426) 
-0.673162

>  <r_i_glide_gscore>  (426) 
-2.91628

>  <r_i_glide_lipo>  (426) 
-0.234516

>  <r_i_glide_hbond>  (426) 
-0.132406

>  <r_i_glide_metal>  (426) 
-0

>  <r_i_glide_rewards>  (426) 
-0.872311

>  <r_i_glide_evdw>  (426) 
-22.8273

>  <r_i_glide_ecoul>  (426) 
-4.38062

>  <r_i_glide_erotb>  (426) 
0.133962

>  <r_i_glide_esite>  (426) 
-0.0125477

>  <r_i_glide_emodel>  (426) 
-32.1159

>  <r_i_glide_energy>  (426) 
-27.2079

>  <r_i_glide_einternal>  (426) 
0.341253

>  <r_i_glide_intrahb_reward>  (426) 
-0

>  <i_i_glide_confnum>  (426) 
2

>  <i_i_glide_posenum>  (426) 
1

>  <r_i_glide_eff_state_penalty>  (426) 
0

>  <ligand_id>  (426) 
110

>  <original_smiles>  (426) 
CC12CCC3C(CCC4CC(O)CC5(C)C4CCC35)C1CC=C2n1ccnc1

>  <smiles>  (426) 
[H]OC1([H])C([H])([H])C2([H])C([H])([H])C([H])([H])C3([H])C([H])(C([H])([H])C([H])([H])C4(C([H])([H])[H])C(n5c([H])nc([H])c5[H])=C([H])C([H])([H])C34[H])C3([H])C([H])([H])C([H])([H])C2([H])C3(C([H])([H])[H])C1([H])[H]

$$$$
111:0:0
     RDKit          3D

 25 27  0  0  1  0  0  0  0  0999 V2000
    3.5709   -6.3383    0.5049 C   0  0  0  0  0  0  0  0  0  0  0  0
    4.5156   -5.3203    0.1916 O   0  0  0  0  0  0  0  0  0  0  0  0
    5.8139   -5.4236    0.6272 C   0  0  0  0  0  0  0  0  0  0  0  0
    6.1143   -6.5705    1.2805 N   0  0  0  0  0  0  0  0  0  0  0  0
    7.3625   -6.7668    1.7284 C   0  0  0  0  0  0  0  0  0  0  0  0
    8.3794   -5.8285    1.5533 C   0  0  0  0  0  0  0  0  0  0  0  0
    8.0954   -4.6359    0.8750 C   0  0  0  0  0  0  0  0  0  0  0  0
    9.0924   -3.7557    0.7004 N   0  0  0  0  0  0  0  0  0  0  0  0
    8.8023   -2.6282    0.0769 C   0  0  0  0  0  0  0  0  0  0  0  0
    7.6286   -2.2814   -0.4247 N   0  0  0  0  0  0  0  0  0  0  0  0
    6.5899   -3.1421   -0.2948 C   0  0  0  0  0  0  0  0  0  0  0  0
    5.3634   -2.6002   -0.9266 C   0  0  0  0  0  0  0  0  0  0  0  0
    4.1256   -3.0769   -1.0302 N   0  0  0  0  0  0  0  0  0  0  0  0
    3.3933   -2.1439   -1.7347 C   0  0  0  0  0  0  0  0  0  0  0  0
    4.2242   -1.1047   -2.0330 C   0  0  0  0  0  0  0  0  0  0  0  0
    5.4669   -1.3775   -1.5338 O   0  0  0  0  0  0  0  0  0  0  0  0
    6.7758   -4.3964    0.3890 C   0  0  0  0  0  0  0  0  0  0  0  0
    2.6108   -6.0617    0.0735 H   0  0  0  0  0  0  0  0  0  0  0  0
    3.4208   -6.4418    1.5797 H   0  0  0  0  0  0  0  0  0  0  0  0
    3.8557   -7.3029    0.0862 H   0  0  0  0  0  0  0  0  0  0  0  0
    7.5636   -7.6953    2.2410 H   0  0  0  0  0  0  0  0  0  0  0  0
    9.3717   -6.0296    1.9348 H   0  0  0  0  0  0  0  0  0  0  0  0
    9.5916   -1.9035    0.0145 H   0  0  0  0  0  0  0  0  0  0  0  0
    2.3411   -2.2787   -1.9389 H   0  0  0  0  0  0  0  0  0  0  0  0
    4.0834   -0.1613   -2.5383 H   0  0  0  0  0  0  0  0  0  0  0  0
  1  2  1  0
  1 18  1  0
  1 19  1  0
  1 20  1  0
  2  3  1  0
  3 17  2  0
  3  4  1  0
  4  5  2  0
  5  6  1  0
  5 21  1  0
  6  7  2  0
  6 22  1  0
  7 17  1  0
  7  8  1  0
  8  9  2  0
  9 10  1  0
  9 23  1  0
 10 11  2  0
 11 12  1  0
 11 17  1  0
 12 16  1  0
 12 13  2  0
 13 14  1  0
 14 15  2  0
 14 24  1  0
 15 16  1  0
 15 25  1  0
M  END
>  <i_m_ct_stereo_status>  (427) 
1

>  <s_m_source_file>  (427) 
/var/tmp/pbs.5076255.sched01/tmp1cu33jom/138ve8n868x.sdf

>  <i_m_source_file_index>  (427) 
28

>  <i_lp_mmshare_version>  (427) 
48012

>  <i_f3d_flags>  (427) 
0

>  <s_epik_input>  (427) 
W2NIXTFbY0hdbmMoT1tDSDNdKWMoYzEyKWMobltjSF1uMiktYzNuW2NIXVtjSF1vMw==

>  <s_epik_cmdline>  (427) 
J2VwaWtfcHl0aG9uJywgJy1waHQnLCAnMi4wJywgJy1waCcsICc3LjAnLCAnLXRuJywgJzgnLCAnLW1hJywgJzIwMCcsICctaW1hZScsICc8aW5maWxlLm1hZT4nLCAnLW9tYWUnLCAnPG91dGZpbGUubWFlPic=

>  <r_lp_tautomer_probability>  (427) 
1

>  <r_epik_Ionization_Penalty>  (427) 
6.4799e-07

>  <r_epik_Ionization_Penalty_Charging>  (427) 
0

>  <r_epik_Ionization_Penalty_Neutral>  (427) 
6.4799e-07

>  <r_epik_State_Penalty>  (427) 
-0

>  <r_epik_Charging_Adjusted_Penalty>  (427) 
0

>  <i_epik_Tot_Q>  (427) 
0

>  <i_epik_Tot_abs_Q>  (427) 
0

>  <s_lp_Force_Field>  (427) 
OPLS3e

>  <r_lp_Energy>  (427) 
35.0786

>  <b_lp_Chiralities_Consistent>  (427) 
1

>  <s_lp_Variant>  (427) 
111:0-1

>  <s_i_glide_gridfile>  (427) 
pfpi4k_grid

>  <i_i_glide_lignum>  (427) 
28

>  <i_i_glide_rotatable_bonds>  (427) 
2

>  <r_i_docking_score>  (427) 
-3.92448

>  <r_i_glide_ligand_efficiency>  (427) 
-0.230852

>  <r_i_glide_ligand_efficiency_sa>  (427) 
-0.593585

>  <r_i_glide_ligand_efficiency_ln>  (427) 
-1.02381

>  <r_i_glide_gscore>  (427) 
-3.92448

>  <r_i_glide_lipo>  (427) 
-0.522763

>  <r_i_glide_hbond>  (427) 
-0.180485

>  <r_i_glide_metal>  (427) 
-0

>  <r_i_glide_rewards>  (427) 
-1.85314

>  <r_i_glide_evdw>  (427) 
-22.1462

>  <r_i_glide_ecoul>  (427) 
-3.72387

>  <r_i_glide_erotb>  (427) 
0.327107

>  <r_i_glide_esite>  (427) 
-0.0293155

>  <r_i_glide_emodel>  (427) 
-33.1043

>  <r_i_glide_energy>  (427) 
-25.8701

>  <r_i_glide_einternal>  (427) 
0.022496

>  <r_i_glide_intrahb_reward>  (427) 
-0

>  <i_i_glide_confnum>  (427) 
4

>  <i_i_glide_posenum>  (427) 
1

>  <r_i_glide_eff_state_penalty>  (427) 
0

>  <ligand_id>  (427) 
111

>  <original_smiles>  (427) 
COc1nccc2ncnc(-c3ncco3)c12

>  <smiles>  (427) 
[H]c1nc(-c2nc([H])c([H])o2)c2c(OC([H])([H])[H])nc([H])c([H])c2n1

$$$$
111:0:1
     RDKit          3D

 25 27  0  0  1  0  0  0  0  0999 V2000
    1.1664   -4.1592   -1.5223 C   0  0  0  0  0  0  0  0  0  0  0  0
    2.3279   -3.4129   -1.2369 O   0  0  0  0  0  0  0  0  0  0  0  0
    3.2656   -3.9899   -0.4411 C   0  0  0  0  0  0  0  0  0  0  0  0
    2.8237   -4.8928    0.4480 N   0  0  0  0  0  0  0  0  0  0  0  0
    3.7217   -5.4950    1.2492 C   0  0  0  0  0  0  0  0  0  0  0  0
    5.0938   -5.2118    1.1879 C   0  0  0  0  0  0  0  0  0  0  0  0
    5.5628   -4.2691    0.2698 C   0  0  0  0  0  0  0  0  0  0  0  0
    6.8705   -3.9798    0.1865 N   0  0  0  0  0  0  0  0  0  0  0  0
    7.2418   -3.0586   -0.6788 C   0  0  0  0  0  0  0  0  0  0  0  0
    6.4577   -2.3654   -1.4806 N   0  0  0  0  0  0  0  0  0  0  0  0
    5.1359   -2.6640   -1.4628 C   0  0  0  0  0  0  0  0  0  0  0  0
    4.3518   -1.8758   -2.4168 C   0  0  0  0  0  0  0  0  0  0  0  0
    3.6304   -2.2600   -3.4813 N   0  0  0  0  0  0  0  0  0  0  0  0
    3.2897   -1.0753   -4.1326 C   0  0  0  0  0  0  0  0  0  0  0  0
    3.8645   -0.0361   -3.4512 C   0  0  0  0  0  0  0  0  0  0  0  0
    4.5615   -0.5362   -2.3765 O   0  0  0  0  0  0  0  0  0  0  0  0
    4.6204   -3.6196   -0.5686 C   0  0  0  0  0  0  0  0  0  0  0  0
    0.4489   -3.4833   -1.9681 H   0  0  0  0  0  0  0  0  0  0  0  0
    0.7299   -4.7303   -0.7064 H   0  0  0  0  0  0  0  0  0  0  0  0
    1.3973   -4.9264   -2.2225 H   0  0  0  0  0  0  0  0  0  0  0  0
    3.3339   -6.2121    1.9682 H   0  0  0  0  0  0  0  0  0  0  0  0
    5.7783   -5.7193    1.8602 H   0  0  0  0  0  0  0  0  0  0  0  0
    8.2946   -2.8699   -0.7354 H   0  0  0  0  0  0  0  0  0  0  0  0
    2.6676   -1.0064   -5.0162 H   0  0  0  0  0  0  0  0  0  0  0  0
    3.8706    1.0276   -3.5664 H   0  0  0  0  0  0  0  0  0  0  0  0
  1  2  1  0
  1 18  1  0
  1 19  1  0
  1 20  1  0
  2  3  1  0
  3 17  2  0
  3  4  1  0
  4  5  2  0
  5  6  1  0
  5 21  1  0
  6  7  2  0
  6 22  1  0
  7 17  1  0
  7  8  1  0
  8  9  2  0
  9 10  1  0
  9 23  1  0
 10 11  2  0
 11 12  1  0
 11 17  1  0
 12 16  1  0
 12 13  2  0
 13 14  1  0
 14 15  2  0
 14 24  1  0
 15 16  1  0
 15 25  1  0
M  END
>  <i_m_ct_stereo_status>  (428) 
1

>  <s_m_source_file>  (428) 
/var/tmp/pbs.5076255.sched01/tmp1cu33jom/138ve8n868x.sdf

>  <i_m_source_file_index>  (428) 
28

>  <i_lp_mmshare_version>  (428) 
48012

>  <i_f3d_flags>  (428) 
0

>  <s_epik_input>  (428) 
W2NIXTFbY0hdbmMoT1tDSDNdKWMoYzEyKWMobltjSF1uMiktYzNuW2NIXVtjSF1vMw==

>  <s_epik_cmdline>  (428) 
J2VwaWtfcHl0aG9uJywgJy1waHQnLCAnMi4wJywgJy1waCcsICc3LjAnLCAnLXRuJywgJzgnLCAnLW1hJywgJzIwMCcsICctaW1hZScsICc8aW5maWxlLm1hZT4nLCAnLW9tYWUnLCAnPG91dGZpbGUubWFlPic=

>  <r_lp_tautomer_probability>  (428) 
1

>  <r_epik_Ionization_Penalty>  (428) 
6.4799e-07

>  <r_epik_Ionization_Penalty_Charging>  (428) 
0

>  <r_epik_Ionization_Penalty_Neutral>  (428) 
6.4799e-07

>  <r_epik_State_Penalty>  (428) 
-0

>  <r_epik_Charging_Adjusted_Penalty>  (428) 
0

>  <i_epik_Tot_Q>  (428) 
0

>  <i_epik_Tot_abs_Q>  (428) 
0

>  <s_lp_Force_Field>  (428) 
OPLS3e

>  <r_lp_Energy>  (428) 
35.0786

>  <b_lp_Chiralities_Consistent>  (428) 
1

>  <s_lp_Variant>  (428) 
111:0-1

>  <s_i_glide_gridfile>  (428) 
pfpi4k_grid

>  <i_i_glide_lignum>  (428) 
28

>  <i_i_glide_rotatable_bonds>  (428) 
2

>  <r_i_docking_score>  (428) 
-3.58697

>  <r_i_glide_ligand_efficiency>  (428) 
-0.210998

>  <r_i_glide_ligand_efficiency_sa>  (428) 
-0.542536

>  <r_i_glide_ligand_efficiency_ln>  (428) 
-0.935761

>  <r_i_glide_gscore>  (428) 
-3.58697

>  <r_i_glide_lipo>  (428) 
-0.367659

>  <r_i_glide_hbond>  (428) 
-0.0963917

>  <r_i_glide_metal>  (428) 
-0

>  <r_i_glide_rewards>  (428) 
-1.94833

>  <r_i_glide_evdw>  (428) 
-20.4121

>  <r_i_glide_ecoul>  (428) 
-3.20727

>  <r_i_glide_erotb>  (428) 
0.327107

>  <r_i_glide_esite>  (428) 
0

>  <r_i_glide_emodel>  (428) 
-26.5149

>  <r_i_glide_energy>  (428) 
-23.6194

>  <r_i_glide_einternal>  (428) 
6.28241

>  <r_i_glide_intrahb_reward>  (428) 
-0

>  <i_i_glide_confnum>  (428) 
1

>  <i_i_glide_posenum>  (428) 
12

>  <r_i_glide_eff_state_penalty>  (428) 
0

>  <ligand_id>  (428) 
111

>  <original_smiles>  (428) 
COc1nccc2ncnc(-c3ncco3)c12

>  <smiles>  (428) 
[H]c1nc(-c2nc([H])c([H])o2)c2c(OC([H])([H])[H])nc([H])c([H])c2n1

$$$$
111:0:2
     RDKit          3D

 25 27  0  0  1  0  0  0  0  0999 V2000
    6.9104   -6.1547    1.7926 C   0  0  0  0  0  0  0  0  0  0  0  0
    5.7421   -5.5984    1.1996 O   0  0  0  0  0  0  0  0  0  0  0  0
    5.8335   -4.5704    0.2938 C   0  0  0  0  0  0  0  0  0  0  0  0
    7.0814   -4.0856    0.1008 N   0  0  0  0  0  0  0  0  0  0  0  0
    7.2603   -3.0675   -0.7526 C   0  0  0  0  0  0  0  0  0  0  0  0
    6.2045   -2.4896   -1.4652 C   0  0  0  0  0  0  0  0  0  0  0  0
    4.9038   -2.9796   -1.2880 C   0  0  0  0  0  0  0  0  0  0  0  0
    3.9153   -2.4144   -1.9988 N   0  0  0  0  0  0  0  0  0  0  0  0
    2.6897   -2.8721   -1.7935 C   0  0  0  0  0  0  0  0  0  0  0  0
    2.3416   -3.8335   -0.9473 N   0  0  0  0  0  0  0  0  0  0  0  0
    3.3075   -4.4735   -0.2453 C   0  0  0  0  0  0  0  0  0  0  0  0
    2.7241   -5.5836    0.5546 C   0  0  0  0  0  0  0  0  0  0  0  0
    1.4203   -5.8688    0.7327 N   0  0  0  0  0  0  0  0  0  0  0  0
    1.3670   -6.9554    1.5957 C   0  0  0  0  0  0  0  0  0  0  0  0
    2.6543   -7.3158    1.8764 C   0  0  0  0  0  0  0  0  0  0  0  0
    3.4995   -6.4837    1.2067 O   0  0  0  0  0  0  0  0  0  0  0  0
    4.6802   -4.0542   -0.3719 C   0  0  0  0  0  0  0  0  0  0  0  0
    6.5949   -6.9668    2.4462 H   0  0  0  0  0  0  0  0  0  0  0  0
    7.4353   -5.4264    2.4097 H   0  0  0  0  0  0  0  0  0  0  0  0
    7.5901   -6.5773    1.0530 H   0  0  0  0  0  0  0  0  0  0  0  0
    8.2725   -2.7184   -0.8801 H   0  0  0  0  0  0  0  0  0  0  0  0
    6.3742   -1.6827   -2.1611 H   0  0  0  0  0  0  0  0  0  0  0  0
    1.9018   -2.4002   -2.3601 H   0  0  0  0  0  0  0  0  0  0  0  0
    0.4366   -7.3891    1.9412 H   0  0  0  0  0  0  0  0  0  0  0  0
    3.1222   -8.0857    2.4753 H   0  0  0  0  0  0  0  0  0  0  0  0
  1  2  1  0
  1 18  1  0
  1 19  1  0
  1 20  1  0
  2  3  1  0
  3 17  2  0
  3  4  1  0
  4  5  2  0
  5  6  1  0
  5 21  1  0
  6  7  2  0
  6 22  1  0
  7 17  1  0
  7  8  1  0
  8  9  2  0
  9 10  1  0
  9 23  1  0
 10 11  2  0
 11 12  1  0
 11 17  1  0
 12 16  1  0
 12 13  2  0
 13 14  1  0
 14 15  2  0
 14 24  1  0
 15 16  1  0
 15 25  1  0
M  END
>  <i_m_ct_stereo_status>  (429) 
1

>  <s_m_source_file>  (429) 
/var/tmp/pbs.5076255.sched01/tmp1cu33jom/138ve8n868x.sdf

>  <i_m_source_file_index>  (429) 
28

>  <i_lp_mmshare_version>  (429) 
48012

>  <i_f3d_flags>  (429) 
0

>  <s_epik_input>  (429) 
W2NIXTFbY0hdbmMoT1tDSDNdKWMoYzEyKWMobltjSF1uMiktYzNuW2NIXVtjSF1vMw==

>  <s_epik_cmdline>  (429) 
J2VwaWtfcHl0aG9uJywgJy1waHQnLCAnMi4wJywgJy1waCcsICc3LjAnLCAnLXRuJywgJzgnLCAnLW1hJywgJzIwMCcsICctaW1hZScsICc8aW5maWxlLm1hZT4nLCAnLW9tYWUnLCAnPG91dGZpbGUubWFlPic=

>  <r_lp_tautomer_probability>  (429) 
1

>  <r_epik_Ionization_Penalty>  (429) 
6.4799e-07

>  <r_epik_Ionization_Penalty_Charging>  (429) 
0

>  <r_epik_Ionization_Penalty_Neutral>  (429) 
6.4799e-07

>  <r_epik_State_Penalty>  (429) 
-0

>  <r_epik_Charging_Adjusted_Penalty>  (429) 
0

>  <i_epik_Tot_Q>  (429) 
0

>  <i_epik_Tot_abs_Q>  (429) 
0

>  <s_lp_Force_Field>  (429) 
OPLS3e

>  <r_lp_Energy>  (429) 
35.0786

>  <b_lp_Chiralities_Consistent>  (429) 
1

>  <s_lp_Variant>  (429) 
111:0-1

>  <s_i_glide_gridfile>  (429) 
pfpi4k_grid

>  <i_i_glide_lignum>  (429) 
28

>  <i_i_glide_rotatable_bonds>  (429) 
2

>  <r_i_docking_score>  (429) 
-3.56096

>  <r_i_glide_ligand_efficiency>  (429) 
-0.209468

>  <r_i_glide_ligand_efficiency_sa>  (429) 
-0.538602

>  <r_i_glide_ligand_efficiency_ln>  (429) 
-0.928975

>  <r_i_glide_gscore>  (429) 
-3.56096

>  <r_i_glide_lipo>  (429) 
-0.248077

>  <r_i_glide_hbond>  (429) 
-0.156949

>  <r_i_glide_metal>  (429) 
-0

>  <r_i_glide_rewards>  (429) 
-1.85314

>  <r_i_glide_evdw>  (429) 
-19.0664

>  <r_i_glide_ecoul>  (429) 
-4.38747

>  <r_i_glide_erotb>  (429) 
0.327107

>  <r_i_glide_esite>  (429) 
-0.0184665

>  <r_i_glide_emodel>  (429) 
-28.4745

>  <r_i_glide_energy>  (429) 
-23.4539

>  <r_i_glide_einternal>  (429) 
2.5885

>  <r_i_glide_intrahb_reward>  (429) 
-0

>  <i_i_glide_confnum>  (429) 
5

>  <i_i_glide_posenum>  (429) 
40

>  <r_i_glide_eff_state_penalty>  (429) 
0

>  <ligand_id>  (429) 
111

>  <original_smiles>  (429) 
COc1nccc2ncnc(-c3ncco3)c12

>  <smiles>  (429) 
[H]c1nc(-c2nc([H])c([H])o2)c2c(OC([H])([H])[H])nc([H])c([H])c2n1

$$$$
113:1:0
     RDKit          3D

 67 73  0  0  1  0  0  0  0  0999 V2000
    8.0376   -4.6292    1.4515 C   0  0  0  0  0  0  0  0  0  0  0  0
    7.0463   -3.4857    1.2665 C   0  0  0  0  0  0  0  0  0  0  0  0
    7.3384   -2.5119    0.5651 O   0  0  0  0  0  0  0  0  0  0  0  0
    5.8535   -3.7244    1.8989 O   0  0  0  0  0  0  0  0  0  0  0  0
    4.6109   -3.0805    1.5862 C   0  0  1  0  0  0  0  0  0  0  0  0
    4.5751   -3.0367    0.0296 C   0  0  1  0  0  0  0  0  0  0  0  0
    3.2096   -2.6147   -0.4011 C   0  0  2  0  0  0  0  0  0  0  0  0
    2.4574   -3.9087   -0.3911 C   0  0  0  0  0  0  0  0  0  0  0  0
    2.7657   -4.8103    0.8583 C   0  0  1  0  0  0  0  0  0  0  0  0
    3.5314   -6.1027    0.4883 C   0  0  0  0  0  0  0  0  0  0  0  0
    3.4512   -4.0779    2.0616 C   0  0  2  0  0  0  0  0  0  0  0  0
    2.4674   -3.1905    2.6070 O   0  0  0  0  0  0  0  0  0  0  0  0
    3.0876   -2.1760    3.3913 C   0  0  2  0  0  0  0  0  0  0  0  0
    2.1272   -0.9466    3.4150 C   0  0  1  0  0  0  0  0  0  0  0  0
    1.9963   -0.3794    4.7065 O   0  0  0  0  0  0  0  0  0  0  0  0
    2.7910    0.0247    2.4939 C   0  0  0  0  0  0  0  0  0  0  0  0
    2.2010    1.4189    2.3292 C   0  0  0  0  0  0  0  0  0  0  0  0
    3.9267   -0.4456    1.9699 C   0  0  0  0  0  0  0  0  0  0  0  0
    4.3349   -1.8084    2.5038 C   0  0  2  0  0  0  0  0  0  0  0  0
    3.3839   -2.8209    4.7468 C   0  0  0  0  0  0  0  0  0  0  0  0
    4.6279   -3.5541    4.8007 C   0  0  0  0  0  0  0  0  0  0  0  0
    5.7627   -3.1477    5.0132 O   0  0  0  0  0  0  0  0  0  0  0  0
    4.2065   -4.9352    4.6049 C   0  0  2  0  0  0  0  0  0  0  0  0
    3.1180   -4.9836    5.6609 C   0  0  0  0  0  0  0  0  0  0  0  0
    2.5120   -3.6162    5.4016 C   0  0  0  0  0  0  0  0  0  0  0  0
    1.0022   -3.4919    5.4891 C   0  0  0  0  0  0  0  0  0  0  0  0
    4.8798   -5.9508    3.6752 C   0  0  1  0  0  0  0  0  0  0  0  0
    4.7684   -7.4269    3.9978 C   0  0  0  0  0  0  0  0  0  0  0  0
    5.1399   -8.1766    2.8611 O   0  0  0  0  0  0  0  0  0  0  0  0
    3.6643   -5.1776    3.1836 C   0  0  2  0  0  0  0  0  0  0  0  0
    4.4332   -2.1289   -1.1526 C   0  0  0  0  0  0  0  0  0  0  0  0
    4.9722   -0.7250   -1.0534 C   0  0  0  0  0  0  0  0  0  0  0  0
    4.6658   -2.6664   -2.5572 C   0  0  0  0  0  0  0  0  0  0  0  0
    7.5539   -5.5717    1.1914 H   0  0  0  0  0  0  0  0  0  0  0  0
    8.3791   -4.6981    2.4748 H   0  0  0  0  0  0  0  0  0  0  0  0
    8.9169   -4.4993    0.8154 H   0  0  0  0  0  0  0  0  0  0  0  0
    4.9625   -3.9736   -0.3676 H   0  0  0  0  0  0  0  0  0  0  0  0
    2.6991   -1.8512    0.1811 H   0  0  0  0  0  0  0  0  0  0  0  0
    1.4100   -3.5949   -0.3932 H   0  0  0  0  0  0  0  0  0  0  0  0
    2.5751   -4.4128   -1.3377 H   0  0  0  0  0  0  0  0  0  0  0  0
    1.8066   -5.1815    1.2115 H   0  0  0  0  0  0  0  0  0  0  0  0
    4.5557   -5.9888    0.1234 H   0  0  0  0  0  0  0  0  0  0  0  0
    2.9809   -6.5222   -0.3095 H   0  0  0  0  0  0  0  0  0  0  0  0
    3.4740   -6.8902    1.2412 H   0  0  0  0  0  0  0  0  0  0  0  0
    1.1373   -1.1732    3.0074 H   0  0  0  0  0  0  0  0  0  0  0  0
    1.4588    0.3932    4.6386 H   0  0  0  0  0  0  0  0  0  0  0  0
    2.0867    1.9212    3.2924 H   0  0  0  0  0  0  0  0  0  0  0  0
    1.2108    1.3405    1.8887 H   0  0  0  0  0  0  0  0  0  0  0  0
    2.8130    2.0573    1.6981 H   0  0  0  0  0  0  0  0  0  0  0  0
    4.5802    0.1491    1.3662 H   0  0  0  0  0  0  0  0  0  0  0  0
    5.2170   -1.5630    3.0995 H   0  0  0  0  0  0  0  0  0  0  0  0
    3.5400   -5.0232    6.6663 H   0  0  0  0  0  0  0  0  0  0  0  0
    2.4204   -5.8022    5.5115 H   0  0  0  0  0  0  0  0  0  0  0  0
    0.5288   -4.4511    5.2971 H   0  0  0  0  0  0  0  0  0  0  0  0
    0.5965   -2.7673    4.7896 H   0  0  0  0  0  0  0  0  0  0  0  0
    0.7344   -3.1863    6.4975 H   0  0  0  0  0  0  0  0  0  0  0  0
    5.8730   -5.6718    3.3334 H   0  0  0  0  0  0  0  0  0  0  0  0
    5.4390   -7.6579    4.8267 H   0  0  0  0  0  0  0  0  0  0  0  0
    3.7533   -7.6970    4.3063 H   0  0  0  0  0  0  0  0  0  0  0  0
    4.5140   -8.0038    2.1788 H   0  0  0  0  0  0  0  0  0  0  0  0
    2.7614   -5.7807    3.2273 H   0  0  0  0  0  0  0  0  0  0  0  0
    5.3603   -0.3595   -2.0042 H   0  0  0  0  0  0  0  0  0  0  0  0
    5.7475   -0.6685   -0.2916 H   0  0  0  0  0  0  0  0  0  0  0  0
    4.1713   -0.0805   -0.7382 H   0  0  0  0  0  0  0  0  0  0  0  0
    4.0695   -2.0932   -3.2679 H   0  0  0  0  0  0  0  0  0  0  0  0
    4.3581   -3.7125   -2.6164 H   0  0  0  0  0  0  0  0  0  0  0  0
    5.7219   -2.6071   -2.8274 H   0  0  0  0  0  0  0  0  0  0  0  0
  1  2  1  0
  1 34  1  0
  1 35  1  0
  1 36  1  0
  2  3  2  0
  2  4  1  0
  5  4  1  6
  5 11  1  0
  5 19  1  0
  5  6  1  0
  6 31  1  0
  6  7  1  0
  6 37  1  6
  7  8  1  0
  7 31  1  0
  7 38  1  1
  8  9  1  0
  8 39  1  0
  8 40  1  0
  9 10  1  0
  9 11  1  0
  9 41  1  1
 10 42  1  0
 10 43  1  0
 10 44  1  0
 11 30  1  0
 11 12  1  1
 12 13  1  0
 13 19  1  0
 13 14  1  0
 13 20  1  1
 14 15  1  0
 14 16  1  0
 14 45  1  6
 15 46  1  0
 16 17  1  0
 16 18  2  0
 17 47  1  0
 17 48  1  0
 17 49  1  0
 18 19  1  0
 18 50  1  0
 19 51  1  1
 20 25  2  0
 20 21  1  0
 21 22  2  0
 21 23  1  0
 23 24  1  1
 23 30  1  0
 23 27  1  0
 24 53  1  0
 24 52  1  0
 24 25  1  0
 25 26  1  0
 26 54  1  0
 26 55  1  0
 26 56  1  0
 27 28  1  0
 27 30  1  0
 27 57  1  6
 28 29  1  0
 28 58  1  0
 28 59  1  0
 29 60  1  0
 30 61  1  1
 31 32  1  0
 31 33  1  0
 32 62  1  0
 32 63  1  0
 32 64  1  0
 33 65  1  0
 33 66  1  0
 33 67  1  0
M  END
>  <i_m_ct_stereo_status>  (430) 
1

>  <s_m_source_file>  (430) 
/var/tmp/pbs.5076255.sched01/tmp1cu33jom/138ve8n868x.sdf

>  <i_m_source_file_index>  (430) 
31

>  <i_lp_mmshare_version>  (430) 
48012

>  <i_f3d_flags>  (430) 
0

>  <s_epik_input>  (430) 
W0NIM11bQ0BASF0xW0NIMl1bQ0BIXShDMihbQ0gzXSlbQ0gzXSlbQ0BASF0yW0NAQF0oW0NAXTEzNCkoT0MoPU8pW0NIM10pW0NAQEhdNVtDQF0oTzMpKFtDQEBIXShbT0hdKUMoW0NIM10pPVtDSF01KVtDQEBIXTZDKD1PKVtDQEBdNyhbQ0hdPUM2W0NIM10pW0NAQEhdNFtDQEBIXTdbQ0gyXVtPSF0=

>  <s_epik_cmdline>  (430) 
J2VwaWtfcHl0aG9uJywgJy1waHQnLCAnMi4wJywgJy1waCcsICc3LjAnLCAnLXRuJywgJzgnLCAnLW1hJywgJzIwMCcsICctaW1hZScsICc8aW5maWxlLm1hZT4nLCAnLW9tYWUnLCAnPG91dGZpbGUubWFlPic=

>  <r_lp_tautomer_probability>  (430) 
1

>  <r_epik_Ionization_Penalty>  (430) 
1.28972e-05

>  <r_epik_Ionization_Penalty_Charging>  (430) 
0

>  <r_epik_Ionization_Penalty_Neutral>  (430) 
1.28972e-05

>  <r_epik_State_Penalty>  (430) 
-0

>  <r_epik_Charging_Adjusted_Penalty>  (430) 
0

>  <i_epik_Tot_Q>  (430) 
0

>  <i_epik_Tot_abs_Q>  (430) 
0

>  <s_epik_Chemistry_Notes>  (430) 
This compound has an ester and may undergo hydrolysis at high or low pH.

>  <s_lp_Force_Field>  (430) 
OPLS3e

>  <r_lp_Energy>  (430) 
114.882

>  <b_lp_Chiralities_Consistent>  (430) 
1

>  <s_lp_Variant>  (430) 
113:0-2

>  <s_i_glide_gridfile>  (430) 
pfpi4k_grid

>  <i_i_glide_lignum>  (430) 
31

>  <i_i_glide_rotatable_bonds>  (430) 
5

>  <r_i_docking_score>  (430) 
-1.53221

>  <r_i_glide_ligand_efficiency>  (430) 
-0.0464306

>  <r_i_glide_ligand_efficiency_sa>  (430) 
-0.148928

>  <r_i_glide_ligand_efficiency_ln>  (430) 
-0.340755

>  <r_i_glide_gscore>  (430) 
-1.53221

>  <r_i_glide_lipo>  (430) 
-0.404144

>  <r_i_glide_hbond>  (430) 
0

>  <r_i_glide_metal>  (430) 
-0

>  <r_i_glide_rewards>  (430) 
-0.395748

>  <r_i_glide_evdw>  (430) 
-15.1649

>  <r_i_glide_ecoul>  (430) 
-1.12306

>  <r_i_glide_erotb>  (430) 
0.194386

>  <r_i_glide_esite>  (430) 
0

>  <r_i_glide_emodel>  (430) 
-10.2157

>  <r_i_glide_energy>  (430) 
-16.2879

>  <r_i_glide_einternal>  (430) 
9.84446

>  <r_i_glide_intrahb_reward>  (430) 
-0

>  <i_i_glide_confnum>  (430) 
2

>  <i_i_glide_posenum>  (430) 
1

>  <r_i_glide_eff_state_penalty>  (430) 
0

>  <ligand_id>  (430) 
113

>  <original_smiles>  (430) 
CC(=O)OC12C3C(CC(C)C14OC1(C(O)C(C)=CC12)C1C(=O)C2(C=C1C)C(CO)C24)C3(C)C

>  <smiles>  (430) 
[H]OC([H])([H])C1([H])C2([H])C34OC5(C6=C(C([H])([H])[H])C([H])([H])C12C6=O)C([H])(O[H])C(C([H])([H])[H])=C([H])C5([H])C3(OC(=O)C([H])([H])[H])C1([H])C([H])(C([H])([H])C4([H])C([H])([H])[H])C1(C([H])([H])[H])C([H])([H])[H]

$$$$
113:1:1
     RDKit          3D

 67 73  0  0  1  0  0  0  0  0999 V2000
    7.8239   -5.0256    1.7065 C   0  0  0  0  0  0  0  0  0  0  0  0
    6.9142   -3.8481    1.3994 C   0  0  0  0  0  0  0  0  0  0  0  0
    7.3265   -2.8962    0.7316 O   0  0  0  0  0  0  0  0  0  0  0  0
    5.6740   -3.9880    1.9659 O   0  0  0  0  0  0  0  0  0  0  0  0
    4.5320   -3.1679    1.6705 C   0  0  1  0  0  0  0  0  0  0  0  0
    4.5712   -3.0060    0.1262 C   0  0  1  0  0  0  0  0  0  0  0  0
    3.2787   -2.3747   -0.2892 C   0  0  2  0  0  0  0  0  0  0  0  0
    2.3531   -3.5430   -0.4306 C   0  0  0  0  0  0  0  0  0  0  0  0
    2.4789   -4.5722    0.7468 C   0  0  1  0  0  0  0  0  0  0  0  0
    2.9699   -5.9288    0.2273 C   0  0  0  0  0  0  0  0  0  0  0  0
    3.2340   -4.0381    2.0158 C   0  0  2  0  0  0  0  0  0  0  0  0
    2.3660   -3.0546    2.6161 O   0  0  0  0  0  0  0  0  0  0  0  0
    3.0834   -2.2000    3.5188 C   0  0  2  0  0  0  0  0  0  0  0  0
    2.3096   -0.8543    3.6317 C   0  0  1  0  0  0  0  0  0  0  0  0
    2.2228   -0.3782    4.9594 O   0  0  0  0  0  0  0  0  0  0  0  0
    3.1311    0.0861    2.8027 C   0  0  0  0  0  0  0  0  0  0  0  0
    2.7319    1.5500    2.7256 C   0  0  0  0  0  0  0  0  0  0  0  0
    4.1969   -0.5003    2.2563 C   0  0  0  0  0  0  0  0  0  0  0  0
    4.3955   -1.9441    2.6787 C   0  0  2  0  0  0  0  0  0  0  0  0
    3.2758   -2.9663    4.8311 C   0  0  0  0  0  0  0  0  0  0  0  0
    4.4005   -3.8873    4.8029 C   0  0  0  0  0  0  0  0  0  0  0  0
    5.5843   -3.6578    5.0273 O   0  0  0  0  0  0  0  0  0  0  0  0
    3.7718   -5.1822    4.5236 C   0  0  2  0  0  0  0  0  0  0  0  0
    2.6647   -5.1301    5.5671 C   0  0  0  0  0  0  0  0  0  0  0  0
    2.2658   -3.6787    5.3998 C   0  0  0  0  0  0  0  0  0  0  0  0
    0.7858   -3.3639    5.4711 C   0  0  0  0  0  0  0  0  0  0  0  0
    4.3018   -6.2096    3.5321 C   0  0  1  0  0  0  0  0  0  0  0  0
    3.9832   -7.6873    3.7190 C   0  0  0  0  0  0  0  0  0  0  0  0
    2.6606   -7.9410    4.1666 O   0  0  0  0  0  0  0  0  0  0  0  0
    3.2377   -5.2248    3.0769 C   0  0  2  0  0  0  0  0  0  0  0  0
    4.5551   -1.9875   -0.9802 C   0  0  0  0  0  0  0  0  0  0  0  0
    5.2283   -0.6590   -0.7552 C   0  0  0  0  0  0  0  0  0  0  0  0
    4.7412   -2.4271   -2.4211 C   0  0  0  0  0  0  0  0  0  0  0  0
    7.3315   -5.9539    1.4198 H   0  0  0  0  0  0  0  0  0  0  0  0
    8.0601   -5.0665    2.7699 H   0  0  0  0  0  0  0  0  0  0  0  0
    8.7559   -4.9345    1.1493 H   0  0  0  0  0  0  0  0  0  0  0  0
    4.8290   -3.9519   -0.3292 H   0  0  0  0  0  0  0  0  0  0  0  0
    2.8503   -1.5969    0.3283 H   0  0  0  0  0  0  0  0  0  0  0  0
    1.4003   -3.0578   -0.3836 H   0  0  0  0  0  0  0  0  0  0  0  0
    2.4158   -4.0004   -1.4187 H   0  0  0  0  0  0  0  0  0  0  0  0
    1.4741   -4.8211    1.0769 H   0  0  0  0  0  0  0  0  0  0  0  0
    4.0036   -5.9322   -0.1172 H   0  0  0  0  0  0  0  0  0  0  0  0
    2.3206   -6.1907   -0.6001 H   0  0  0  0  0  0  0  0  0  0  0  0
    2.8486   -6.7409    0.9436 H   0  0  0  0  0  0  0  0  0  0  0  0
    1.3106   -0.9081    3.1958 H   0  0  0  0  0  0  0  0  0  0  0  0
    1.7625    0.4501    4.9583 H   0  0  0  0  0  0  0  0  0  0  0  0
    2.7042    2.0114    3.7167 H   0  0  0  0  0  0  0  0  0  0  0  0
    1.7320    1.6440    2.2981 H   0  0  0  0  0  0  0  0  0  0  0  0
    3.4021    2.1279    2.1176 H   0  0  0  0  0  0  0  0  0  0  0  0
    4.9515    0.0494    1.7184 H   0  0  0  0  0  0  0  0  0  0  0  0
    5.2847   -1.8662    3.3082 H   0  0  0  0  0  0  0  0  0  0  0  0
    3.0564   -5.3284    6.5672 H   0  0  0  0  0  0  0  0  0  0  0  0
    1.8434   -5.8017    5.3424 H   0  0  0  0  0  0  0  0  0  0  0  0
    0.1914   -4.2322    5.1895 H   0  0  0  0  0  0  0  0  0  0  0  0
    0.5009   -2.5400    4.8266 H   0  0  0  0  0  0  0  0  0  0  0  0
    0.5295   -3.1105    6.4974 H   0  0  0  0  0  0  0  0  0  0  0  0
    5.3269   -6.0595    3.1953 H   0  0  0  0  0  0  0  0  0  0  0  0
    4.1329   -8.1997    2.7681 H   0  0  0  0  0  0  0  0  0  0  0  0
    4.6920   -8.1048    4.4346 H   0  0  0  0  0  0  0  0  0  0  0  0
    2.5187   -8.8753    4.2699 H   0  0  0  0  0  0  0  0  0  0  0  0
    2.2451   -5.6606    3.0445 H   0  0  0  0  0  0  0  0  0  0  0  0
    5.7137   -0.2990   -1.6644 H   0  0  0  0  0  0  0  0  0  0  0  0
    5.9883   -0.7619    0.0242 H   0  0  0  0  0  0  0  0  0  0  0  0
    4.4830    0.0715   -0.4433 H   0  0  0  0  0  0  0  0  0  0  0  0
    4.2488   -1.7200   -3.0917 H   0  0  0  0  0  0  0  0  0  0  0  0
    4.2940   -3.4093   -2.5792 H   0  0  0  0  0  0  0  0  0  0  0  0
    5.8008   -2.4957   -2.6765 H   0  0  0  0  0  0  0  0  0  0  0  0
  1  2  1  0
  1 34  1  0
  1 35  1  0
  1 36  1  0
  2  3  2  0
  2  4  1  0
  5  4  1  1
  5 11  1  0
  5 19  1  0
  5  6  1  0
  6 31  1  0
  6  7  1  0
  6 37  1  6
  7  8  1  0
  7 31  1  0
  7 38  1  1
  8  9  1  0
  8 39  1  0
  8 40  1  0
  9 10  1  0
  9 11  1  0
  9 41  1  1
 10 42  1  0
 10 43  1  0
 10 44  1  0
 11 30  1  0
 11 12  1  1
 12 13  1  0
 13 19  1  0
 13 14  1  0
 13 20  1  1
 14 15  1  0
 14 16  1  0
 14 45  1  6
 15 46  1  0
 16 17  1  0
 16 18  2  0
 17 47  1  0
 17 48  1  0
 17 49  1  0
 18 19  1  0
 18 50  1  0
 19 51  1  1
 20 25  2  0
 20 21  1  0
 21 22  2  0
 21 23  1  0
 23 24  1  1
 23 30  1  0
 23 27  1  0
 24 53  1  0
 24 52  1  0
 24 25  1  0
 25 26  1  0
 26 54  1  0
 26 55  1  0
 26 56  1  0
 27 28  1  0
 27 30  1  0
 27 57  1  6
 28 29  1  0
 28 58  1  0
 28 59  1  0
 29 60  1  0
 30 61  1  1
 31 32  1  0
 31 33  1  0
 32 62  1  0
 32 63  1  0
 32 64  1  0
 33 65  1  0
 33 66  1  0
 33 67  1  0
M  END
>  <i_m_ct_stereo_status>  (431) 
1

>  <s_m_source_file>  (431) 
/var/tmp/pbs.5076255.sched01/tmp1cu33jom/138ve8n868x.sdf

>  <i_m_source_file_index>  (431) 
31

>  <i_lp_mmshare_version>  (431) 
48012

>  <i_f3d_flags>  (431) 
0

>  <s_epik_input>  (431) 
W0NIM11bQ0BASF0xW0NIMl1bQ0BIXShDMihbQ0gzXSlbQ0gzXSlbQ0BASF0yW0NAQF0oW0NAXTEzNCkoT0MoPU8pW0NIM10pW0NAQEhdNVtDQF0oTzMpKFtDQEBIXShbT0hdKUMoW0NIM10pPVtDSF01KVtDQEBIXTZDKD1PKVtDQEBdNyhbQ0hdPUM2W0NIM10pW0NAQEhdNFtDQEBIXTdbQ0gyXVtPSF0=

>  <s_epik_cmdline>  (431) 
J2VwaWtfcHl0aG9uJywgJy1waHQnLCAnMi4wJywgJy1waCcsICc3LjAnLCAnLXRuJywgJzgnLCAnLW1hJywgJzIwMCcsICctaW1hZScsICc8aW5maWxlLm1hZT4nLCAnLW9tYWUnLCAnPG91dGZpbGUubWFlPic=

>  <r_lp_tautomer_probability>  (431) 
1

>  <r_epik_Ionization_Penalty>  (431) 
1.28972e-05

>  <r_epik_Ionization_Penalty_Charging>  (431) 
0

>  <r_epik_Ionization_Penalty_Neutral>  (431) 
1.28972e-05

>  <r_epik_State_Penalty>  (431) 
-0

>  <r_epik_Charging_Adjusted_Penalty>  (431) 
0

>  <i_epik_Tot_Q>  (431) 
0

>  <i_epik_Tot_abs_Q>  (431) 
0

>  <s_epik_Chemistry_Notes>  (431) 
This compound has an ester and may undergo hydrolysis at high or low pH.

>  <s_lp_Force_Field>  (431) 
OPLS3e

>  <r_lp_Energy>  (431) 
114.882

>  <b_lp_Chiralities_Consistent>  (431) 
1

>  <s_lp_Variant>  (431) 
113:0-2

>  <s_i_glide_gridfile>  (431) 
pfpi4k_grid

>  <i_i_glide_lignum>  (431) 
31

>  <i_i_glide_rotatable_bonds>  (431) 
5

>  <r_i_docking_score>  (431) 
-1.37985

>  <r_i_glide_ligand_efficiency>  (431) 
-0.0418137

>  <r_i_glide_ligand_efficiency_sa>  (431) 
-0.134119

>  <r_i_glide_ligand_efficiency_ln>  (431) 
-0.306872

>  <r_i_glide_gscore>  (431) 
-1.37985

>  <r_i_glide_lipo>  (431) 
-0.331976

>  <r_i_glide_hbond>  (431) 
0

>  <r_i_glide_metal>  (431) 
-0

>  <r_i_glide_rewards>  (431) 
-0.414237

>  <r_i_glide_evdw>  (431) 
-15.058

>  <r_i_glide_ecoul>  (431) 
-0.500807

>  <r_i_glide_erotb>  (431) 
0.194386

>  <r_i_glide_esite>  (431) 
0

>  <r_i_glide_emodel>  (431) 
-7.80359

>  <r_i_glide_energy>  (431) 
-15.5589

>  <r_i_glide_einternal>  (431) 
11.582

>  <r_i_glide_intrahb_reward>  (431) 
-0

>  <i_i_glide_confnum>  (431) 
1

>  <i_i_glide_posenum>  (431) 
18

>  <r_i_glide_eff_state_penalty>  (431) 
0

>  <ligand_id>  (431) 
113

>  <original_smiles>  (431) 
CC(=O)OC12C3C(CC(C)C14OC1(C(O)C(C)=CC12)C1C(=O)C2(C=C1C)C(CO)C24)C3(C)C

>  <smiles>  (431) 
[H]OC([H])([H])C1([H])C2([H])C34OC5(C6=C(C([H])([H])[H])C([H])([H])C12C6=O)C([H])(O[H])C(C([H])([H])[H])=C([H])C5([H])C3(OC(=O)C([H])([H])[H])C1([H])C([H])(C([H])([H])C4([H])C([H])([H])[H])C1(C([H])([H])[H])C([H])([H])[H]

$$$$
113:1:2
     RDKit          3D

 67 73  0  0  1  0  0  0  0  0999 V2000
    6.3838   -0.9574    1.0585 C   0  0  0  0  0  0  0  0  0  0  0  0
    6.6025   -2.4388    1.2744 C   0  0  0  0  0  0  0  0  0  0  0  0
    7.6565   -2.9755    0.8551 O   0  0  0  0  0  0  0  0  0  0  0  0
    5.6214   -3.1502    1.8789 O   0  0  0  0  0  0  0  0  0  0  0  0
    4.2153   -3.0019    1.6137 C   0  0  1  0  0  0  0  0  0  0  0  0
    4.1463   -3.1542    0.0602 C   0  0  1  0  0  0  0  0  0  0  0  0
    2.6747   -3.2718   -0.2750 C   0  0  2  0  0  0  0  0  0  0  0  0
    2.3100   -4.7299    0.0356 C   0  0  0  0  0  0  0  0  0  0  0  0
    3.0159   -5.3362    1.2685 C   0  0  1  0  0  0  0  0  0  0  0  0
    4.0828   -6.4137    0.8882 C   0  0  0  0  0  0  0  0  0  0  0  0
    3.4822   -4.2552    2.2925 C   0  0  2  0  0  0  0  0  0  0  0  0
    2.2725   -3.6666    2.8085 O   0  0  0  0  0  0  0  0  0  0  0  0
    2.5337   -2.3917    3.3935 C   0  0  2  0  0  0  0  0  0  0  0  0
    1.2496   -1.5141    3.3563 C   0  0  1  0  0  0  0  0  0  0  0  0
    0.9677   -0.8440    4.5733 O   0  0  0  0  0  0  0  0  0  0  0  0
    1.5267   -0.5270    2.2572 C   0  0  0  0  0  0  0  0  0  0  0  0
    0.5291    0.5746    1.9650 C   0  0  0  0  0  0  0  0  0  0  0  0
    2.7282   -0.7106    1.6964 C   0  0  0  0  0  0  0  0  0  0  0  0
    3.5575   -1.7783    2.3730 C   0  0  2  0  0  0  0  0  0  0  0  0
    3.0885   -2.6952    4.7913 C   0  0  0  0  0  0  0  0  0  0  0  0
    4.5073   -2.9570    4.7940 C   0  0  0  0  0  0  0  0  0  0  0  0
    5.4144   -2.1534    4.7984 O   0  0  0  0  0  0  0  0  0  0  0  0
    4.5808   -4.4269    4.8332 C   0  0  2  0  0  0  0  0  0  0  0  0
    3.6193   -4.6618    5.9848 C   0  0  0  0  0  0  0  0  0  0  0  0
    2.5779   -3.6183    5.6101 C   0  0  0  0  0  0  0  0  0  0  0  0
    1.1212   -3.9661    5.8280 C   0  0  0  0  0  0  0  0  0  0  0  0
    5.5065   -5.2938    3.9897 C   0  0  1  0  0  0  0  0  0  0  0  0
    5.9041   -6.6753    4.4943 C   0  0  0  0  0  0  0  0  0  0  0  0
    7.0351   -6.5680    5.3313 O   0  0  0  0  0  0  0  0  0  0  0  0
    4.0949   -5.0469    3.5179 C   0  0  2  0  0  0  0  0  0  0  0  0
    3.6267   -2.5261   -1.2306 C   0  0  0  0  0  0  0  0  0  0  0  0
    3.5745   -1.0247   -1.4854 C   0  0  0  0  0  0  0  0  0  0  0  0
    3.9482   -3.1590   -2.5704 C   0  0  0  0  0  0  0  0  0  0  0  0
    6.1052   -0.3811    1.9573 H   0  0  0  0  0  0  0  0  0  0  0  0
    5.5368   -0.9958    0.3753 H   0  0  0  0  0  0  0  0  0  0  0  0
    7.1870   -0.4337    0.5344 H   0  0  0  0  0  0  0  0  0  0  0  0
    4.8034   -3.9691   -0.2425 H   0  0  0  0  0  0  0  0  0  0  0  0
    1.9877   -2.6313    0.2263 H   0  0  0  0  0  0  0  0  0  0  0  0
    1.2364   -4.8726    0.0931 H   0  0  0  0  0  0  0  0  0  0  0  0
    2.5343   -5.3332   -0.7800 H   0  0  0  0  0  0  0  0  0  0  0  0
    2.2376   -5.9283    1.7409 H   0  0  0  0  0  0  0  0  0  0  0  0
    4.9987   -6.0155    0.4535 H   0  0  0  0  0  0  0  0  0  0  0  0
    3.6988   -7.1134    0.1498 H   0  0  0  0  0  0  0  0  0  0  0  0
    4.3575   -7.0341    1.7455 H   0  0  0  0  0  0  0  0  0  0  0  0
    0.3761   -2.1002    3.0704 H   0  0  0  0  0  0  0  0  0  0  0  0
    1.7329   -0.3374    4.8232 H   0  0  0  0  0  0  0  0  0  0  0  0
    0.3069    1.1764    2.8464 H   0  0  0  0  0  0  0  0  0  0  0  0
   -0.4173    0.1471    1.6610 H   0  0  0  0  0  0  0  0  0  0  0  0
    0.8458    1.2449    1.1660 H   0  0  0  0  0  0  0  0  0  0  0  0
    3.1245   -0.0317    0.9579 H   0  0  0  0  0  0  0  0  0  0  0  0
    4.2992   -1.1582    2.8873 H   0  0  0  0  0  0  0  0  0  0  0  0
    4.0832   -4.4133    6.9369 H   0  0  0  0  0  0  0  0  0  0  0  0
    3.2255   -5.6764    6.0015 H   0  0  0  0  0  0  0  0  0  0  0  0
    0.9831   -5.0412    5.8008 H   0  0  0  0  0  0  0  0  0  0  0  0
    0.4737   -3.5124    5.0814 H   0  0  0  0  0  0  0  0  0  0  0  0
    0.8242   -3.6082    6.8094 H   0  0  0  0  0  0  0  0  0  0  0  0
    6.3182   -4.7980    3.4762 H   0  0  0  0  0  0  0  0  0  0  0  0
    5.0773   -7.1376    5.0398 H   0  0  0  0  0  0  0  0  0  0  0  0
    6.1501   -7.3073    3.6389 H   0  0  0  0  0  0  0  0  0  0  0  0
    7.3175   -7.4421    5.5750 H   0  0  0  0  0  0  0  0  0  0  0  0
    3.4403   -5.8902    3.7168 H   0  0  0  0  0  0  0  0  0  0  0  0
    3.7497   -0.7765   -2.5344 H   0  0  0  0  0  0  0  0  0  0  0  0
    4.2160   -0.4202   -0.8574 H   0  0  0  0  0  0  0  0  0  0  0  0
    2.6243   -0.6848   -1.2007 H   0  0  0  0  0  0  0  0  0  0  0  0
    3.1344   -2.9585   -3.2883 H   0  0  0  0  0  0  0  0  0  0  0  0
    4.0467   -4.2311   -2.4423 H   0  0  0  0  0  0  0  0  0  0  0  0
    4.9086   -2.7921   -2.9650 H   0  0  0  0  0  0  0  0  0  0  0  0
  1  2  1  0
  1 34  1  0
  1 35  1  0
  1 36  1  0
  2  3  2  0
  2  4  1  0
  5  4  1  1
  5 11  1  0
  5 19  1  0
  5  6  1  0
  6 31  1  0
  6  7  1  0
  6 37  1  6
  7  8  1  0
  7 31  1  0
  7 38  1  1
  8  9  1  0
  8 39  1  0
  8 40  1  0
  9 10  1  0
  9 11  1  0
  9 41  1  1
 10 42  1  0
 10 43  1  0
 10 44  1  0
 11 30  1  0
 11 12  1  1
 12 13  1  0
 13 19  1  0
 13 14  1  0
 13 20  1  1
 14 15  1  0
 14 16  1  0
 14 45  1  6
 15 46  1  0
 16 17  1  0
 16 18  2  0
 17 47  1  0
 17 48  1  0
 17 49  1  0
 18 19  1  0
 18 50  1  0
 19 51  1  1
 20 25  2  0
 20 21  1  0
 21 22  2  0
 21 23  1  0
 23 24  1  1
 23 30  1  0
 23 27  1  0
 24 53  1  0
 24 52  1  0
 24 25  1  0
 25 26  1  0
 26 54  1  0
 26 55  1  0
 26 56  1  0
 27 28  1  0
 27 30  1  0
 27 57  1  6
 28 29  1  0
 28 58  1  0
 28 59  1  0
 29 60  1  0
 30 61  1  1
 31 32  1  0
 31 33  1  0
 32 62  1  0
 32 63  1  0
 32 64  1  0
 33 65  1  0
 33 66  1  0
 33 67  1  0
M  END
>  <i_m_ct_stereo_status>  (432) 
1

>  <s_m_source_file>  (432) 
/var/tmp/pbs.5076255.sched01/tmp1cu33jom/138ve8n868x.sdf

>  <i_m_source_file_index>  (432) 
31

>  <i_lp_mmshare_version>  (432) 
48012

>  <i_f3d_flags>  (432) 
0

>  <s_epik_input>  (432) 
W0NIM11bQ0BASF0xW0NIMl1bQ0BIXShDMihbQ0gzXSlbQ0gzXSlbQ0BASF0yW0NAQF0oW0NAXTEzNCkoT0MoPU8pW0NIM10pW0NAQEhdNVtDQF0oTzMpKFtDQEBIXShbT0hdKUMoW0NIM10pPVtDSF01KVtDQEBIXTZDKD1PKVtDQEBdNyhbQ0hdPUM2W0NIM10pW0NAQEhdNFtDQEBIXTdbQ0gyXVtPSF0=

>  <s_epik_cmdline>  (432) 
J2VwaWtfcHl0aG9uJywgJy1waHQnLCAnMi4wJywgJy1waCcsICc3LjAnLCAnLXRuJywgJzgnLCAnLW1hJywgJzIwMCcsICctaW1hZScsICc8aW5maWxlLm1hZT4nLCAnLW9tYWUnLCAnPG91dGZpbGUubWFlPic=

>  <r_lp_tautomer_probability>  (432) 
1

>  <r_epik_Ionization_Penalty>  (432) 
1.28972e-05

>  <r_epik_Ionization_Penalty_Charging>  (432) 
0

>  <r_epik_Ionization_Penalty_Neutral>  (432) 
1.28972e-05

>  <r_epik_State_Penalty>  (432) 
-0

>  <r_epik_Charging_Adjusted_Penalty>  (432) 
0

>  <i_epik_Tot_Q>  (432) 
0

>  <i_epik_Tot_abs_Q>  (432) 
0

>  <s_epik_Chemistry_Notes>  (432) 
This compound has an ester and may undergo hydrolysis at high or low pH.

>  <s_lp_Force_Field>  (432) 
OPLS3e

>  <r_lp_Energy>  (432) 
114.882

>  <b_lp_Chiralities_Consistent>  (432) 
1

>  <s_lp_Variant>  (432) 
113:0-2

>  <s_i_glide_gridfile>  (432) 
pfpi4k_grid

>  <i_i_glide_lignum>  (432) 
31

>  <i_i_glide_rotatable_bonds>  (432) 
5

>  <r_i_docking_score>  (432) 
-1.30132

>  <r_i_glide_ligand_efficiency>  (432) 
-0.0394341

>  <r_i_glide_ligand_efficiency_sa>  (432) 
-0.126486

>  <r_i_glide_ligand_efficiency_ln>  (432) 
-0.289408

>  <r_i_glide_gscore>  (432) 
-1.30132

>  <r_i_glide_lipo>  (432) 
-0.195716

>  <r_i_glide_hbond>  (432) 
0

>  <r_i_glide_metal>  (432) 
-0

>  <r_i_glide_rewards>  (432) 
-0.418251

>  <r_i_glide_evdw>  (432) 
-13.513

>  <r_i_glide_ecoul>  (432) 
-1.37395

>  <r_i_glide_erotb>  (432) 
0.194386

>  <r_i_glide_esite>  (432) 
0

>  <r_i_glide_emodel>  (432) 
-6.68155

>  <r_i_glide_energy>  (432) 
-14.887

>  <r_i_glide_einternal>  (432) 
11.3803

>  <r_i_glide_intrahb_reward>  (432) 
-0

>  <i_i_glide_confnum>  (432) 
1

>  <i_i_glide_posenum>  (432) 
33

>  <r_i_glide_eff_state_penalty>  (432) 
0

>  <ligand_id>  (432) 
113

>  <original_smiles>  (432) 
CC(=O)OC12C3C(CC(C)C14OC1(C(O)C(C)=CC12)C1C(=O)C2(C=C1C)C(CO)C24)C3(C)C

>  <smiles>  (432) 
[H]OC([H])([H])C1([H])C2([H])C34OC5(C6=C(C([H])([H])[H])C([H])([H])C12C6=O)C([H])(O[H])C(C([H])([H])[H])=C([H])C5([H])C3(OC(=O)C([H])([H])[H])C1([H])C([H])(C([H])([H])C4([H])C([H])([H])[H])C1(C([H])([H])[H])C([H])([H])[H]

$$$$
114:0:0
     RDKit          3D

 71 75  0  0  1  0  0  0  0  0999 V2000
    4.8315   -2.6795    4.1417 C   0  0  0  0  0  0  0  0  0  0  0  0
    3.9769   -3.1740    2.9426 C   0  0  0  0  0  0  0  0  0  0  0  0
    4.4973   -4.1815    1.8324 C   0  0  1  0  0  0  0  0  0  0  0  0
    3.3991   -4.1868    0.7132 C   0  0  0  0  0  0  0  0  0  0  0  0
    3.1342   -2.8390    0.0672 C   0  0  0  0  0  0  0  0  0  0  0  0
    4.3958   -2.4091   -0.6616 C   0  0  0  0  0  0  0  0  0  0  0  0
    5.7980   -2.5716    0.0313 C   0  0  0  0  0  0  0  0  0  0  0  0
    6.7105   -2.8156   -1.2000 C   0  0  0  0  0  0  0  0  0  0  0  0
    6.2141   -1.1993    0.6164 C   0  0  0  0  0  0  0  0  0  0  0  0
    5.9355   -3.6811    1.2161 C   0  0  2  0  0  0  0  0  0  0  0  0
    7.1852   -4.7290    1.0604 C   0  0  1  0  0  0  0  0  0  0  0  0
    8.3694   -3.9830    0.8279 O   0  0  0  0  0  0  0  0  0  0  0  0
    7.7536   -5.6828    2.2146 C   0  0  0  0  0  0  0  0  0  0  0  0
    6.8624   -6.4689    3.2526 C   0  0  1  0  0  0  0  0  0  0  0  0
    5.6485   -5.6344    3.5486 C   0  0  2  0  0  0  0  0  0  0  0  0
    5.0960   -5.9612    4.9598 C   0  0  0  0  0  0  0  0  0  0  0  0
    5.0207   -7.4629    5.2557 C   0  0  0  0  0  0  0  0  0  0  0  0
    5.1221   -8.2894    3.9605 C   0  0  1  0  0  0  0  0  0  0  0  0
    3.8186   -8.1272    3.0750 C   0  0  2  0  0  0  0  0  0  0  0  0
    2.6065   -8.7282    3.8295 C   0  0  0  0  0  0  0  0  0  0  0  0
    3.9700   -9.0375    1.7984 C   0  0  0  0  0  0  0  0  0  0  0  0
    5.3711   -9.6262    1.5258 C   0  0  0  0  0  0  0  0  0  0  0  0
    6.5104   -8.6735    1.8405 C   0  0  0  0  0  0  0  0  0  0  0  0
    7.4116   -8.4856    1.0294 O   0  0  0  0  0  0  0  0  0  0  0  0
    6.5199   -8.0238    3.2396 C   0  0  1  0  0  0  0  0  0  0  0  0
    7.6456   -8.7747    3.9994 C   0  0  0  0  0  0  0  0  0  0  0  0
    3.4311   -6.6170    2.7187 C   0  0  0  0  0  0  0  0  0  0  0  0
    4.6250   -5.6651    2.3665 C   0  0  1  0  0  0  0  0  0  0  0  0
    5.0077   -6.3475    1.1815 O   0  0  0  0  0  0  0  0  0  0  0  0
    4.2788   -1.9160    4.7194 H   0  0  0  0  0  0  0  0  0  0  0  0
    5.7493   -2.1680    3.8268 H   0  0  0  0  0  0  0  0  0  0  0  0
    5.1412   -3.4656    4.8215 H   0  0  0  0  0  0  0  0  0  0  0  0
    3.0299   -3.5448    3.3103 H   0  0  0  0  0  0  0  0  0  0  0  0
    3.7685   -2.2206    2.4703 H   0  0  0  0  0  0  0  0  0  0  0  0
    3.6764   -4.8255   -0.1221 H   0  0  0  0  0  0  0  0  0  0  0  0
    2.4573   -4.5787    1.0882 H   0  0  0  0  0  0  0  0  0  0  0  0
    2.3448   -2.9469   -0.6807 H   0  0  0  0  0  0  0  0  0  0  0  0
    2.7517   -2.0710    0.7431 H   0  0  0  0  0  0  0  0  0  0  0  0
    4.3831   -2.9831   -1.6033 H   0  0  0  0  0  0  0  0  0  0  0  0
    4.2547   -1.3759   -0.9695 H   0  0  0  0  0  0  0  0  0  0  0  0
    7.7590   -2.5964   -1.0214 H   0  0  0  0  0  0  0  0  0  0  0  0
    6.4202   -2.1907   -2.0444 H   0  0  0  0  0  0  0  0  0  0  0  0
    6.6102   -3.8483   -1.5320 H   0  0  0  0  0  0  0  0  0  0  0  0
    7.2255   -1.2345    1.0297 H   0  0  0  0  0  0  0  0  0  0  0  0
    5.5515   -0.8653    1.4180 H   0  0  0  0  0  0  0  0  0  0  0  0
    6.2196   -0.4106   -0.1385 H   0  0  0  0  0  0  0  0  0  0  0  0
    6.3464   -3.0989    2.0443 H   0  0  0  0  0  0  0  0  0  0  0  0
    7.0290   -5.3348    0.1775 H   0  0  0  0  0  0  0  0  0  0  0  0
    8.5676   -3.4897    1.6135 H   0  0  0  0  0  0  0  0  0  0  0  0
    8.4824   -6.3645    1.7728 H   0  0  0  0  0  0  0  0  0  0  0  0
    8.3813   -5.0588    2.8577 H   0  0  0  0  0  0  0  0  0  0  0  0
    7.4585   -6.3826    4.1601 H   0  0  0  0  0  0  0  0  0  0  0  0
    6.0381   -4.6391    3.6620 H   0  0  0  0  0  0  0  0  0  0  0  0
    5.7414   -5.5143    5.7133 H   0  0  0  0  0  0  0  0  0  0  0  0
    4.1223   -5.5010    5.1136 H   0  0  0  0  0  0  0  0  0  0  0  0
    5.8340   -7.7236    5.9319 H   0  0  0  0  0  0  0  0  0  0  0  0
    4.1178   -7.6866    5.8240 H   0  0  0  0  0  0  0  0  0  0  0  0
    5.1408   -9.3298    4.2799 H   0  0  0  0  0  0  0  0  0  0  0  0
    1.7340   -8.7885    3.1798 H   0  0  0  0  0  0  0  0  0  0  0  0
    2.3171   -8.1409    4.6983 H   0  0  0  0  0  0  0  0  0  0  0  0
    2.8256   -9.7425    4.1726 H   0  0  0  0  0  0  0  0  0  0  0  0
    3.3097   -9.9134    1.8711 H   0  0  0  0  0  0  0  0  0  0  0  0
    3.6174   -8.5224    0.9047 H   0  0  0  0  0  0  0  0  0  0  0  0
    5.5281  -10.5125    2.1334 H   0  0  0  0  0  0  0  0  0  0  0  0
    5.4508   -9.9541    0.4903 H   0  0  0  0  0  0  0  0  0  0  0  0
    7.7130   -8.4801    5.0457 H   0  0  0  0  0  0  0  0  0  0  0  0
    8.6229   -8.5858    3.5540 H   0  0  0  0  0  0  0  0  0  0  0  0
    7.4891   -9.8538    3.9855 H   0  0  0  0  0  0  0  0  0  0  0  0
    2.7010   -6.6467    1.9114 H   0  0  0  0  0  0  0  0  0  0  0  0
    2.8564   -6.1792    3.5334 H   0  0  0  0  0  0  0  0  0  0  0  0
    4.3025   -6.2746    0.5566 H   0  0  0  0  0  0  0  0  0  0  0  0
  1  2  1  0
  1 30  1  0
  1 31  1  0
  1 32  1  0
  3  2  1  1
  2 33  1  0
  2 34  1  0
  3 10  1  0
  3 28  1  0
  3  4  1  0
  4  5  1  0
  4 35  1  0
  4 36  1  0
  5  6  1  0
  5 37  1  0
  5 38  1  0
  6  7  1  0
  6 39  1  0
  6 40  1  0
  7  8  1  0
  7  9  1  0
  7 10  1  0
  8 41  1  0
  8 42  1  0
  8 43  1  0
  9 44  1  0
  9 45  1  0
  9 46  1  0
 10 11  1  0
 10 47  1  1
 11 12  1  0
 11 13  1  0
 11 48  1  6
 12 49  1  0
 13 14  1  0
 13 50  1  0
 13 51  1  0
 14 25  1  0
 14 15  1  0
 14 52  1  1
 15 28  1  0
 15 16  1  0
 15 53  1  1
 16 17  1  0
 16 54  1  0
 16 55  1  0
 17 18  1  0
 17 56  1  0
 17 57  1  0
 18 25  1  0
 18 19  1  0
 18 58  1  1
 19 20  1  1
 19 21  1  0
 19 27  1  0
 20 59  1  0
 20 60  1  0
 20 61  1  0
 21 22  1  0
 21 62  1  0
 21 63  1  0
 22 23  1  0
 22 64  1  0
 22 65  1  0
 23 24  2  0
 23 25  1  0
 25 26  1  1
 26 66  1  0
 26 67  1  0
 26 68  1  0
 27 28  1  0
 27 69  1  0
 27 70  1  0
 28 29  1  6
 29 71  1  0
M  END
>  <i_m_ct_stereo_status>  (433) 
1

>  <s_m_source_file>  (433) 
/var/tmp/pbs.5076255.sched01/tmp1cu33jom/138ve8n868x.sdf

>  <i_m_source_file_index>  (433) 
32

>  <i_lp_mmshare_version>  (433) 
48012

>  <i_f3d_flags>  (433) 
0

>  <s_epik_input>  (433) 
W0NIMl0xW0NIMl1bQ0gyXUMoW0NIM10pKFtDSDNdKVtDQEBIXShbQ0BAXTEyW0NIMl1bQ0gzXSlbQ0BASF0oW09IXSlbQ0gyXVtDQEhdM1tDQEhdNFtDQEBdMihbT0hdKVtDSDJdW0NAXTUoW0NIM10pW0NASF0oW0NIMl1bQ0gyXTQpW0NAQF0zKFtDSDNdKUMoPU8pW0NIMl1bQ0gyXTU=

>  <s_epik_cmdline>  (433) 
J2VwaWtfcHl0aG9uJywgJy1waHQnLCAnMi4wJywgJy1waCcsICc3LjAnLCAnLXRuJywgJzgnLCAnLW1hJywgJzIwMCcsICctaW1hZScsICc8aW5maWxlLm1hZT4nLCAnLW9tYWUnLCAnPG91dGZpbGUubWFlPic=

>  <r_lp_tautomer_probability>  (433) 
1

>  <r_epik_Ionization_Penalty>  (433) 
4.37416e-06

>  <r_epik_Ionization_Penalty_Charging>  (433) 
0

>  <r_epik_Ionization_Penalty_Neutral>  (433) 
4.37416e-06

>  <r_epik_State_Penalty>  (433) 
-0

>  <r_epik_Charging_Adjusted_Penalty>  (433) 
0

>  <i_epik_Tot_Q>  (433) 
0

>  <i_epik_Tot_abs_Q>  (433) 
0

>  <s_lp_Force_Field>  (433) 
OPLS3e

>  <r_lp_Energy>  (433) 
144.729

>  <b_lp_Chiralities_Consistent>  (433) 
1

>  <s_lp_Variant>  (433) 
114:0-1

>  <s_i_glide_gridfile>  (433) 
pfpi4k_grid

>  <i_i_glide_lignum>  (433) 
32

>  <i_i_glide_rotatable_bonds>  (433) 
3

>  <r_i_docking_score>  (433) 
-2.52206

>  <r_i_glide_ligand_efficiency>  (433) 
-0.0869676

>  <r_i_glide_ligand_efficiency_sa>  (433) 
-0.267192

>  <r_i_glide_ligand_efficiency_ln>  (433) 
-0.577488

>  <r_i_glide_gscore>  (433) 
-2.52206

>  <r_i_glide_lipo>  (433) 
-0.411262

>  <r_i_glide_hbond>  (433) 
0

>  <r_i_glide_metal>  (433) 
-0

>  <r_i_glide_rewards>  (433) 
-0.786148

>  <r_i_glide_evdw>  (433) 
-20.0924

>  <r_i_glide_ecoul>  (433) 
-2.13355

>  <r_i_glide_erotb>  (433) 
0

>  <r_i_glide_esite>  (433) 
0

>  <r_i_glide_emodel>  (433) 
-20.0678

>  <r_i_glide_energy>  (433) 
-22.2259

>  <r_i_glide_einternal>  (433) 
7.92602

>  <r_i_glide_intrahb_reward>  (433) 
-0

>  <i_i_glide_confnum>  (433) 
2

>  <i_i_glide_posenum>  (433) 
36

>  <r_i_glide_eff_state_penalty>  (433) 
0

>  <ligand_id>  (433) 
114

>  <original_smiles>  (433) 
CCC12CCCC(C)(C)C1C(O)CC1C3CCC4C(C)(CCC(=O)C14C)CC32O

>  <smiles>  (433) 
[H]OC1([H])C([H])([H])C2([H])C3([H])C([H])([H])C([H])([H])C4([H])C2(C([H])([H])[H])C(=O)C([H])([H])C([H])([H])C4(C([H])([H])[H])C([H])([H])C3(O[H])C2(C([H])([H])C([H])([H])[H])C([H])([H])C([H])([H])C([H])([H])C(C([H])([H])[H])(C([H])([H])[H])C12[H]

$$$$
114:0:1
     RDKit          3D

 71 75  0  0  1  0  0  0  0  0999 V2000
    4.8937   -2.5949    3.9633 C   0  0  0  0  0  0  0  0  0  0  0  0
    3.9250   -3.1771    2.8941 C   0  0  0  0  0  0  0  0  0  0  0  0
    4.3321   -4.2616    1.7966 C   0  0  1  0  0  0  0  0  0  0  0  0
    3.1484   -4.2913    0.7672 C   0  0  0  0  0  0  0  0  0  0  0  0
    2.8813   -2.9771    0.0528 C   0  0  0  0  0  0  0  0  0  0  0  0
    4.0959   -2.6391   -0.7884 C   0  0  0  0  0  0  0  0  0  0  0  0
    5.5360   -2.8166   -0.1774 C   0  0  0  0  0  0  0  0  0  0  0  0
    6.3436   -3.1716   -1.4605 C   0  0  0  0  0  0  0  0  0  0  0  0
    6.0471   -1.4241    0.2783 C   0  0  0  0  0  0  0  0  0  0  0  0
    5.7250   -3.8509    1.0578 C   0  0  2  0  0  0  0  0  0  0  0  0
    6.9142   -4.9573    0.8831 C   0  0  1  0  0  0  0  0  0  0  0  0
    8.0905   -4.2648    0.5043 O   0  0  0  0  0  0  0  0  0  0  0  0
    7.5495   -5.8635    2.0380 C   0  0  0  0  0  0  0  0  0  0  0  0
    6.7152   -6.5529    3.1822 C   0  0  1  0  0  0  0  0  0  0  0  0
    5.5559   -5.6620    3.5085 C   0  0  2  0  0  0  0  0  0  0  0  0
    5.0992   -5.8632    4.9768 C   0  0  0  0  0  0  0  0  0  0  0  0
    4.9945   -7.3418    5.3779 C   0  0  0  0  0  0  0  0  0  0  0  0
    4.9779   -8.2509    4.1342 C   0  0  1  0  0  0  0  0  0  0  0  0
    3.6178   -8.0994    3.3291 C   0  0  2  0  0  0  0  0  0  0  0  0
    2.4477   -8.6117    4.2088 C   0  0  0  0  0  0  0  0  0  0  0  0
    3.6476   -9.0892    2.1048 C   0  0  0  0  0  0  0  0  0  0  0  0
    5.0039   -9.7514    1.7738 C   0  0  0  0  0  0  0  0  0  0  0  0
    6.1941   -8.8305    1.9577 C   0  0  0  0  0  0  0  0  0  0  0  0
    7.0321   -8.7247    1.0674 O   0  0  0  0  0  0  0  0  0  0  0  0
    6.3246   -8.0924    3.2968 C   0  0  1  0  0  0  0  0  0  0  0  0
    7.4776   -8.8327    4.0269 C   0  0  0  0  0  0  0  0  0  0  0  0
    3.2476   -6.6000    2.9158 C   0  0  0  0  0  0  0  0  0  0  0  0
    4.4424   -5.7089    2.4195 C   0  0  1  0  0  0  0  0  0  0  0  0
    4.7021   -6.4779    1.2591 O   0  0  0  0  0  0  0  0  0  0  0  0
    4.3968   -1.7953    4.5189 H   0  0  0  0  0  0  0  0  0  0  0  0
    5.7674   -2.1222    3.5168 H   0  0  0  0  0  0  0  0  0  0  0  0
    5.2464   -3.3046    4.7063 H   0  0  0  0  0  0  0  0  0  0  0  0
    3.0146   -3.5191    3.3885 H   0  0  0  0  0  0  0  0  0  0  0  0
    3.6526   -2.2585    2.3876 H   0  0  0  0  0  0  0  0  0  0  0  0
    3.3450   -5.0021   -0.0384 H   0  0  0  0  0  0  0  0  0  0  0  0
    2.2197   -4.6341    1.2302 H   0  0  0  0  0  0  0  0  0  0  0  0
    2.0363   -3.1026   -0.6308 H   0  0  0  0  0  0  0  0  0  0  0  0
    2.5680   -2.1614    0.7023 H   0  0  0  0  0  0  0  0  0  0  0  0
    3.9907   -3.2642   -1.6816 H   0  0  0  0  0  0  0  0  0  0  0  0
    3.9658   -1.6221   -1.1524 H   0  0  0  0  0  0  0  0  0  0  0  0
    7.4123   -2.9616   -1.4054 H   0  0  0  0  0  0  0  0  0  0  0  0
    6.0064   -2.5977   -2.3297 H   0  0  0  0  0  0  0  0  0  0  0  0
    6.1847   -4.2218   -1.7153 H   0  0  0  0  0  0  0  0  0  0  0  0
    7.0794   -1.4745    0.6282 H   0  0  0  0  0  0  0  0  0  0  0  0
    5.4530   -1.0228    1.0950 H   0  0  0  0  0  0  0  0  0  0  0  0
    6.0261   -0.6901   -0.5247 H   0  0  0  0  0  0  0  0  0  0  0  0
    6.2222   -3.2469    1.8041 H   0  0  0  0  0  0  0  0  0  0  0  0
    6.6678   -5.6212    0.0561 H   0  0  0  0  0  0  0  0  0  0  0  0
    7.8828   -3.7263   -0.2436 H   0  0  0  0  0  0  0  0  0  0  0  0
    8.2321   -6.5849    1.5898 H   0  0  0  0  0  0  0  0  0  0  0  0
    8.2302   -5.2094    2.5929 H   0  0  0  0  0  0  0  0  0  0  0  0
    7.3784   -6.4246    4.0386 H   0  0  0  0  0  0  0  0  0  0  0  0
    6.0275   -4.6932    3.4972 H   0  0  0  0  0  0  0  0  0  0  0  0
    5.8127   -5.3879    5.6492 H   0  0  0  0  0  0  0  0  0  0  0  0
    4.1579   -5.3475    5.1696 H   0  0  0  0  0  0  0  0  0  0  0  0
    5.8453   -7.5886    6.0071 H   0  0  0  0  0  0  0  0  0  0  0  0
    4.1316   -7.4958    6.0212 H   0  0  0  0  0  0  0  0  0  0  0  0
    4.9799   -9.2747    4.5242 H   0  0  0  0  0  0  0  0  0  0  0  0
    1.5198   -8.6806    3.6310 H   0  0  0  0  0  0  0  0  0  0  0  0
    2.2358   -7.9637    5.0642 H   0  0  0  0  0  0  0  0  0  0  0  0
    2.6527   -9.6140    4.6011 H   0  0  0  0  0  0  0  0  0  0  0  0
    2.9665   -9.9279    2.2828 H   0  0  0  0  0  0  0  0  0  0  0  0
    3.2371   -8.6175    1.2138 H   0  0  0  0  0  0  0  0  0  0  0  0
    5.1635  -10.6101    2.4270 H   0  0  0  0  0  0  0  0  0  0  0  0
    5.0040  -10.1343    0.7522 H   0  0  0  0  0  0  0  0  0  0  0  0
    7.6335   -8.4729    5.0435 H   0  0  0  0  0  0  0  0  0  0  0  0
    8.4259   -8.7014    3.5009 H   0  0  0  0  0  0  0  0  0  0  0  0
    7.2903   -9.9036    4.0941 H   0  0  0  0  0  0  0  0  0  0  0  0
    2.4626   -6.6488    2.1625 H   0  0  0  0  0  0  0  0  0  0  0  0
    2.7501   -6.0927    3.7402 H   0  0  0  0  0  0  0  0  0  0  0  0
    4.8438   -7.3696    1.5245 H   0  0  0  0  0  0  0  0  0  0  0  0
  1  2  1  0
  1 30  1  0
  1 31  1  0
  1 32  1  0
  3  2  1  1
  2 33  1  0
  2 34  1  0
  3 10  1  0
  3 28  1  0
  3  4  1  0
  4  5  1  0
  4 35  1  0
  4 36  1  0
  5  6  1  0
  5 37  1  0
  5 38  1  0
  6  7  1  0
  6 39  1  0
  6 40  1  0
  7  8  1  0
  7  9  1  0
  7 10  1  0
  8 41  1  0
  8 42  1  0
  8 43  1  0
  9 44  1  0
  9 45  1  0
  9 46  1  0
 10 11  1  0
 10 47  1  1
 11 12  1  0
 11 13  1  0
 11 48  1  6
 12 49  1  0
 13 14  1  0
 13 50  1  0
 13 51  1  0
 14 25  1  0
 14 15  1  0
 14 52  1  1
 15 28  1  0
 15 16  1  0
 15 53  1  1
 16 17  1  0
 16 54  1  0
 16 55  1  0
 17 18  1  0
 17 56  1  0
 17 57  1  0
 18 25  1  0
 18 19  1  0
 18 58  1  1
 19 20  1  1
 19 21  1  0
 19 27  1  0
 20 59  1  0
 20 60  1  0
 20 61  1  0
 21 22  1  0
 21 62  1  0
 21 63  1  0
 22 23  1  0
 22 64  1  0
 22 65  1  0
 23 24  2  0
 23 25  1  0
 25 26  1  1
 26 66  1  0
 26 67  1  0
 26 68  1  0
 27 28  1  0
 27 69  1  0
 27 70  1  0
 28 29  1  6
 29 71  1  0
M  END
>  <i_m_ct_stereo_status>  (434) 
1

>  <s_m_source_file>  (434) 
/var/tmp/pbs.5076255.sched01/tmp1cu33jom/138ve8n868x.sdf

>  <i_m_source_file_index>  (434) 
32

>  <i_lp_mmshare_version>  (434) 
48012

>  <i_f3d_flags>  (434) 
0

>  <s_epik_input>  (434) 
W0NIMl0xW0NIMl1bQ0gyXUMoW0NIM10pKFtDSDNdKVtDQEBIXShbQ0BAXTEyW0NIMl1bQ0gzXSlbQ0BASF0oW09IXSlbQ0gyXVtDQEhdM1tDQEhdNFtDQEBdMihbT0hdKVtDSDJdW0NAXTUoW0NIM10pW0NASF0oW0NIMl1bQ0gyXTQpW0NAQF0zKFtDSDNdKUMoPU8pW0NIMl1bQ0gyXTU=

>  <s_epik_cmdline>  (434) 
J2VwaWtfcHl0aG9uJywgJy1waHQnLCAnMi4wJywgJy1waCcsICc3LjAnLCAnLXRuJywgJzgnLCAnLW1hJywgJzIwMCcsICctaW1hZScsICc8aW5maWxlLm1hZT4nLCAnLW9tYWUnLCAnPG91dGZpbGUubWFlPic=

>  <r_lp_tautomer_probability>  (434) 
1

>  <r_epik_Ionization_Penalty>  (434) 
4.37416e-06

>  <r_epik_Ionization_Penalty_Charging>  (434) 
0

>  <r_epik_Ionization_Penalty_Neutral>  (434) 
4.37416e-06

>  <r_epik_State_Penalty>  (434) 
-0

>  <r_epik_Charging_Adjusted_Penalty>  (434) 
0

>  <i_epik_Tot_Q>  (434) 
0

>  <i_epik_Tot_abs_Q>  (434) 
0

>  <s_lp_Force_Field>  (434) 
OPLS3e

>  <r_lp_Energy>  (434) 
144.729

>  <b_lp_Chiralities_Consistent>  (434) 
1

>  <s_lp_Variant>  (434) 
114:0-1

>  <s_i_glide_gridfile>  (434) 
pfpi4k_grid

>  <i_i_glide_lignum>  (434) 
32

>  <i_i_glide_rotatable_bonds>  (434) 
3

>  <r_i_docking_score>  (434) 
-2.41412

>  <r_i_glide_ligand_efficiency>  (434) 
-0.0832454

>  <r_i_glide_ligand_efficiency_sa>  (434) 
-0.255756

>  <r_i_glide_ligand_efficiency_ln>  (434) 
-0.552772

>  <r_i_glide_gscore>  (434) 
-2.41412

>  <r_i_glide_lipo>  (434) 
-0.460332

>  <r_i_glide_hbond>  (434) 
0

>  <r_i_glide_metal>  (434) 
-0

>  <r_i_glide_rewards>  (434) 
-0.74402

>  <r_i_glide_evdw>  (434) 
-19.8941

>  <r_i_glide_ecoul>  (434) 
-1.43375

>  <r_i_glide_erotb>  (434) 
0

>  <r_i_glide_esite>  (434) 
0

>  <r_i_glide_emodel>  (434) 
-19.3767

>  <r_i_glide_energy>  (434) 
-21.3278

>  <r_i_glide_einternal>  (434) 
8.2126

>  <r_i_glide_intrahb_reward>  (434) 
-0

>  <i_i_glide_confnum>  (434) 
1

>  <i_i_glide_posenum>  (434) 
34

>  <r_i_glide_eff_state_penalty>  (434) 
0

>  <ligand_id>  (434) 
114

>  <original_smiles>  (434) 
CCC12CCCC(C)(C)C1C(O)CC1C3CCC4C(C)(CCC(=O)C14C)CC32O

>  <smiles>  (434) 
[H]OC1([H])C([H])([H])C2([H])C3([H])C([H])([H])C([H])([H])C4([H])C2(C([H])([H])[H])C(=O)C([H])([H])C([H])([H])C4(C([H])([H])[H])C([H])([H])C3(O[H])C2(C([H])([H])C([H])([H])[H])C([H])([H])C([H])([H])C([H])([H])C(C([H])([H])[H])(C([H])([H])[H])C12[H]

$$$$
114:0:2
     RDKit          3D

 71 75  0  0  1  0  0  0  0  0999 V2000
    3.2580   -0.8988    1.8129 C   0  0  0  0  0  0  0  0  0  0  0  0
    2.6954   -1.8539    0.7280 C   0  0  0  0  0  0  0  0  0  0  0  0
    3.3537   -3.2043    0.2470 C   0  0  1  0  0  0  0  0  0  0  0  0
    2.5516   -3.6371   -1.0104 C   0  0  0  0  0  0  0  0  0  0  0  0
    2.6139   -2.6944   -2.2132 C   0  0  0  0  0  0  0  0  0  0  0  0
    4.0209   -2.6465   -2.7218 C   0  0  0  0  0  0  0  0  0  0  0  0
    5.1519   -2.4651   -1.6576 C   0  0  0  0  0  0  0  0  0  0  0  0
    6.3193   -3.1588   -2.4242 C   0  0  0  0  0  0  0  0  0  0  0  0
    5.4666   -0.9496   -1.5358 C   0  0  0  0  0  0  0  0  0  0  0  0
    4.9149   -2.9914   -0.1424 C   0  0  2  0  0  0  0  0  0  0  0  0
    6.0523   -4.0248    0.4152 C   0  0  1  0  0  0  0  0  0  0  0  0
    7.3200   -3.4076    0.2123 O   0  0  0  0  0  0  0  0  0  0  0  0
    6.2412   -4.4255    1.9392 C   0  0  0  0  0  0  0  0  0  0  0  0
    5.0874   -4.7233    2.9559 C   0  0  1  0  0  0  0  0  0  0  0  0
    3.9285   -3.8411    2.6102 C   0  0  2  0  0  0  0  0  0  0  0  0
    3.0391   -3.5929    3.8448 C   0  0  0  0  0  0  0  0  0  0  0  0
    2.7633   -4.8567    4.6715 C   0  0  0  0  0  0  0  0  0  0  0  0
    3.0885   -6.1317    3.8743 C   0  0  1  0  0  0  0  0  0  0  0  0
    2.0573   -6.3533    2.7013 C   0  0  2  0  0  0  0  0  0  0  0  0
    0.6439   -6.6018    3.2905 C   0  0  0  0  0  0  0  0  0  0  0  0
    2.4162   -7.6928    1.9724 C   0  0  0  0  0  0  0  0  0  0  0  0
    3.7923   -8.3338    2.2977 C   0  0  0  0  0  0  0  0  0  0  0  0
    4.8931   -7.3205    2.4933 C   0  0  0  0  0  0  0  0  0  0  0  0
    5.9854   -7.4421    1.8864 O   0  0  0  0  0  0  0  0  0  0  0  0
    4.6384   -6.1655    3.4714 C   0  0  1  0  0  0  0  0  0  0  0  0
    5.4725   -6.5253    4.7317 C   0  0  0  0  0  0  0  0  0  0  0  0
    1.9106   -5.1183    1.7029 C   0  0  0  0  0  0  0  0  0  0  0  0
    3.2199   -4.3406    1.3232 C   0  0  1  0  0  0  0  0  0  0  0  0
    3.7890   -5.4653    0.6358 O   0  0  0  0  0  0  0  0  0  0  0  0
    2.6478    0.0132    1.8311 H   0  0  0  0  0  0  0  0  0  0  0  0
    4.2596   -0.5523    1.5715 H   0  0  0  0  0  0  0  0  0  0  0  0
    3.2946   -1.3280    2.8014 H   0  0  0  0  0  0  0  0  0  0  0  0
    1.6541   -2.0690    0.9530 H   0  0  0  0  0  0  0  0  0  0  0  0
    2.7029   -1.1852   -0.1258 H   0  0  0  0  0  0  0  0  0  0  0  0
    2.9725   -4.5699   -1.3513 H   0  0  0  0  0  0  0  0  0  0  0  0
    1.5107   -3.8537   -0.7847 H   0  0  0  0  0  0  0  0  0  0  0  0
    1.9958   -3.1055   -3.0153 H   0  0  0  0  0  0  0  0  0  0  0  0
    2.2379   -1.6712   -2.0325 H   0  0  0  0  0  0  0  0  0  0  0  0
    4.1953   -3.5352   -3.3610 H   0  0  0  0  0  0  0  0  0  0  0  0
    4.0504   -1.8051   -3.4067 H   0  0  0  0  0  0  0  0  0  0  0  0
    7.3180   -2.8622   -2.1194 H   0  0  0  0  0  0  0  0  0  0  0  0
    6.2814   -2.9299   -3.4917 H   0  0  0  0  0  0  0  0  0  0  0  0
    6.1645   -4.2164   -2.3452 H   0  0  0  0  0  0  0  0  0  0  0  0
    6.3358   -0.8308   -0.9031 H   0  0  0  0  0  0  0  0  0  0  0  0
    4.6701   -0.3761   -1.0714 H   0  0  0  0  0  0  0  0  0  0  0  0
    5.6418   -0.5097   -2.5043 H   0  0  0  0  0  0  0  0  0  0  0  0
    5.1846   -2.1354    0.4771 H   0  0  0  0  0  0  0  0  0  0  0  0
    6.0650   -4.9313   -0.1868 H   0  0  0  0  0  0  0  0  0  0  0  0
    7.4737   -3.3259   -0.6931 H   0  0  0  0  0  0  0  0  0  0  0  0
    7.0451   -5.1518    2.0338 H   0  0  0  0  0  0  0  0  0  0  0  0
    6.5894   -3.4960    2.3899 H   0  0  0  0  0  0  0  0  0  0  0  0
    5.4760   -4.2860    3.8731 H   0  0  0  0  0  0  0  0  0  0  0  0
    4.3589   -2.8876    2.4258 H   0  0  0  0  0  0  0  0  0  0  0  0
    3.5311   -2.8760    4.4943 H   0  0  0  0  0  0  0  0  0  0  0  0
    2.1031   -3.1198    3.5532 H   0  0  0  0  0  0  0  0  0  0  0  0
    3.3623   -4.8086    5.5794 H   0  0  0  0  0  0  0  0  0  0  0  0
    1.7321   -4.8383    5.0289 H   0  0  0  0  0  0  0  0  0  0  0  0
    2.9344   -6.9588    4.5745 H   0  0  0  0  0  0  0  0  0  0  0  0
   -0.0443   -6.9255    2.5080 H   0  0  0  0  0  0  0  0  0  0  0  0
    0.2141   -5.7136    3.7564 H   0  0  0  0  0  0  0  0  0  0  0  0
    0.6804   -7.3948    4.0408 H   0  0  0  0  0  0  0  0  0  0  0  0
    1.6719   -8.4608    2.2057 H   0  0  0  0  0  0  0  0  0  0  0  0
    2.3274   -7.5627    0.8886 H   0  0  0  0  0  0  0  0  0  0  0  0
    3.7238   -8.9055    3.2262 H   0  0  0  0  0  0  0  0  0  0  0  0
    4.0711   -9.0327    1.5096 H   0  0  0  0  0  0  0  0  0  0  0  0
    5.3186   -5.8290    5.5546 H   0  0  0  0  0  0  0  0  0  0  0  0
    6.5421   -6.5097    4.5091 H   0  0  0  0  0  0  0  0  0  0  0  0
    5.2299   -7.5175    5.1050 H   0  0  0  0  0  0  0  0  0  0  0  0
    1.4063   -5.4692    0.8057 H   0  0  0  0  0  0  0  0  0  0  0  0
    1.2249   -4.4003    2.1288 H   0  0  0  0  0  0  0  0  0  0  0  0
    3.8436   -6.1806    1.2095 H   0  0  0  0  0  0  0  0  0  0  0  0
  1  2  1  0
  1 30  1  0
  1 31  1  0
  1 32  1  0
  3  2  1  1
  2 33  1  0
  2 34  1  0
  3 10  1  0
  3 28  1  0
  3  4  1  0
  4  5  1  0
  4 35  1  0
  4 36  1  0
  5  6  1  0
  5 37  1  0
  5 38  1  0
  6  7  1  0
  6 39  1  0
  6 40  1  0
  7  8  1  0
  7  9  1  0
  7 10  1  0
  8 41  1  0
  8 42  1  0
  8 43  1  0
  9 44  1  0
  9 45  1  0
  9 46  1  0
 10 11  1  0
 10 47  1  1
 11 12  1  0
 11 13  1  0
 11 48  1  6
 12 49  1  0
 13 14  1  0
 13 50  1  0
 13 51  1  0
 14 25  1  0
 14 15  1  0
 14 52  1  1
 15 28  1  0
 15 16  1  0
 15 53  1  6
 16 17  1  0
 16 54  1  0
 16 55  1  0
 17 18  1  0
 17 56  1  0
 17 57  1  0
 18 25  1  0
 18 19  1  0
 18 58  1  1
 19 20  1  1
 19 21  1  0
 19 27  1  0
 20 59  1  0
 20 60  1  0
 20 61  1  0
 21 22  1  0
 21 62  1  0
 21 63  1  0
 22 23  1  0
 22 64  1  0
 22 65  1  0
 23 24  2  0
 23 25  1  0
 25 26  1  1
 26 66  1  0
 26 67  1  0
 26 68  1  0
 27 28  1  0
 27 69  1  0
 27 70  1  0
 28 29  1  6
 29 71  1  0
M  END
>  <i_m_ct_stereo_status>  (435) 
1

>  <s_m_source_file>  (435) 
/var/tmp/pbs.5076255.sched01/tmp1cu33jom/138ve8n868x.sdf

>  <i_m_source_file_index>  (435) 
32

>  <i_lp_mmshare_version>  (435) 
48012

>  <i_f3d_flags>  (435) 
0

>  <s_epik_input>  (435) 
W0NIMl0xW0NIMl1bQ0gyXUMoW0NIM10pKFtDSDNdKVtDQEBIXShbQ0BAXTEyW0NIMl1bQ0gzXSlbQ0BASF0oW09IXSlbQ0gyXVtDQEhdM1tDQEhdNFtDQEBdMihbT0hdKVtDSDJdW0NAXTUoW0NIM10pW0NASF0oW0NIMl1bQ0gyXTQpW0NAQF0zKFtDSDNdKUMoPU8pW0NIMl1bQ0gyXTU=

>  <s_epik_cmdline>  (435) 
J2VwaWtfcHl0aG9uJywgJy1waHQnLCAnMi4wJywgJy1waCcsICc3LjAnLCAnLXRuJywgJzgnLCAnLW1hJywgJzIwMCcsICctaW1hZScsICc8aW5maWxlLm1hZT4nLCAnLW9tYWUnLCAnPG91dGZpbGUubWFlPic=

>  <r_lp_tautomer_probability>  (435) 
1

>  <r_epik_Ionization_Penalty>  (435) 
4.37416e-06

>  <r_epik_Ionization_Penalty_Charging>  (435) 
0

>  <r_epik_Ionization_Penalty_Neutral>  (435) 
4.37416e-06

>  <r_epik_State_Penalty>  (435) 
-0

>  <r_epik_Charging_Adjusted_Penalty>  (435) 
0

>  <i_epik_Tot_Q>  (435) 
0

>  <i_epik_Tot_abs_Q>  (435) 
0

>  <s_lp_Force_Field>  (435) 
OPLS3e

>  <r_lp_Energy>  (435) 
144.729

>  <b_lp_Chiralities_Consistent>  (435) 
1

>  <s_lp_Variant>  (435) 
114:0-1

>  <s_i_glide_gridfile>  (435) 
pfpi4k_grid

>  <i_i_glide_lignum>  (435) 
32

>  <i_i_glide_rotatable_bonds>  (435) 
3

>  <r_i_docking_score>  (435) 
-1.80207

>  <r_i_glide_ligand_efficiency>  (435) 
-0.0621404

>  <r_i_glide_ligand_efficiency_sa>  (435) 
-0.190915

>  <r_i_glide_ligand_efficiency_ln>  (435) 
-0.412628

>  <r_i_glide_gscore>  (435) 
-1.80207

>  <r_i_glide_lipo>  (435) 
-0.365337

>  <r_i_glide_hbond>  (435) 
0

>  <r_i_glide_metal>  (435) 
-0

>  <r_i_glide_rewards>  (435) 
-0.664024

>  <r_i_glide_evdw>  (435) 
-15.2162

>  <r_i_glide_ecoul>  (435) 
-0.0793311

>  <r_i_glide_erotb>  (435) 
0

>  <r_i_glide_esite>  (435) 
0

>  <r_i_glide_emodel>  (435) 
-11.7594

>  <r_i_glide_energy>  (435) 
-15.2955

>  <r_i_glide_einternal>  (435) 
8.39957

>  <r_i_glide_intrahb_reward>  (435) 
-0

>  <i_i_glide_confnum>  (435) 
1

>  <i_i_glide_posenum>  (435) 
7

>  <r_i_glide_eff_state_penalty>  (435) 
0

>  <ligand_id>  (435) 
114

>  <original_smiles>  (435) 
CCC12CCCC(C)(C)C1C(O)CC1C3CCC4C(C)(CCC(=O)C14C)CC32O

>  <smiles>  (435) 
[H]OC1([H])C([H])([H])C2([H])C3([H])C([H])([H])C([H])([H])C4([H])C2(C([H])([H])[H])C(=O)C([H])([H])C([H])([H])C4(C([H])([H])[H])C([H])([H])C3(O[H])C2(C([H])([H])C([H])([H])[H])C([H])([H])C([H])([H])C([H])([H])C(C([H])([H])[H])(C([H])([H])[H])C12[H]

$$$$
115:0:0
     RDKit          3D

 29 31  0  0  1  0  0  0  0  0999 V2000
    3.9312   -0.0104    3.7727 C   0  0  0  0  0  0  0  0  0  0  0  0
    4.4254   -1.3079    3.2360 C   0  0  0  0  0  0  0  0  0  0  0  0
    5.0080   -2.2909    3.9527 N   0  0  0  0  0  0  0  0  0  0  0  0
    5.2623   -3.3425    3.0529 N   0  0  0  0  0  0  0  0  0  0  0  0
    4.8262   -2.8777    1.8859 C   0  0  0  0  0  0  0  0  0  0  0  0
    4.3281   -1.6793    1.9611 N   0  0  0  0  0  0  0  0  0  0  0  0
    3.7366   -1.1893    0.8019 N   0  0  0  0  0  0  0  0  0  0  0  0
    3.5820   -2.3926   -0.0318 C   0  0  1  0  0  0  0  0  0  0  0  0
    3.5738   -2.1462   -1.5343 C   0  0  0  0  0  0  0  0  0  0  0  0
    2.8490   -3.0031   -2.3869 C   0  0  0  0  0  0  0  0  0  0  0  0
    2.8074   -2.7160   -3.7652 C   0  0  0  0  0  0  0  0  0  0  0  0
    3.4407   -1.6632   -4.3167 N   0  0  0  0  0  0  0  0  0  0  0  0
    4.1271   -0.8448   -3.5021 C   0  0  0  0  0  0  0  0  0  0  0  0
    4.2422   -1.0475   -2.1141 C   0  0  0  0  0  0  0  0  0  0  0  0
    4.6706   -3.3875    0.5073 C   0  0  1  0  0  0  0  0  0  0  0  0
    6.0056   -3.4051   -0.2668 C   0  0  0  0  0  0  0  0  0  0  0  0
    4.1293    0.0349    4.8412 H   0  0  0  0  0  0  0  0  0  0  0  0
    2.8574    0.0967    3.6144 H   0  0  0  0  0  0  0  0  0  0  0  0
    4.4397    0.8247    3.2916 H   0  0  0  0  0  0  0  0  0  0  0  0
    4.4056   -0.5732    0.3619 H   0  0  0  0  0  0  0  0  0  0  0  0
    2.6002   -2.7916    0.2328 H   0  0  0  0  0  0  0  0  0  0  0  0
    2.2944   -3.8491   -2.0047 H   0  0  0  0  0  0  0  0  0  0  0  0
    2.2285   -3.3347   -4.4347 H   0  0  0  0  0  0  0  0  0  0  0  0
    4.5844    0.0103   -3.9723 H   0  0  0  0  0  0  0  0  0  0  0  0
    4.8035   -0.3387   -1.5235 H   0  0  0  0  0  0  0  0  0  0  0  0
    4.2641   -4.3992    0.5459 H   0  0  0  0  0  0  0  0  0  0  0  0
    6.7262   -4.0556    0.2324 H   0  0  0  0  0  0  0  0  0  0  0  0
    6.4544   -2.4094   -0.3325 H   0  0  0  0  0  0  0  0  0  0  0  0
    5.8803   -3.7865   -1.2801 H   0  0  0  0  0  0  0  0  0  0  0  0
  1  2  1  0
  1 17  1  0
  1 18  1  0
  1 19  1  0
  2  6  1  0
  2  3  2  0
  3  4  1  0
  4  5  2  0
  5 15  1  0
  5  6  1  0
  6  7  1  0
  7  8  1  0
  7 20  1  0
  8  9  1  0
  8 15  1  0
  8 21  1  1
  9 14  1  0
  9 10  2  0
 10 11  1  0
 10 22  1  0
 11 12  2  0
 11 23  1  0
 12 13  1  0
 13 14  2  0
 13 24  1  0
 14 25  1  0
 15 16  1  0
 15 26  1  1
 16 27  1  0
 16 28  1  0
 16 29  1  0
M  END
>  <i_m_ct_stereo_status>  (436) 
1

>  <s_m_source_file>  (436) 
/var/tmp/pbs.5076255.sched01/tmp1cu33jom/138ve8n868x.sdf

>  <i_m_source_file_index>  (436) 
33

>  <i_lp_mmshare_version>  (436) 
48012

>  <i_f3d_flags>  (436) 
0

>  <s_epik_input>  (436) 
bjFuYyhbQ0gzXSluKGMxMilbTkhdW0NASF0oW0NASF0yW0NIM10pYzNbY0hdW2NIXW5bY0hdW2NIXTM=

>  <s_epik_cmdline>  (436) 
J2VwaWtfcHl0aG9uJywgJy1waHQnLCAnMi4wJywgJy1waCcsICc3LjAnLCAnLXRuJywgJzgnLCAnLW1hJywgJzIwMCcsICctaW1hZScsICc8aW5maWxlLm1hZT4nLCAnLW9tYWUnLCAnPG91dGZpbGUubWFlPic=

>  <r_epik_Ionization_Penalty>  (436) 
0.0619778

>  <r_epik_Ionization_Penalty_Charging>  (436) 
0

>  <r_epik_Ionization_Penalty_Neutral>  (436) 
0.0619778

>  <r_epik_State_Penalty>  (436) 
0.0536074

>  <r_epik_Charging_Adjusted_Penalty>  (436) 
0.0536074

>  <i_epik_Tot_Q>  (436) 
0

>  <i_epik_Tot_abs_Q>  (436) 
0

>  <s_lp_Force_Field>  (436) 
OPLS3e

>  <r_lp_Energy>  (436) 
19.9763

>  <b_lp_Chiralities_Consistent>  (436) 
1

>  <s_lp_Variant>  (436) 
115:0-1

>  <s_i_glide_gridfile>  (436) 
pfpi4k_grid

>  <i_i_glide_lignum>  (436) 
33

>  <i_i_glide_rotatable_bonds>  (436) 
1

>  <r_i_docking_score>  (436) 
-3.99865

>  <r_i_glide_ligand_efficiency>  (436) 
-0.249916

>  <r_i_glide_ligand_efficiency_sa>  (436) 
-0.629748

>  <r_i_glide_ligand_efficiency_ln>  (436) 
-1.05992

>  <r_i_glide_gscore>  (436) 
-3.99865

>  <r_i_glide_lipo>  (436) 
-0.528642

>  <r_i_glide_hbond>  (436) 
-0.25606

>  <r_i_glide_metal>  (436) 
-0

>  <r_i_glide_rewards>  (436) 
-2.05063

>  <r_i_glide_evdw>  (436) 
-20.0991

>  <r_i_glide_ecoul>  (436) 
-3.24969

>  <r_i_glide_erotb>  (436) 
0.361038

>  <r_i_glide_esite>  (436) 
-0.0319465

>  <r_i_glide_emodel>  (436) 
-29.3608

>  <r_i_glide_energy>  (436) 
-23.3488

>  <r_i_glide_einternal>  (436) 
0.358457

>  <r_i_glide_intrahb_reward>  (436) 
-0

>  <i_i_glide_confnum>  (436) 
6

>  <i_i_glide_posenum>  (436) 
17

>  <r_i_glide_eff_state_penalty>  (436) 
0

>  <ligand_id>  (436) 
115

>  <original_smiles>  (436) 
Cc1nnc2n1NC(c1ccncc1)C2C

>  <smiles>  (436) 
[H]c1nc([H])c([H])c(C2([H])N([H])n3c(C([H])([H])[H])nnc3C2([H])C([H])([H])[H])c1[H]

$$$$
115:0:1
     RDKit          3D

 29 31  0  0  1  0  0  0  0  0999 V2000
    2.8060   -2.6693   -3.7488 C   0  0  0  0  0  0  0  0  0  0  0  0
    3.8084   -2.5272   -2.6614 C   0  0  0  0  0  0  0  0  0  0  0  0
    4.9660   -1.8467   -2.7166 N   0  0  0  0  0  0  0  0  0  0  0  0
    5.5755   -1.9507   -1.4580 N   0  0  0  0  0  0  0  0  0  0  0  0
    4.7263   -2.7086   -0.7703 C   0  0  0  0  0  0  0  0  0  0  0  0
    3.6741   -3.0648   -1.4528 N   0  0  0  0  0  0  0  0  0  0  0  0
    2.7024   -3.7809   -0.7593 N   0  0  0  0  0  0  0  0  0  0  0  0
    3.0625   -3.5564    0.6435 C   0  0  1  0  0  0  0  0  0  0  0  0
    2.6183   -4.6558    1.6130 C   0  0  0  0  0  0  0  0  0  0  0  0
    2.2732   -4.3226    2.9397 C   0  0  0  0  0  0  0  0  0  0  0  0
    1.8068   -5.3394    3.7946 C   0  0  0  0  0  0  0  0  0  0  0  0
    1.6621   -6.6220    3.4042 N   0  0  0  0  0  0  0  0  0  0  0  0
    2.0199   -6.9461    2.1439 C   0  0  0  0  0  0  0  0  0  0  0  0
    2.4943   -6.0022    1.2143 C   0  0  0  0  0  0  0  0  0  0  0  0
    4.5937   -3.2238    0.6045 C   0  0  1  0  0  0  0  0  0  0  0  0
    5.5458   -4.4067    0.8809 C   0  0  0  0  0  0  0  0  0  0  0  0
    3.1511   -2.1078   -4.6103 H   0  0  0  0  0  0  0  0  0  0  0  0
    1.8331   -2.2730   -3.4428 H   0  0  0  0  0  0  0  0  0  0  0  0
    2.6867   -3.7206   -4.0324 H   0  0  0  0  0  0  0  0  0  0  0  0
    2.8326   -4.7537   -0.9985 H   0  0  0  0  0  0  0  0  0  0  0  0
    2.5309   -2.6406    0.9245 H   0  0  0  0  0  0  0  0  0  0  0  0
    2.3468   -3.3020    3.2961 H   0  0  0  0  0  0  0  0  0  0  0  0
    1.5177   -5.1181    4.8115 H   0  0  0  0  0  0  0  0  0  0  0  0
    1.9037   -7.9824    1.8718 H   0  0  0  0  0  0  0  0  0  0  0  0
    2.7557   -6.3170    0.2150 H   0  0  0  0  0  0  0  0  0  0  0  0
    4.8231   -2.4161    1.2913 H   0  0  0  0  0  0  0  0  0  0  0  0
    6.5885   -4.1033    0.7477 H   0  0  0  0  0  0  0  0  0  0  0  0
    5.3673   -5.2497    0.2021 H   0  0  0  0  0  0  0  0  0  0  0  0
    5.4528   -4.7769    1.9049 H   0  0  0  0  0  0  0  0  0  0  0  0
  1  2  1  0
  1 17  1  0
  1 18  1  0
  1 19  1  0
  2  6  1  0
  2  3  2  0
  3  4  1  0
  4  5  2  0
  5 15  1  0
  5  6  1  0
  6  7  1  0
  7  8  1  0
  7 20  1  0
  8  9  1  0
  8 15  1  0
  8 21  1  1
  9 14  1  0
  9 10  2  0
 10 11  1  0
 10 22  1  0
 11 12  2  0
 11 23  1  0
 12 13  1  0
 13 14  2  0
 13 24  1  0
 14 25  1  0
 15 16  1  0
 15 26  1  1
 16 27  1  0
 16 28  1  0
 16 29  1  0
M  END
>  <i_m_ct_stereo_status>  (437) 
1

>  <s_m_source_file>  (437) 
/var/tmp/pbs.5076255.sched01/tmp1cu33jom/138ve8n868x.sdf

>  <i_m_source_file_index>  (437) 
33

>  <i_lp_mmshare_version>  (437) 
48012

>  <i_f3d_flags>  (437) 
0

>  <s_epik_input>  (437) 
bjFuYyhbQ0gzXSluKGMxMilbTkhdW0NASF0oW0NASF0yW0NIM10pYzNbY0hdW2NIXW5bY0hdW2NIXTM=

>  <s_epik_cmdline>  (437) 
J2VwaWtfcHl0aG9uJywgJy1waHQnLCAnMi4wJywgJy1waCcsICc3LjAnLCAnLXRuJywgJzgnLCAnLW1hJywgJzIwMCcsICctaW1hZScsICc8aW5maWxlLm1hZT4nLCAnLW9tYWUnLCAnPG91dGZpbGUubWFlPic=

>  <r_epik_Ionization_Penalty>  (437) 
0.0619778

>  <r_epik_Ionization_Penalty_Charging>  (437) 
0

>  <r_epik_Ionization_Penalty_Neutral>  (437) 
0.0619778

>  <r_epik_State_Penalty>  (437) 
0.0536074

>  <r_epik_Charging_Adjusted_Penalty>  (437) 
0.0536074

>  <i_epik_Tot_Q>  (437) 
0

>  <i_epik_Tot_abs_Q>  (437) 
0

>  <s_lp_Force_Field>  (437) 
OPLS3e

>  <r_lp_Energy>  (437) 
19.9763

>  <b_lp_Chiralities_Consistent>  (437) 
1

>  <s_lp_Variant>  (437) 
115:0-1

>  <s_i_glide_gridfile>  (437) 
pfpi4k_grid

>  <i_i_glide_lignum>  (437) 
33

>  <i_i_glide_rotatable_bonds>  (437) 
1

>  <r_i_docking_score>  (437) 
-3.73575

>  <r_i_glide_ligand_efficiency>  (437) 
-0.233484

>  <r_i_glide_ligand_efficiency_sa>  (437) 
-0.588344

>  <r_i_glide_ligand_efficiency_ln>  (437) 
-0.990235

>  <r_i_glide_gscore>  (437) 
-3.73575

>  <r_i_glide_lipo>  (437) 
-0.292101

>  <r_i_glide_hbond>  (437) 
-0.233507

>  <r_i_glide_metal>  (437) 
-0

>  <r_i_glide_rewards>  (437) 
-1.96648

>  <r_i_glide_evdw>  (437) 
-19.629

>  <r_i_glide_ecoul>  (437) 
-3.56512

>  <r_i_glide_erotb>  (437) 
0.361038

>  <r_i_glide_esite>  (437) 
-0.0884826

>  <r_i_glide_emodel>  (437) 
-28.788

>  <r_i_glide_energy>  (437) 
-23.1941

>  <r_i_glide_einternal>  (437) 
0.308836

>  <r_i_glide_intrahb_reward>  (437) 
-0

>  <i_i_glide_confnum>  (437) 
3

>  <i_i_glide_posenum>  (437) 
1

>  <r_i_glide_eff_state_penalty>  (437) 
0

>  <ligand_id>  (437) 
115

>  <original_smiles>  (437) 
Cc1nnc2n1NC(c1ccncc1)C2C

>  <smiles>  (437) 
[H]c1nc([H])c([H])c(C2([H])N([H])n3c(C([H])([H])[H])nnc3C2([H])C([H])([H])[H])c1[H]

$$$$
115:0:2
     RDKit          3D

 29 31  0  0  1  0  0  0  0  0999 V2000
    3.1308   -1.7580   -3.2094 C   0  0  0  0  0  0  0  0  0  0  0  0
    4.1096   -2.3948   -2.2845 C   0  0  0  0  0  0  0  0  0  0  0  0
    5.4463   -2.2376   -2.3183 N   0  0  0  0  0  0  0  0  0  0  0  0
    5.9742   -2.9779   -1.2462 N   0  0  0  0  0  0  0  0  0  0  0  0
    4.8983   -3.5244   -0.6833 C   0  0  0  0  0  0  0  0  0  0  0  0
    3.7838   -3.2000   -1.2739 N   0  0  0  0  0  0  0  0  0  0  0  0
    2.6189   -3.6736   -0.6789 N   0  0  0  0  0  0  0  0  0  0  0  0
    3.0732   -4.0590    0.6688 C   0  0  1  0  0  0  0  0  0  0  0  0
    2.2445   -5.1183    1.3827 C   0  0  0  0  0  0  0  0  0  0  0  0
    1.5765   -6.1421    0.6848 C   0  0  0  0  0  0  0  0  0  0  0  0
    0.7926   -7.0590    1.4091 C   0  0  0  0  0  0  0  0  0  0  0  0
    0.6262   -6.9858    2.7454 N   0  0  0  0  0  0  0  0  0  0  0  0
    1.2920   -6.0277    3.4186 C   0  0  0  0  0  0  0  0  0  0  0  0
    2.0995   -5.0687    2.7824 C   0  0  0  0  0  0  0  0  0  0  0  0
    4.6023   -4.3600    0.4984 C   0  0  1  0  0  0  0  0  0  0  0  0
    4.9682   -5.8409    0.2821 C   0  0  0  0  0  0  0  0  0  0  0  0
    3.6629   -1.1383   -3.9279 H   0  0  0  0  0  0  0  0  0  0  0  0
    2.4405   -1.1220   -2.6560 H   0  0  0  0  0  0  0  0  0  0  0  0
    2.5614   -2.5141   -3.7505 H   0  0  0  0  0  0  0  0  0  0  0  0
    2.3580   -4.5021   -1.2014 H   0  0  0  0  0  0  0  0  0  0  0  0
    2.9867   -3.1425    1.2551 H   0  0  0  0  0  0  0  0  0  0  0  0
    1.6622   -6.2331   -0.3865 H   0  0  0  0  0  0  0  0  0  0  0  0
    0.2668   -7.8528    0.9022 H   0  0  0  0  0  0  0  0  0  0  0  0
    1.1523   -6.0107    4.4890 H   0  0  0  0  0  0  0  0  0  0  0  0
    2.5868   -4.2996    3.3651 H   0  0  0  0  0  0  0  0  0  0  0  0
    5.1529   -3.9753    1.3592 H   0  0  0  0  0  0  0  0  0  0  0  0
    6.0366   -5.9434    0.0839 H   0  0  0  0  0  0  0  0  0  0  0  0
    4.4339   -6.2729   -0.5704 H   0  0  0  0  0  0  0  0  0  0  0  0
    4.7425   -6.4454    1.1605 H   0  0  0  0  0  0  0  0  0  0  0  0
  1  2  1  0
  1 17  1  0
  1 18  1  0
  1 19  1  0
  2  6  1  0
  2  3  2  0
  3  4  1  0
  4  5  2  0
  5 15  1  0
  5  6  1  0
  6  7  1  0
  7  8  1  0
  7 20  1  0
  8  9  1  0
  8 15  1  0
  8 21  1  1
  9 14  1  0
  9 10  2  0
 10 11  1  0
 10 22  1  0
 11 12  2  0
 11 23  1  0
 12 13  1  0
 13 14  2  0
 13 24  1  0
 14 25  1  0
 15 16  1  0
 15 26  1  1
 16 27  1  0
 16 28  1  0
 16 29  1  0
M  END
>  <i_m_ct_stereo_status>  (438) 
1

>  <s_m_source_file>  (438) 
/var/tmp/pbs.5076255.sched01/tmp1cu33jom/138ve8n868x.sdf

>  <i_m_source_file_index>  (438) 
33

>  <i_lp_mmshare_version>  (438) 
48012

>  <i_f3d_flags>  (438) 
0

>  <s_epik_input>  (438) 
bjFuYyhbQ0gzXSluKGMxMilbTkhdW0NASF0oW0NASF0yW0NIM10pYzNbY0hdW2NIXW5bY0hdW2NIXTM=

>  <s_epik_cmdline>  (438) 
J2VwaWtfcHl0aG9uJywgJy1waHQnLCAnMi4wJywgJy1waCcsICc3LjAnLCAnLXRuJywgJzgnLCAnLW1hJywgJzIwMCcsICctaW1hZScsICc8aW5maWxlLm1hZT4nLCAnLW9tYWUnLCAnPG91dGZpbGUubWFlPic=

>  <r_epik_Ionization_Penalty>  (438) 
0.0619778

>  <r_epik_Ionization_Penalty_Charging>  (438) 
0

>  <r_epik_Ionization_Penalty_Neutral>  (438) 
0.0619778

>  <r_epik_State_Penalty>  (438) 
0.0536074

>  <r_epik_Charging_Adjusted_Penalty>  (438) 
0.0536074

>  <i_epik_Tot_Q>  (438) 
0

>  <i_epik_Tot_abs_Q>  (438) 
0

>  <s_lp_Force_Field>  (438) 
OPLS3e

>  <r_lp_Energy>  (438) 
19.9763

>  <b_lp_Chiralities_Consistent>  (438) 
1

>  <s_lp_Variant>  (438) 
115:0-1

>  <s_i_glide_gridfile>  (438) 
pfpi4k_grid

>  <i_i_glide_lignum>  (438) 
33

>  <i_i_glide_rotatable_bonds>  (438) 
1

>  <r_i_docking_score>  (438) 
-3.68686

>  <r_i_glide_ligand_efficiency>  (438) 
-0.230429

>  <r_i_glide_ligand_efficiency_sa>  (438) 
-0.580644

>  <r_i_glide_ligand_efficiency_ln>  (438) 
-0.977276

>  <r_i_glide_gscore>  (438) 
-3.68686

>  <r_i_glide_lipo>  (438) 
-0.210996

>  <r_i_glide_hbond>  (438) 
-0.173898

>  <r_i_glide_metal>  (438) 
-0

>  <r_i_glide_rewards>  (438) 
-2.06332

>  <r_i_glide_evdw>  (438) 
-20.5937

>  <r_i_glide_ecoul>  (438) 
-3.57398

>  <r_i_glide_erotb>  (438) 
0.361038

>  <r_i_glide_esite>  (438) 
-0.0339076

>  <r_i_glide_emodel>  (438) 
-29.8567

>  <r_i_glide_energy>  (438) 
-24.1677

>  <r_i_glide_einternal>  (438) 
0.00666309

>  <r_i_glide_intrahb_reward>  (438) 
-0

>  <i_i_glide_confnum>  (438) 
3

>  <i_i_glide_posenum>  (438) 
36

>  <r_i_glide_eff_state_penalty>  (438) 
0

>  <ligand_id>  (438) 
115

>  <original_smiles>  (438) 
Cc1nnc2n1NC(c1ccncc1)C2C

>  <smiles>  (438) 
[H]c1nc([H])c([H])c(C2([H])N([H])n3c(C([H])([H])[H])nnc3C2([H])C([H])([H])[H])c1[H]

$$$$
115:1:0
     RDKit          3D

 30 32  0  0  1  0  0  0  0  0999 V2000
   -0.0853   -4.7478    6.8150 C   0  0  0  0  0  0  0  0  0  0  0  0
    0.1806   -6.0637    7.4699 C   0  0  0  0  0  0  0  0  0  0  0  0
   -0.0270   -6.3490    8.7735 N   0  0  0  0  0  0  0  0  0  0  0  0
    0.2864   -7.7221    8.9291 N   0  0  0  0  0  0  0  0  0  0  0  0
    0.6970   -8.1113    7.7130 C   0  0  0  0  0  0  0  0  0  0  0  0
    0.6296   -7.1541    6.8296 N   0  0  0  0  0  0  0  0  0  0  0  0
    0.9532   -7.5206    5.5147 N   0  0  0  0  0  0  0  0  0  0  0  0
    0.8905   -9.0027    5.5586 C   0  0  1  0  0  0  0  0  0  0  0  0
    1.6758   -9.7231    4.4727 C   0  0  0  0  0  0  0  0  0  0  0  0
    2.2076  -11.0175    4.6668 C   0  0  0  0  0  0  0  0  0  0  0  0
    2.9741  -11.6199    3.6509 C   0  0  0  0  0  0  0  0  0  0  0  0
    3.1261  -10.9842    2.4764 N   0  0  0  0  0  0  0  0  0  0  0  0
    2.5911   -9.7721    2.2073 C   0  0  0  0  0  0  0  0  0  0  0  0
    1.8591   -9.1046    3.2113 C   0  0  0  0  0  0  0  0  0  0  0  0
    1.1794   -9.3669    7.0719 C   0  0  1  0  0  0  0  0  0  0  0  0
    2.6458   -9.6677    7.4754 C   0  0  0  0  0  0  0  0  0  0  0  0
   -0.4683   -4.0550    7.5578 H   0  0  0  0  0  0  0  0  0  0  0  0
   -0.8333   -4.8482    6.0291 H   0  0  0  0  0  0  0  0  0  0  0  0
    0.8268   -4.3286    6.3905 H   0  0  0  0  0  0  0  0  0  0  0  0
    1.9164   -7.2378    5.3811 H   0  0  0  0  0  0  0  0  0  0  0  0
   -0.1622   -9.2251    5.3522 H   0  0  0  0  0  0  0  0  0  0  0  0
    2.0266  -11.5755    5.5602 H   0  0  0  0  0  0  0  0  0  0  0  0
    3.4232  -12.5954    3.7299 H   0  0  0  0  0  0  0  0  0  0  0  0
    2.7128   -9.4140    1.1938 H   0  0  0  0  0  0  0  0  0  0  0  0
    1.4052   -8.1497    2.9820 H   0  0  0  0  0  0  0  0  0  0  0  0
    0.5119  -10.1814    7.3633 H   0  0  0  0  0  0  0  0  0  0  0  0
    2.7097   -9.7396    8.5592 H   0  0  0  0  0  0  0  0  0  0  0  0
    3.3071   -8.8681    7.1526 H   0  0  0  0  0  0  0  0  0  0  0  0
    3.0217  -10.6084    7.0806 H   0  0  0  0  0  0  0  0  0  0  0  0
    3.6381  -11.4667    1.7171 H   0  0  0  0  0  0  0  0  0  0  0  0
  1  2  1  0
  1 17  1  0
  1 18  1  0
  1 19  1  0
  2  6  1  0
  2  3  2  0
  3  4  1  0
  4  5  2  0
  5 15  1  0
  5  6  1  0
  6  7  1  0
  7  8  1  0
  7 20  1  0
  8  9  1  0
  8 15  1  0
  8 21  1  6
  9 14  1  0
  9 10  2  0
 10 11  1  0
 10 22  1  0
 11 12  2  0
 11 23  1  0
 12 13  1  0
 12 30  1  0
 13 14  2  0
 13 24  1  0
 14 25  1  0
 15 16  1  0
 15 26  1  1
 16 27  1  0
 16 28  1  0
 16 29  1  0
M  CHG  1  12   1
M  END
>  <i_m_ct_stereo_status>  (439) 
1

>  <s_m_source_file>  (439) 
/var/tmp/pbs.5076255.sched01/tmp1cu33jom/138ve8n868x.sdf

>  <i_m_source_file_index>  (439) 
34

>  <i_lp_mmshare_version>  (439) 
48012

>  <i_f3d_flags>  (439) 
0

>  <s_epik_input>  (439) 
bjFuYyhbQ0gzXSluKGMxMilbTkhdW0NASF0oW0NASF0yW0NIM10pYzNbY0hdW2NIXW5bY0hdW2NIXTM=

>  <s_epik_cmdline>  (439) 
J2VwaWtfcHl0aG9uJywgJy1waHQnLCAnMi4wJywgJy1waCcsICc3LjAnLCAnLXRuJywgJzgnLCAnLW1hJywgJzIwMCcsICctaW1hZScsICc8aW5maWxlLm1hZT4nLCAnLW9tYWUnLCAnPG91dGZpbGUubWFlPic=

>  <r_epik_Ionization_Penalty>  (439) 
1.37055

>  <r_epik_Ionization_Penalty_Charging>  (439) 
1.37047

>  <r_epik_Ionization_Penalty_Neutral>  (439) 
8.00881e-05

>  <r_epik_State_Penalty>  (439) 
1.45013

>  <r_epik_Charging_Adjusted_Penalty>  (439) 
2.8206

>  <i_epik_Tot_Q>  (439) 
1

>  <i_epik_Tot_abs_Q>  (439) 
1

>  <s_lp_Force_Field>  (439) 
OPLS3e

>  <r_lp_Energy>  (439) 
26.4627

>  <b_lp_Chiralities_Consistent>  (439) 
1

>  <s_lp_Variant>  (439) 
115:0-2

>  <s_i_glide_gridfile>  (439) 
pfpi4k_grid

>  <i_i_glide_lignum>  (439) 
34

>  <i_i_glide_rotatable_bonds>  (439) 
1

>  <r_i_docking_score>  (439) 
-4.25101

>  <r_i_glide_ligand_efficiency>  (439) 
-0.265688

>  <r_i_glide_ligand_efficiency_sa>  (439) 
-0.669491

>  <r_i_glide_ligand_efficiency_ln>  (439) 
-1.12681

>  <r_i_glide_gscore>  (439) 
-4.25101

>  <r_i_glide_lipo>  (439) 
0

>  <r_i_glide_hbond>  (439) 
-0.2

>  <r_i_glide_metal>  (439) 
-0

>  <r_i_glide_rewards>  (439) 
-1.93457

>  <r_i_glide_evdw>  (439) 
-12.3361

>  <r_i_glide_ecoul>  (439) 
-10.9168

>  <r_i_glide_erotb>  (439) 
0.35821

>  <r_i_glide_esite>  (439) 
-0.220307

>  <r_i_glide_emodel>  (439) 
-31.8122

>  <r_i_glide_energy>  (439) 
-23.253

>  <r_i_glide_einternal>  (439) 
1.552

>  <r_i_glide_intrahb_reward>  (439) 
-0

>  <i_i_glide_confnum>  (439) 
5

>  <i_i_glide_posenum>  (439) 
1

>  <r_i_glide_eff_state_penalty>  (439) 
0

>  <ligand_id>  (439) 
115

>  <original_smiles>  (439) 
Cc1nnc2n1NC(c1ccncc1)C2C

>  <smiles>  (439) 
[H]c1c(C2([H])N([H])n3c(C([H])([H])[H])nnc3C2([H])C([H])([H])[H])c([H])c([H])[n+]([H])c1[H]

$$$$
115:1:1
     RDKit          3D

 30 32  0  0  1  0  0  0  0  0999 V2000
    5.3999   -2.1369   -1.2434 C   0  0  0  0  0  0  0  0  0  0  0  0
    6.5434   -2.7515   -0.5117 C   0  0  0  0  0  0  0  0  0  0  0  0
    7.7502   -2.1863   -0.3111 N   0  0  0  0  0  0  0  0  0  0  0  0
    8.5027   -3.0936    0.4524 N   0  0  0  0  0  0  0  0  0  0  0  0
    7.6775   -4.1263    0.6182 C   0  0  0  0  0  0  0  0  0  0  0  0
    6.5197   -3.9552    0.0555 N   0  0  0  0  0  0  0  0  0  0  0  0
    5.5985   -4.9893    0.2390 N   0  0  0  0  0  0  0  0  0  0  0  0
    6.1650   -5.7483    1.3703 C   0  0  1  0  0  0  0  0  0  0  0  0
    5.7502   -7.2176    1.4822 C   0  0  0  0  0  0  0  0  0  0  0  0
    4.5576   -7.6705    0.8789 C   0  0  0  0  0  0  0  0  0  0  0  0
    4.1893   -9.0208    0.9951 C   0  0  0  0  0  0  0  0  0  0  0  0
    4.9814   -9.8679    1.6753 N   0  0  0  0  0  0  0  0  0  0  0  0
    6.1201   -9.4901    2.2936 C   0  0  0  0  0  0  0  0  0  0  0  0
    6.5067   -8.1400    2.2418 C   0  0  0  0  0  0  0  0  0  0  0  0
    7.7042   -5.4306    1.3095 C   0  0  1  0  0  0  0  0  0  0  0  0
    8.5809   -6.4467    0.5452 C   0  0  0  0  0  0  0  0  0  0  0  0
    5.6746   -1.1392   -1.5773 H   0  0  0  0  0  0  0  0  0  0  0  0
    4.5197   -2.0493   -0.5995 H   0  0  0  0  0  0  0  0  0  0  0  0
    5.1395   -2.7354   -2.1192 H   0  0  0  0  0  0  0  0  0  0  0  0
    5.6309   -5.5524   -0.6013 H   0  0  0  0  0  0  0  0  0  0  0  0
    5.7582   -5.2568    2.2551 H   0  0  0  0  0  0  0  0  0  0  0  0
    3.9141   -6.9932    0.3338 H   0  0  0  0  0  0  0  0  0  0  0  0
    3.2951   -9.4561    0.5724 H   0  0  0  0  0  0  0  0  0  0  0  0
    6.6800  -10.2596    2.8007 H   0  0  0  0  0  0  0  0  0  0  0  0
    7.3924   -7.8359    2.7766 H   0  0  0  0  0  0  0  0  0  0  0  0
    8.0925   -5.2875    2.3197 H   0  0  0  0  0  0  0  0  0  0  0  0
    9.6058   -6.0828    0.4671 H   0  0  0  0  0  0  0  0  0  0  0  0
    8.2223   -6.6321   -0.4644 H   0  0  0  0  0  0  0  0  0  0  0  0
    8.6095   -7.4213    1.0229 H   0  0  0  0  0  0  0  0  0  0  0  0
    4.7039  -10.8562    1.6765 H   0  0  0  0  0  0  0  0  0  0  0  0
  1  2  1  0
  1 17  1  0
  1 18  1  0
  1 19  1  0
  2  6  1  0
  2  3  2  0
  3  4  1  0
  4  5  2  0
  5 15  1  0
  5  6  1  0
  6  7  1  0
  7  8  1  0
  7 20  1  0
  8  9  1  0
  8 15  1  0
  8 21  1  1
  9 14  1  0
  9 10  2  0
 10 11  1  0
 10 22  1  0
 11 12  2  0
 11 23  1  0
 12 13  1  0
 12 30  1  0
 13 14  2  0
 13 24  1  0
 14 25  1  0
 15 16  1  0
 15 26  1  1
 16 27  1  0
 16 28  1  0
 16 29  1  0
M  CHG  1  12   1
M  END
>  <i_m_ct_stereo_status>  (440) 
1

>  <s_m_source_file>  (440) 
/var/tmp/pbs.5076255.sched01/tmp1cu33jom/138ve8n868x.sdf

>  <i_m_source_file_index>  (440) 
34

>  <i_lp_mmshare_version>  (440) 
48012

>  <i_f3d_flags>  (440) 
0

>  <s_epik_input>  (440) 
bjFuYyhbQ0gzXSluKGMxMilbTkhdW0NASF0oW0NASF0yW0NIM10pYzNbY0hdW2NIXW5bY0hdW2NIXTM=

>  <s_epik_cmdline>  (440) 
J2VwaWtfcHl0aG9uJywgJy1waHQnLCAnMi4wJywgJy1waCcsICc3LjAnLCAnLXRuJywgJzgnLCAnLW1hJywgJzIwMCcsICctaW1hZScsICc8aW5maWxlLm1hZT4nLCAnLW9tYWUnLCAnPG91dGZpbGUubWFlPic=

>  <r_epik_Ionization_Penalty>  (440) 
1.37055

>  <r_epik_Ionization_Penalty_Charging>  (440) 
1.37047

>  <r_epik_Ionization_Penalty_Neutral>  (440) 
8.00881e-05

>  <r_epik_State_Penalty>  (440) 
1.45013

>  <r_epik_Charging_Adjusted_Penalty>  (440) 
2.8206

>  <i_epik_Tot_Q>  (440) 
1

>  <i_epik_Tot_abs_Q>  (440) 
1

>  <s_lp_Force_Field>  (440) 
OPLS3e

>  <r_lp_Energy>  (440) 
26.4627

>  <b_lp_Chiralities_Consistent>  (440) 
1

>  <s_lp_Variant>  (440) 
115:0-2

>  <s_i_glide_gridfile>  (440) 
pfpi4k_grid

>  <i_i_glide_lignum>  (440) 
34

>  <i_i_glide_rotatable_bonds>  (440) 
1

>  <r_i_docking_score>  (440) 
-4.18048

>  <r_i_glide_ligand_efficiency>  (440) 
-0.26128

>  <r_i_glide_ligand_efficiency_sa>  (440) 
-0.658384

>  <r_i_glide_ligand_efficiency_ln>  (440) 
-1.10812

>  <r_i_glide_gscore>  (440) 
-4.18048

>  <r_i_glide_lipo>  (440) 
-0.404797

>  <r_i_glide_hbond>  (440) 
-0.136745

>  <r_i_glide_metal>  (440) 
-0

>  <r_i_glide_rewards>  (440) 
-2.27334

>  <r_i_glide_evdw>  (440) 
-18.5986

>  <r_i_glide_ecoul>  (440) 
-4.43265

>  <r_i_glide_erotb>  (440) 
0.35821

>  <r_i_glide_esite>  (440) 
-0.12898

>  <r_i_glide_emodel>  (440) 
-31.7196

>  <r_i_glide_energy>  (440) 
-23.0313

>  <r_i_glide_einternal>  (440) 
1.13444

>  <r_i_glide_intrahb_reward>  (440) 
-0

>  <i_i_glide_confnum>  (440) 
4

>  <i_i_glide_posenum>  (440) 
16

>  <r_i_glide_eff_state_penalty>  (440) 
0

>  <ligand_id>  (440) 
115

>  <original_smiles>  (440) 
Cc1nnc2n1NC(c1ccncc1)C2C

>  <smiles>  (440) 
[H]c1c(C2([H])N([H])n3c(C([H])([H])[H])nnc3C2([H])C([H])([H])[H])c([H])c([H])[n+]([H])c1[H]

$$$$
115:1:2
     RDKit          3D

 30 32  0  0  1  0  0  0  0  0999 V2000
    7.6378   -5.9103    1.1942 C   0  0  0  0  0  0  0  0  0  0  0  0
    6.4870   -5.1261    1.7029 C   0  0  0  0  0  0  0  0  0  0  0  0
    6.0549   -5.0909    2.9756 N   0  0  0  0  0  0  0  0  0  0  0  0
    5.0022   -4.1717    3.0293 N   0  0  0  0  0  0  0  0  0  0  0  0
    4.8680   -3.7744    1.7641 C   0  0  0  0  0  0  0  0  0  0  0  0
    5.7250   -4.3302    0.9574 N   0  0  0  0  0  0  0  0  0  0  0  0
    5.6882   -3.8812   -0.3757 N   0  0  0  0  0  0  0  0  0  0  0  0
    4.9021   -2.6426   -0.2870 C   0  0  1  0  0  0  0  0  0  0  0  0
    4.1977   -2.2382   -1.5862 C   0  0  0  0  0  0  0  0  0  0  0  0
    4.5122   -1.0106   -2.2187 C   0  0  0  0  0  0  0  0  0  0  0  0
    3.8555   -0.6525   -3.4176 C   0  0  0  0  0  0  0  0  0  0  0  0
    2.9450   -1.4882   -3.9669 N   0  0  0  0  0  0  0  0  0  0  0  0
    2.6093   -2.6634   -3.4002 C   0  0  0  0  0  0  0  0  0  0  0  0
    3.2345   -3.0540   -2.2076 C   0  0  0  0  0  0  0  0  0  0  0  0
    4.0316   -2.8193    1.0130 C   0  0  1  0  0  0  0  0  0  0  0  0
    2.6013   -3.3664    0.8460 C   0  0  0  0  0  0  0  0  0  0  0  0
    8.0931   -6.4502    2.0164 H   0  0  0  0  0  0  0  0  0  0  0  0
    8.3983   -5.2593    0.7406 H   0  0  0  0  0  0  0  0  0  0  0  0
    7.2995   -6.6409    0.4568 H   0  0  0  0  0  0  0  0  0  0  0  0
    5.1723   -4.5678   -0.9030 H   0  0  0  0  0  0  0  0  0  0  0  0
    5.6406   -1.8706   -0.0571 H   0  0  0  0  0  0  0  0  0  0  0  0
    5.2301   -0.3463   -1.7673 H   0  0  0  0  0  0  0  0  0  0  0  0
    4.0290    0.2777   -3.9412 H   0  0  0  0  0  0  0  0  0  0  0  0
    1.8336   -3.2317   -3.8880 H   0  0  0  0  0  0  0  0  0  0  0  0
    2.9293   -3.9728   -1.7473 H   0  0  0  0  0  0  0  0  0  0  0  0
    3.9922   -1.8883    1.5683 H   0  0  0  0  0  0  0  0  0  0  0  0
    2.1053   -3.5004    1.8138 H   0  0  0  0  0  0  0  0  0  0  0  0
    2.5830   -4.3525    0.3651 H   0  0  0  0  0  0  0  0  0  0  0  0
    1.9874   -2.6774    0.2665 H   0  0  0  0  0  0  0  0  0  0  0  0
    2.4661   -1.2169   -4.8252 H   0  0  0  0  0  0  0  0  0  0  0  0
  1  2  1  0
  1 17  1  0
  1 18  1  0
  1 19  1  0
  2  6  1  0
  2  3  2  0
  3  4  1  0
  4  5  2  0
  5 15  1  0
  5  6  1  0
  6  7  1  0
  7  8  1  0
  7 20  1  0
  8  9  1  0
  8 15  1  0
  8 21  1  1
  9 14  1  0
  9 10  2  0
 10 11  1  0
 10 22  1  0
 11 12  2  0
 11 23  1  0
 12 13  1  0
 12 30  1  0
 13 14  2  0
 13 24  1  0
 14 25  1  0
 15 16  1  0
 15 26  1  1
 16 27  1  0
 16 28  1  0
 16 29  1  0
M  CHG  1  12   1
M  END
>  <i_m_ct_stereo_status>  (441) 
1

>  <s_m_source_file>  (441) 
/var/tmp/pbs.5076255.sched01/tmp1cu33jom/138ve8n868x.sdf

>  <i_m_source_file_index>  (441) 
34

>  <i_lp_mmshare_version>  (441) 
48012

>  <i_f3d_flags>  (441) 
0

>  <s_epik_input>  (441) 
bjFuYyhbQ0gzXSluKGMxMilbTkhdW0NASF0oW0NASF0yW0NIM10pYzNbY0hdW2NIXW5bY0hdW2NIXTM=

>  <s_epik_cmdline>  (441) 
J2VwaWtfcHl0aG9uJywgJy1waHQnLCAnMi4wJywgJy1waCcsICc3LjAnLCAnLXRuJywgJzgnLCAnLW1hJywgJzIwMCcsICctaW1hZScsICc8aW5maWxlLm1hZT4nLCAnLW9tYWUnLCAnPG91dGZpbGUubWFlPic=

>  <r_epik_Ionization_Penalty>  (441) 
1.37055

>  <r_epik_Ionization_Penalty_Charging>  (441) 
1.37047

>  <r_epik_Ionization_Penalty_Neutral>  (441) 
8.00881e-05

>  <r_epik_State_Penalty>  (441) 
1.45013

>  <r_epik_Charging_Adjusted_Penalty>  (441) 
2.8206

>  <i_epik_Tot_Q>  (441) 
1

>  <i_epik_Tot_abs_Q>  (441) 
1

>  <s_lp_Force_Field>  (441) 
OPLS3e

>  <r_lp_Energy>  (441) 
26.4627

>  <b_lp_Chiralities_Consistent>  (441) 
1

>  <s_lp_Variant>  (441) 
115:0-2

>  <s_i_glide_gridfile>  (441) 
pfpi4k_grid

>  <i_i_glide_lignum>  (441) 
34

>  <i_i_glide_rotatable_bonds>  (441) 
1

>  <r_i_docking_score>  (441) 
-4.09132

>  <r_i_glide_ligand_efficiency>  (441) 
-0.255707

>  <r_i_glide_ligand_efficiency_sa>  (441) 
-0.644342

>  <r_i_glide_ligand_efficiency_ln>  (441) 
-1.08449

>  <r_i_glide_gscore>  (441) 
-4.09132

>  <r_i_glide_lipo>  (441) 
-0.430683

>  <r_i_glide_hbond>  (441) 
0

>  <r_i_glide_metal>  (441) 
-0

>  <r_i_glide_rewards>  (441) 
-2.16572

>  <r_i_glide_evdw>  (441) 
-18.0158

>  <r_i_glide_ecoul>  (441) 
-6.3489

>  <r_i_glide_erotb>  (441) 
0.35821

>  <r_i_glide_esite>  (441) 
0

>  <r_i_glide_emodel>  (441) 
-33.1446

>  <r_i_glide_energy>  (441) 
-24.3647

>  <r_i_glide_einternal>  (441) 
0.787336

>  <r_i_glide_intrahb_reward>  (441) 
-0

>  <i_i_glide_confnum>  (441) 
5

>  <i_i_glide_posenum>  (441) 
6

>  <r_i_glide_eff_state_penalty>  (441) 
0

>  <ligand_id>  (441) 
115

>  <original_smiles>  (441) 
Cc1nnc2n1NC(c1ccncc1)C2C

>  <smiles>  (441) 
[H]c1c(C2([H])N([H])n3c(C([H])([H])[H])nnc3C2([H])C([H])([H])[H])c([H])c([H])[n+]([H])c1[H]

$$$$
116:0:0
     RDKit          3D

 71 76  0  0  1  0  0  0  0  0999 V2000
    1.1984   -9.5766    2.6167 C   0  0  0  0  0  0  0  0  0  0  0  0
    2.0063   -8.2985    2.4728 C   0  0  0  0  0  0  0  0  0  0  0  0
    3.1337   -8.1542    1.7844 C   0  0  0  0  0  0  0  0  0  0  0  0
    3.5800   -6.7187    1.7733 C   0  0  0  0  0  0  0  0  0  0  0  0
    2.2552   -5.9637    2.0852 C   0  0  2  0  0  0  0  0  0  0  0  0
    1.5744   -5.8958    0.8463 O   0  0  0  0  0  0  0  0  0  0  0  0
    2.2252   -4.5126    2.6358 C   0  0  2  0  0  0  0  0  0  0  0  0
    2.9714   -3.2149    2.1442 C   0  0  2  0  0  0  0  0  0  0  0  0
    1.9001   -2.0578    2.0745 C   0  0  0  0  0  0  0  0  0  0  0  0
    3.9062   -2.9307    0.8896 C   0  0  2  0  0  0  0  0  0  0  0  0
    3.0556   -2.6303   -0.2159 O   0  0  0  0  0  0  0  0  0  0  0  0
    4.7438   -4.1072    0.3076 C   0  0  0  0  0  0  0  0  0  0  0  0
    5.9072   -3.7103   -0.6235 C   0  0  1  0  0  0  0  0  0  0  0  0
    5.5167   -3.3218   -2.0653 C   0  0  0  0  0  0  0  0  0  0  0  0
    6.7233   -2.6166    0.0753 C   0  0  1  0  0  0  0  0  0  0  0  0
    7.8486   -2.2524   -0.7009 O   0  0  0  0  0  0  0  0  0  0  0  0
    5.8885   -1.5243    0.3038 O   0  0  0  0  0  0  0  0  0  0  0  0
    4.8092   -1.6786    1.2384 C   0  0  2  0  0  0  0  0  0  0  0  0
    5.3744   -1.5806    2.7055 C   0  0  1  0  0  0  0  0  0  0  0  0
    5.8110   -0.2579    2.9411 O   0  0  0  0  0  0  0  0  0  0  0  0
    4.4666   -2.0613    3.8979 C   0  0  1  0  0  0  0  0  0  0  0  0
    5.2537   -2.1285    5.2238 C   0  0  0  0  0  0  0  0  0  0  0  0
    3.4741   -1.0895    4.1892 O   0  0  0  0  0  0  0  0  0  0  0  0
    3.7972   -3.3901    3.4537 C   0  0  2  0  0  0  0  0  0  0  0  0
    4.9269   -4.2249    3.3366 O   0  0  0  0  0  0  0  0  0  0  0  0
    2.6295   -4.2056    4.1054 C   0  0  1  0  0  0  0  0  0  0  0  0
    1.7117   -3.4241    4.8400 O   0  0  0  0  0  0  0  0  0  0  0  0
    2.7636   -5.4618    4.9909 C   0  0  1  0  0  0  0  0  0  0  0  0
    3.9334   -5.4132    5.9651 C   0  0  0  0  0  0  0  0  0  0  0  0
    1.4928   -6.0607    5.5433 C   0  0  0  0  0  0  0  0  0  0  0  0
    0.5538   -6.0087    6.3599 O   0  0  0  0  0  0  0  0  0  0  0  0
    2.2052   -6.7841    4.4587 C   0  0  2  0  0  0  0  0  0  0  0  0
    2.8618   -7.9028    5.0351 O   0  0  0  0  0  0  0  0  0  0  0  0
    1.5502   -6.9719    3.0562 C   0  0  2  0  0  0  0  0  0  0  0  0
    0.0089   -6.8423    3.0960 C   0  0  0  0  0  0  0  0  0  0  0  0
    0.9866   -9.7824    3.6624 H   0  0  0  0  0  0  0  0  0  0  0  0
    1.7365  -10.4244    2.1925 H   0  0  0  0  0  0  0  0  0  0  0  0
    0.2481   -9.4915    2.0870 H   0  0  0  0  0  0  0  0  0  0  0  0
    3.6739   -8.9376    1.2730 H   0  0  0  0  0  0  0  0  0  0  0  0
    4.3291   -6.6210    2.5609 H   0  0  0  0  0  0  0  0  0  0  0  0
    4.0226   -6.5327    0.8025 H   0  0  0  0  0  0  0  0  0  0  0  0
    2.1704   -5.5233    0.2147 H   0  0  0  0  0  0  0  0  0  0  0  0
    1.1722   -4.2408    2.6237 H   0  0  0  0  0  0  0  0  0  0  0  0
    2.3054   -1.0654    1.9059 H   0  0  0  0  0  0  0  0  0  0  0  0
    1.2585   -1.9809    2.9501 H   0  0  0  0  0  0  0  0  0  0  0  0
    1.1957   -2.2059    1.2645 H   0  0  0  0  0  0  0  0  0  0  0  0
    2.5329   -1.8579   -0.0296 H   0  0  0  0  0  0  0  0  0  0  0  0
    5.2157   -4.7165    1.0668 H   0  0  0  0  0  0  0  0  0  0  0  0
    4.0952   -4.7626   -0.2762 H   0  0  0  0  0  0  0  0  0  0  0  0
    6.5560   -4.5792   -0.6955 H   0  0  0  0  0  0  0  0  0  0  0  0
    4.9561   -2.3885   -2.1033 H   0  0  0  0  0  0  0  0  0  0  0  0
    4.9037   -4.1019   -2.5162 H   0  0  0  0  0  0  0  0  0  0  0  0
    6.3972   -3.2116   -2.7000 H   0  0  0  0  0  0  0  0  0  0  0  0
    7.1387   -3.0027    1.0075 H   0  0  0  0  0  0  0  0  0  0  0  0
    8.3546   -3.0252   -0.8768 H   0  0  0  0  0  0  0  0  0  0  0  0
    4.2117   -0.7826    1.0861 H   0  0  0  0  0  0  0  0  0  0  0  0
    6.2546   -2.2064    2.7672 H   0  0  0  0  0  0  0  0  0  0  0  0
    6.5924   -0.1111    2.4193 H   0  0  0  0  0  0  0  0  0  0  0  0
    6.0633   -2.8573    5.2032 H   0  0  0  0  0  0  0  0  0  0  0  0
    4.6046   -2.3497    6.0685 H   0  0  0  0  0  0  0  0  0  0  0  0
    5.6994   -1.1579    5.4266 H   0  0  0  0  0  0  0  0  0  0  0  0
    3.0419   -0.8653    3.3839 H   0  0  0  0  0  0  0  0  0  0  0  0
    4.6025   -5.0561    3.0447 H   0  0  0  0  0  0  0  0  0  0  0  0
    1.7352   -2.5648    4.4578 H   0  0  0  0  0  0  0  0  0  0  0  0
    4.8672   -5.6795    5.4696 H   0  0  0  0  0  0  0  0  0  0  0  0
    3.7830   -6.1187    6.7824 H   0  0  0  0  0  0  0  0  0  0  0  0
    4.0331   -4.4245    6.4064 H   0  0  0  0  0  0  0  0  0  0  0  0
    2.3443   -8.6734    4.8668 H   0  0  0  0  0  0  0  0  0  0  0  0
   -0.2883   -5.8643    3.4480 H   0  0  0  0  0  0  0  0  0  0  0  0
   -0.4270   -7.5667    3.7812 H   0  0  0  0  0  0  0  0  0  0  0  0
   -0.4295   -7.0159    2.1200 H   0  0  0  0  0  0  0  0  0  0  0  0
  1  2  1  0
  1 36  1  0
  1 37  1  0
  1 38  1  0
  2 34  1  0
  2  3  2  0
  3  4  1  0
  3 39  1  0
  4  5  1  0
  4 40  1  0
  4 41  1  0
  5 34  1  0
  5  6  1  6
  5  7  1  0
  6 42  1  0
  7 26  1  0
  7  8  1  0
  7 43  1  1
  8 24  1  0
  8  9  1  1
  8 10  1  0
  9 44  1  0
  9 45  1  0
  9 46  1  0
 10 18  1  0
 10 11  1  6
 10 12  1  0
 11 47  1  0
 12 13  1  0
 12 48  1  0
 12 49  1  0
 13 14  1  0
 13 15  1  0
 13 50  1  6
 14 51  1  0
 14 52  1  0
 14 53  1  0
 15 16  1  0
 15 17  1  0
 15 54  1  1
 16 55  1  0
 17 18  1  0
 18 19  1  0
 18 56  1  6
 19 20  1  0
 19 21  1  0
 19 57  1  6
 20 58  1  0
 21 22  1  0
 21 23  1  1
 21 24  1  0
 22 59  1  0
 22 60  1  0
 22 61  1  0
 23 62  1  0
 24 25  1  6
 24 26  1  0
 25 63  1  0
 26 27  1  1
 26 28  1  0
 27 64  1  0
 28 32  1  0
 28 29  1  1
 28 30  1  0
 29 65  1  0
 29 66  1  0
 29 67  1  0
 30 31  2  0
 30 32  1  0
 32 33  1  1
 32 34  1  0
 33 68  1  0
 34 35  1  1
 35 69  1  0
 35 70  1  0
 35 71  1  0
M  END
>  <i_m_ct_stereo_status>  (442) 
1

>  <s_m_source_file>  (442) 
/var/tmp/pbs.5076255.sched01/tmp1cu33jom/138ve8n868x.sdf

>  <i_m_source_file_index>  (442) 
35

>  <i_lp_mmshare_version>  (442) 
48012

>  <i_f3d_flags>  (442) 
0

>  <s_epik_input>  (442) 
W0NIMl0xW0NIXT1DKFtDSDNdKVtDQEBdMihbQ0gzXSlDKEMzPU8pKFtPSF0pQzMoW0NIM10pW0NAQF00KFtPSF0pW0NAXTUoW09IXSlbQ0BdKFtDSDNdKShbT0hdKVtDQEhdKFtPSF0pW0NAQEhdKE9bQ0BIXShbT0hdKVtDQEBIXShbQ0gyXTYpW0NIM10pW0NAXTYoW09IXSlbQ0BAXTUoW0NIM10pW0NASF00W0NAQF0xMltPSF0=

>  <s_epik_cmdline>  (442) 
J2VwaWtfcHl0aG9uJywgJy1waHQnLCAnMi4wJywgJy1waCcsICc3LjAnLCAnLXRuJywgJzgnLCAnLW1hJywgJzIwMCcsICctaW1hZScsICc8aW5maWxlLm1hZT4nLCAnLW9tYWUnLCAnPG91dGZpbGUubWFlPic=

>  <r_lp_tautomer_probability>  (442) 
1

>  <r_epik_Ionization_Penalty>  (442) 
2.93296e-07

>  <r_epik_Ionization_Penalty_Charging>  (442) 
0

>  <r_epik_Ionization_Penalty_Neutral>  (442) 
2.93296e-07

>  <r_epik_State_Penalty>  (442) 
-0

>  <r_epik_Charging_Adjusted_Penalty>  (442) 
0

>  <i_epik_Tot_Q>  (442) 
0

>  <i_epik_Tot_abs_Q>  (442) 
0

>  <s_epik_Chemistry_Notes>  (442) 
This compound contains an acetal/aminal-like group ( X-CH(R)-Y where X, Y are N, S, or O) that may be acid/base labile, releasing an aldehyde.

>  <s_lp_Force_Field>  (442) 
OPLS3e

>  <r_lp_Energy>  (442) 
102.809

>  <b_lp_Chiralities_Consistent>  (442) 
1

>  <s_lp_Variant>  (442) 
116:0-1

>  <s_i_glide_gridfile>  (442) 
pfpi4k_grid

>  <i_i_glide_lignum>  (442) 
35

>  <i_i_glide_rotatable_bonds>  (442) 
8

>  <r_i_docking_score>  (442) 
-3.48625

>  <r_i_glide_ligand_efficiency>  (442) 
-0.0996072

>  <r_i_glide_ligand_efficiency_sa>  (442) 
-0.325822

>  <r_i_glide_ligand_efficiency_ln>  (442) 
-0.76531

>  <r_i_glide_gscore>  (442) 
-3.48625

>  <r_i_glide_lipo>  (442) 
-0.585226

>  <r_i_glide_hbond>  (442) 
-0.131452

>  <r_i_glide_metal>  (442) 
-0

>  <r_i_glide_rewards>  (442) 
-0.0977351

>  <r_i_glide_evdw>  (442) 
-23.3954

>  <r_i_glide_ecoul>  (442) 
-10.0121

>  <r_i_glide_erotb>  (442) 
0

>  <r_i_glide_esite>  (442) 
-0.000256063

>  <r_i_glide_emodel>  (442) 
-39.1387

>  <r_i_glide_energy>  (442) 
-33.4075

>  <r_i_glide_einternal>  (442) 
2.94227

>  <r_i_glide_intrahb_reward>  (442) 
-0

>  <i_i_glide_confnum>  (442) 
1

>  <i_i_glide_posenum>  (442) 
37

>  <r_i_glide_eff_state_penalty>  (442) 
0

>  <ligand_id>  (442) 
116

>  <original_smiles>  (442) 
CC1=CCC2(O)C3C4(C)C5(O)CC(C)C(O)OC5C(O)C(C)(O)C4(O)C3(O)C3(C)C(=O)C3(O)C12C

>  <smiles>  (442) 
[H]OC1([H])OC2([H])C([H])(O[H])C(O[H])(C([H])([H])[H])C3(O[H])C4(O[H])C([H])(C5(O[H])C([H])([H])C([H])=C(C([H])([H])[H])C5(C([H])([H])[H])C5(O[H])C(=O)C54C([H])([H])[H])C3(C([H])([H])[H])C2(O[H])C([H])([H])C1([H])C([H])([H])[H]

$$$$
116:0:1
     RDKit          3D

 71 76  0  0  1  0  0  0  0  0999 V2000
    1.0169   -9.6260    2.5912 C   0  0  0  0  0  0  0  0  0  0  0  0
    1.8295   -8.3516    2.4604 C   0  0  0  0  0  0  0  0  0  0  0  0
    2.9559   -8.2001    1.7660 C   0  0  0  0  0  0  0  0  0  0  0  0
    3.4168   -6.7683    1.7912 C   0  0  0  0  0  0  0  0  0  0  0  0
    2.1052   -6.0058    2.1367 C   0  0  2  0  0  0  0  0  0  0  0  0
    1.4118   -5.8996    0.9012 O   0  0  0  0  0  0  0  0  0  0  0  0
    2.0896   -4.5652    2.7313 C   0  0  2  0  0  0  0  0  0  0  0  0
    2.8462   -3.2687    2.2600 C   0  0  2  0  0  0  0  0  0  0  0  0
    1.7819   -2.1056    2.2418 C   0  0  0  0  0  0  0  0  0  0  0  0
    3.7816   -2.9649    1.0106 C   0  0  2  0  0  0  0  0  0  0  0  0
    2.9599   -2.6104   -0.0890 O   0  0  0  0  0  0  0  0  0  0  0  0
    4.5942   -4.1345    0.3776 C   0  0  0  0  0  0  0  0  0  0  0  0
    5.7464   -3.7215   -0.5573 C   0  0  1  0  0  0  0  0  0  0  0  0
    5.3375   -3.2910   -1.9828 C   0  0  0  0  0  0  0  0  0  0  0  0
    6.5775   -2.6442    0.1603 C   0  0  1  0  0  0  0  0  0  0  0  0
    7.6916   -2.2600   -0.6249 O   0  0  0  0  0  0  0  0  0  0  0  0
    5.7469   -1.5572    0.4215 O   0  0  0  0  0  0  0  0  0  0  0  0
    4.6953   -1.7276    1.3765 C   0  0  2  0  0  0  0  0  0  0  0  0
    5.2852   -1.6579    2.8383 C   0  0  1  0  0  0  0  0  0  0  0  0
    5.6782   -0.3249    3.1120 O   0  0  0  0  0  0  0  0  0  0  0  0
    4.3825   -2.1675    4.0209 C   0  0  1  0  0  0  0  0  0  0  0  0
    5.1766   -2.2830    5.3386 C   0  0  0  0  0  0  0  0  0  0  0  0
    3.4370   -1.1559    4.3379 O   0  0  0  0  0  0  0  0  0  0  0  0
    3.6901   -3.4839    3.5555 C   0  0  2  0  0  0  0  0  0  0  0  0
    4.8065   -4.3356    3.4061 O   0  0  0  0  0  0  0  0  0  0  0  0
    2.5180   -4.3008    4.2085 C   0  0  1  0  0  0  0  0  0  0  0  0
    1.6337   -3.5171    4.9883 O   0  0  0  0  0  0  0  0  0  0  0  0
    2.6558   -5.5850    5.0542 C   0  0  1  0  0  0  0  0  0  0  0  0
    3.8385   -5.5795    6.0182 C   0  0  0  0  0  0  0  0  0  0  0  0
    1.3864   -6.1937    5.6085 C   0  0  0  0  0  0  0  0  0  0  0  0
    0.4613   -6.1580    6.4245 O   0  0  0  0  0  0  0  0  0  0  0  0
    2.0824   -6.9010    4.4949 C   0  0  2  0  0  0  0  0  0  0  0  0
    2.7544   -8.0369    5.0142 O   0  0  0  0  0  0  0  0  0  0  0  0
    1.4042   -7.0343    3.0936 C   0  0  2  0  0  0  0  0  0  0  0  0
   -0.1349   -6.8869    3.1560 C   0  0  0  0  0  0  0  0  0  0  0  0
    0.8316   -9.8560    3.6393 H   0  0  0  0  0  0  0  0  0  0  0  0
    1.5387  -10.4674    2.1354 H   0  0  0  0  0  0  0  0  0  0  0  0
    0.0531   -9.5226    2.0897 H   0  0  0  0  0  0  0  0  0  0  0  0
    3.4838   -8.9741    1.2302 H   0  0  0  0  0  0  0  0  0  0  0  0
    4.1754   -6.6911    2.5684 H   0  0  0  0  0  0  0  0  0  0  0  0
    3.8470   -6.5602    0.8203 H   0  0  0  0  0  0  0  0  0  0  0  0
    2.0270   -5.5864    0.2515 H   0  0  0  0  0  0  0  0  0  0  0  0
    1.0331   -4.2977    2.7447 H   0  0  0  0  0  0  0  0  0  0  0  0
    2.1912   -1.1114    2.0936 H   0  0  0  0  0  0  0  0  0  0  0  0
    1.1657   -2.0515    3.1381 H   0  0  0  0  0  0  0  0  0  0  0  0
    1.0573   -2.2254    1.4417 H   0  0  0  0  0  0  0  0  0  0  0  0
    2.4532   -1.8303    0.1087 H   0  0  0  0  0  0  0  0  0  0  0  0
    5.0627   -4.7700    1.1154 H   0  0  0  0  0  0  0  0  0  0  0  0
    3.9269   -4.7636   -0.2114 H   0  0  0  0  0  0  0  0  0  0  0  0
    6.3868   -4.5949   -0.6666 H   0  0  0  0  0  0  0  0  0  0  0  0
    4.7855   -2.3519   -1.9892 H   0  0  0  0  0  0  0  0  0  0  0  0
    4.7094   -4.0532   -2.4447 H   0  0  0  0  0  0  0  0  0  0  0  0
    6.2084   -3.1695   -2.6286 H   0  0  0  0  0  0  0  0  0  0  0  0
    6.9951   -3.0538    1.0837 H   0  0  0  0  0  0  0  0  0  0  0  0
    8.1191   -3.0455   -0.9243 H   0  0  0  0  0  0  0  0  0  0  0  0
    4.0934   -0.8292    1.2557 H   0  0  0  0  0  0  0  0  0  0  0  0
    6.1866   -2.2626    2.8680 H   0  0  0  0  0  0  0  0  0  0  0  0
    4.8974    0.1848    3.2810 H   0  0  0  0  0  0  0  0  0  0  0  0
    5.9803   -3.0162    5.2834 H   0  0  0  0  0  0  0  0  0  0  0  0
    4.5351   -2.5253    6.1845 H   0  0  0  0  0  0  0  0  0  0  0  0
    5.6343   -1.3228    5.5674 H   0  0  0  0  0  0  0  0  0  0  0  0
    2.8391   -1.0726    3.6108 H   0  0  0  0  0  0  0  0  0  0  0  0
    4.4788   -5.1331    3.0321 H   0  0  0  0  0  0  0  0  0  0  0  0
    2.1487   -3.1741    5.7022 H   0  0  0  0  0  0  0  0  0  0  0  0
    4.7621   -5.8409    5.5019 H   0  0  0  0  0  0  0  0  0  0  0  0
    3.6904   -6.3060    6.8184 H   0  0  0  0  0  0  0  0  0  0  0  0
    3.9527   -4.6050    6.4834 H   0  0  0  0  0  0  0  0  0  0  0  0
    3.5755   -8.1312    4.5563 H   0  0  0  0  0  0  0  0  0  0  0  0
   -0.4302   -5.9120    3.5313 H   0  0  0  0  0  0  0  0  0  0  0  0
   -0.5720   -7.6284    3.8230 H   0  0  0  0  0  0  0  0  0  0  0  0
   -0.5919   -7.0382    2.1801 H   0  0  0  0  0  0  0  0  0  0  0  0
  1  2  1  0
  1 36  1  0
  1 37  1  0
  1 38  1  0
  2 34  1  0
  2  3  2  0
  3  4  1  0
  3 39  1  0
  4  5  1  0
  4 40  1  0
  4 41  1  0
  5 34  1  0
  5  6  1  6
  5  7  1  0
  6 42  1  0
  7 26  1  0
  7  8  1  0
  7 43  1  1
  8 24  1  0
  8  9  1  1
  8 10  1  0
  9 44  1  0
  9 45  1  0
  9 46  1  0
 10 18  1  0
 10 11  1  6
 10 12  1  0
 11 47  1  0
 12 13  1  0
 12 48  1  0
 12 49  1  0
 13 14  1  0
 13 15  1  0
 13 50  1  6
 14 51  1  0
 14 52  1  0
 14 53  1  0
 15 16  1  0
 15 17  1  0
 15 54  1  1
 16 55  1  0
 17 18  1  0
 18 19  1  0
 18 56  1  1
 19 20  1  0
 19 21  1  0
 19 57  1  6
 20 58  1  0
 21 22  1  0
 21 23  1  1
 21 24  1  0
 22 59  1  0
 22 60  1  0
 22 61  1  0
 23 62  1  0
 24 25  1  6
 24 26  1  0
 25 63  1  0
 26 27  1  1
 26 28  1  0
 27 64  1  0
 28 32  1  0
 28 29  1  1
 28 30  1  0
 29 65  1  0
 29 66  1  0
 29 67  1  0
 30 31  2  0
 30 32  1  0
 32 33  1  1
 32 34  1  0
 33 68  1  0
 34 35  1  1
 35 69  1  0
 35 70  1  0
 35 71  1  0
M  END
>  <i_m_ct_stereo_status>  (443) 
1

>  <s_m_source_file>  (443) 
/var/tmp/pbs.5076255.sched01/tmp1cu33jom/138ve8n868x.sdf

>  <i_m_source_file_index>  (443) 
35

>  <i_lp_mmshare_version>  (443) 
48012

>  <i_f3d_flags>  (443) 
0

>  <s_epik_input>  (443) 
W0NIMl0xW0NIXT1DKFtDSDNdKVtDQEBdMihbQ0gzXSlDKEMzPU8pKFtPSF0pQzMoW0NIM10pW0NAQF00KFtPSF0pW0NAXTUoW09IXSlbQ0BdKFtDSDNdKShbT0hdKVtDQEhdKFtPSF0pW0NAQEhdKE9bQ0BIXShbT0hdKVtDQEBIXShbQ0gyXTYpW0NIM10pW0NAXTYoW09IXSlbQ0BAXTUoW0NIM10pW0NASF00W0NAQF0xMltPSF0=

>  <s_epik_cmdline>  (443) 
J2VwaWtfcHl0aG9uJywgJy1waHQnLCAnMi4wJywgJy1waCcsICc3LjAnLCAnLXRuJywgJzgnLCAnLW1hJywgJzIwMCcsICctaW1hZScsICc8aW5maWxlLm1hZT4nLCAnLW9tYWUnLCAnPG91dGZpbGUubWFlPic=

>  <r_lp_tautomer_probability>  (443) 
1

>  <r_epik_Ionization_Penalty>  (443) 
2.93296e-07

>  <r_epik_Ionization_Penalty_Charging>  (443) 
0

>  <r_epik_Ionization_Penalty_Neutral>  (443) 
2.93296e-07

>  <r_epik_State_Penalty>  (443) 
-0

>  <r_epik_Charging_Adjusted_Penalty>  (443) 
0

>  <i_epik_Tot_Q>  (443) 
0

>  <i_epik_Tot_abs_Q>  (443) 
0

>  <s_epik_Chemistry_Notes>  (443) 
This compound contains an acetal/aminal-like group ( X-CH(R)-Y where X, Y are N, S, or O) that may be acid/base labile, releasing an aldehyde.

>  <s_lp_Force_Field>  (443) 
OPLS3e

>  <r_lp_Energy>  (443) 
102.809

>  <b_lp_Chiralities_Consistent>  (443) 
1

>  <s_lp_Variant>  (443) 
116:0-1

>  <s_i_glide_gridfile>  (443) 
pfpi4k_grid

>  <i_i_glide_lignum>  (443) 
35

>  <i_i_glide_rotatable_bonds>  (443) 
8

>  <r_i_docking_score>  (443) 
-3.08783

>  <r_i_glide_ligand_efficiency>  (443) 
-0.0882237

>  <r_i_glide_ligand_efficiency_sa>  (443) 
-0.288586

>  <r_i_glide_ligand_efficiency_ln>  (443) 
-0.677847

>  <r_i_glide_gscore>  (443) 
-3.08783

>  <r_i_glide_lipo>  (443) 
-0.529693

>  <r_i_glide_hbond>  (443) 
-0.157273

>  <r_i_glide_metal>  (443) 
-0

>  <r_i_glide_rewards>  (443) 
-0.1103

>  <r_i_glide_evdw>  (443) 
-23.4347

>  <r_i_glide_ecoul>  (443) 
-7.45667

>  <r_i_glide_erotb>  (443) 
0

>  <r_i_glide_esite>  (443) 
-0.000328682

>  <r_i_glide_emodel>  (443) 
-35.6906

>  <r_i_glide_energy>  (443) 
-30.8913

>  <r_i_glide_einternal>  (443) 
3.28819

>  <r_i_glide_intrahb_reward>  (443) 
-0

>  <i_i_glide_confnum>  (443) 
1

>  <i_i_glide_posenum>  (443) 
19

>  <r_i_glide_eff_state_penalty>  (443) 
0

>  <ligand_id>  (443) 
116

>  <original_smiles>  (443) 
CC1=CCC2(O)C3C4(C)C5(O)CC(C)C(O)OC5C(O)C(C)(O)C4(O)C3(O)C3(C)C(=O)C3(O)C12C

>  <smiles>  (443) 
[H]OC1([H])OC2([H])C([H])(O[H])C(O[H])(C([H])([H])[H])C3(O[H])C4(O[H])C([H])(C5(O[H])C([H])([H])C([H])=C(C([H])([H])[H])C5(C([H])([H])[H])C5(O[H])C(=O)C54C([H])([H])[H])C3(C([H])([H])[H])C2(O[H])C([H])([H])C1([H])C([H])([H])[H]

$$$$
116:0:2
     RDKit          3D

 71 76  0  0  1  0  0  0  0  0999 V2000
    1.0559   -9.5670    2.8661 C   0  0  0  0  0  0  0  0  0  0  0  0
    1.8628   -8.2970    2.6745 C   0  0  0  0  0  0  0  0  0  0  0  0
    2.9828   -8.1719    1.9578 C   0  0  0  0  0  0  0  0  0  0  0  0
    3.4363   -6.7385    1.9206 C   0  0  0  0  0  0  0  0  0  0  0  0
    2.1273   -5.9619    2.2551 C   0  0  2  0  0  0  0  0  0  0  0  0
    1.3911   -5.9123    1.0423 O   0  0  0  0  0  0  0  0  0  0  0  0
    2.1155   -4.4998    2.7888 C   0  0  2  0  0  0  0  0  0  0  0  0
    2.8717   -3.2278    2.2539 C   0  0  2  0  0  0  0  0  0  0  0  0
    1.8053   -2.0666    2.1917 C   0  0  0  0  0  0  0  0  0  0  0  0
    3.7902   -2.9753    0.9786 C   0  0  2  0  0  0  0  0  0  0  0  0
    2.9619   -2.6518   -0.1257 O   0  0  0  0  0  0  0  0  0  0  0  0
    4.5985   -4.1696    0.3869 C   0  0  0  0  0  0  0  0  0  0  0  0
    5.7381   -3.7931   -0.5756 C   0  0  1  0  0  0  0  0  0  0  0  0
    5.3127   -3.4255   -2.0151 C   0  0  0  0  0  0  0  0  0  0  0  0
    6.5770   -2.6903    0.0852 C   0  0  1  0  0  0  0  0  0  0  0  0
    7.6782   -2.3587   -0.7330 O   0  0  0  0  0  0  0  0  0  0  0  0
    5.7496   -1.5914    0.3065 O   0  0  0  0  0  0  0  0  0  0  0  0
    4.7110   -1.7273    1.2829 C   0  0  2  0  0  0  0  0  0  0  0  0
    5.3135   -1.6013    2.7353 C   0  0  1  0  0  0  0  0  0  0  0  0
    5.7073   -0.2613    2.9553 O   0  0  0  0  0  0  0  0  0  0  0  0
    4.4316   -2.0622    3.9486 C   0  0  1  0  0  0  0  0  0  0  0  0
    5.2397   -2.1138    5.2629 C   0  0  0  0  0  0  0  0  0  0  0  0
    3.4658   -1.0632    4.2310 O   0  0  0  0  0  0  0  0  0  0  0  0
    3.7426   -3.3943    3.5445 C   0  0  2  0  0  0  0  0  0  0  0  0
    4.8550   -4.2532    3.4227 O   0  0  0  0  0  0  0  0  0  0  0  0
    2.5763   -4.1702    4.2440 C   0  0  1  0  0  0  0  0  0  0  0  0
    1.7184   -3.3400    5.0015 O   0  0  0  0  0  0  0  0  0  0  0  0
    2.7216   -5.4172    5.1422 C   0  0  1  0  0  0  0  0  0  0  0  0
    3.9162   -5.3763    6.0885 C   0  0  0  0  0  0  0  0  0  0  0  0
    1.4556   -5.9983    5.7387 C   0  0  0  0  0  0  0  0  0  0  0  0
    0.5465   -5.9375    6.5632 O   0  0  0  0  0  0  0  0  0  0  0  0
    2.1430   -6.7601    4.6482 C   0  0  2  0  0  0  0  0  0  0  0  0
    2.8202   -7.8788    5.2036 O   0  0  0  0  0  0  0  0  0  0  0  0
    1.4482   -6.9536    3.2625 C   0  0  2  0  0  0  0  0  0  0  0  0
   -0.0913   -6.8132    3.3393 C   0  0  0  0  0  0  0  0  0  0  0  0
    0.8756   -9.7516    3.9254 H   0  0  0  0  0  0  0  0  0  0  0  0
    1.5733  -10.4321    2.4466 H   0  0  0  0  0  0  0  0  0  0  0  0
    0.0911   -9.4869    2.3598 H   0  0  0  0  0  0  0  0  0  0  0  0
    3.5078   -8.9692    1.4526 H   0  0  0  0  0  0  0  0  0  0  0  0
    4.2092   -6.6316    2.6829 H   0  0  0  0  0  0  0  0  0  0  0  0
    3.8547   -6.5686    0.9365 H   0  0  0  0  0  0  0  0  0  0  0  0
    1.5192   -6.7394    0.5968 H   0  0  0  0  0  0  0  0  0  0  0  0
    1.0559   -4.2359    2.8004 H   0  0  0  0  0  0  0  0  0  0  0  0
    2.2237   -1.0789    2.0149 H   0  0  0  0  0  0  0  0  0  0  0  0
    1.1918   -1.9672    3.0854 H   0  0  0  0  0  0  0  0  0  0  0  0
    1.0787   -2.2179    1.3987 H   0  0  0  0  0  0  0  0  0  0  0  0
    2.4602   -1.8649    0.0582 H   0  0  0  0  0  0  0  0  0  0  0  0
    5.0751   -4.7718    1.1472 H   0  0  0  0  0  0  0  0  0  0  0  0
    3.9185   -4.8213   -0.1633 H   0  0  0  0  0  0  0  0  0  0  0  0
    6.3841   -4.6631   -0.6523 H   0  0  0  0  0  0  0  0  0  0  0  0
    4.7576   -2.4892   -2.0553 H   0  0  0  0  0  0  0  0  0  0  0  0
    4.6769   -4.2073   -2.4330 H   0  0  0  0  0  0  0  0  0  0  0  0
    6.1703   -3.3365   -2.6826 H   0  0  0  0  0  0  0  0  0  0  0  0
    7.0084   -3.0500    1.0221 H   0  0  0  0  0  0  0  0  0  0  0  0
    7.4812   -2.6605   -1.6067 H   0  0  0  0  0  0  0  0  0  0  0  0
    4.1109   -0.8316    1.1382 H   0  0  0  0  0  0  0  0  0  0  0  0
    6.2149   -2.2013    2.7885 H   0  0  0  0  0  0  0  0  0  0  0  0
    4.9202    0.2600    3.0189 H   0  0  0  0  0  0  0  0  0  0  0  0
    6.0427   -2.8475    5.2303 H   0  0  0  0  0  0  0  0  0  0  0  0
    4.6157   -2.3246    6.1294 H   0  0  0  0  0  0  0  0  0  0  0  0
    5.7015   -1.1448    5.4446 H   0  0  0  0  0  0  0  0  0  0  0  0
    3.0198   -1.3193    5.0252 H   0  0  0  0  0  0  0  0  0  0  0  0
    4.5104   -5.0768    3.1245 H   0  0  0  0  0  0  0  0  0  0  0  0
    1.5886   -2.5629    4.4851 H   0  0  0  0  0  0  0  0  0  0  0  0
    4.8322   -5.6590    5.5707 H   0  0  0  0  0  0  0  0  0  0  0  0
    3.7789   -6.0706    6.9166 H   0  0  0  0  0  0  0  0  0  0  0  0
    4.0353   -4.3839    6.5135 H   0  0  0  0  0  0  0  0  0  0  0  0
    3.5979   -8.0327    4.6895 H   0  0  0  0  0  0  0  0  0  0  0  0
   -0.3886   -5.8268    3.6801 H   0  0  0  0  0  0  0  0  0  0  0  0
   -0.5188   -7.5259    4.0429 H   0  0  0  0  0  0  0  0  0  0  0  0
   -0.5641   -7.0048    2.3773 H   0  0  0  0  0  0  0  0  0  0  0  0
  1  2  1  0
  1 36  1  0
  1 37  1  0
  1 38  1  0
  2 34  1  0
  2  3  2  0
  3  4  1  0
  3 39  1  0
  4  5  1  0
  4 40  1  0
  4 41  1  0
  5 34  1  0
  5  6  1  6
  5  7  1  0
  6 42  1  0
  7 26  1  0
  7  8  1  0
  7 43  1  1
  8 24  1  0
  8  9  1  1
  8 10  1  0
  9 44  1  0
  9 45  1  0
  9 46  1  0
 10 18  1  0
 10 11  1  6
 10 12  1  0
 11 47  1  0
 12 13  1  0
 12 48  1  0
 12 49  1  0
 13 14  1  0
 13 15  1  0
 13 50  1  6
 14 51  1  0
 14 52  1  0
 14 53  1  0
 15 16  1  0
 15 17  1  0
 15 54  1  1
 16 55  1  0
 17 18  1  0
 18 19  1  0
 18 56  1  6
 19 20  1  0
 19 21  1  0
 19 57  1  6
 20 58  1  0
 21 22  1  0
 21 23  1  1
 21 24  1  0
 22 59  1  0
 22 60  1  0
 22 61  1  0
 23 62  1  0
 24 25  1  6
 24 26  1  0
 25 63  1  0
 26 27  1  1
 26 28  1  0
 27 64  1  0
 28 32  1  0
 28 29  1  1
 28 30  1  0
 29 65  1  0
 29 66  1  0
 29 67  1  0
 30 31  2  0
 30 32  1  0
 32 33  1  1
 32 34  1  0
 33 68  1  0
 34 35  1  1
 35 69  1  0
 35 70  1  0
 35 71  1  0
M  END
>  <i_m_ct_stereo_status>  (444) 
1

>  <s_m_source_file>  (444) 
/var/tmp/pbs.5076255.sched01/tmp1cu33jom/138ve8n868x.sdf

>  <i_m_source_file_index>  (444) 
35

>  <i_lp_mmshare_version>  (444) 
48012

>  <i_f3d_flags>  (444) 
0

>  <s_epik_input>  (444) 
W0NIMl0xW0NIXT1DKFtDSDNdKVtDQEBdMihbQ0gzXSlDKEMzPU8pKFtPSF0pQzMoW0NIM10pW0NAQF00KFtPSF0pW0NAXTUoW09IXSlbQ0BdKFtDSDNdKShbT0hdKVtDQEhdKFtPSF0pW0NAQEhdKE9bQ0BIXShbT0hdKVtDQEBIXShbQ0gyXTYpW0NIM10pW0NAXTYoW09IXSlbQ0BAXTUoW0NIM10pW0NASF00W0NAQF0xMltPSF0=

>  <s_epik_cmdline>  (444) 
J2VwaWtfcHl0aG9uJywgJy1waHQnLCAnMi4wJywgJy1waCcsICc3LjAnLCAnLXRuJywgJzgnLCAnLW1hJywgJzIwMCcsICctaW1hZScsICc8aW5maWxlLm1hZT4nLCAnLW9tYWUnLCAnPG91dGZpbGUubWFlPic=

>  <r_lp_tautomer_probability>  (444) 
1

>  <r_epik_Ionization_Penalty>  (444) 
2.93296e-07

>  <r_epik_Ionization_Penalty_Charging>  (444) 
0

>  <r_epik_Ionization_Penalty_Neutral>  (444) 
2.93296e-07

>  <r_epik_State_Penalty>  (444) 
-0

>  <r_epik_Charging_Adjusted_Penalty>  (444) 
0

>  <i_epik_Tot_Q>  (444) 
0

>  <i_epik_Tot_abs_Q>  (444) 
0

>  <s_epik_Chemistry_Notes>  (444) 
This compound contains an acetal/aminal-like group ( X-CH(R)-Y where X, Y are N, S, or O) that may be acid/base labile, releasing an aldehyde.

>  <s_lp_Force_Field>  (444) 
OPLS3e

>  <r_lp_Energy>  (444) 
102.809

>  <b_lp_Chiralities_Consistent>  (444) 
1

>  <s_lp_Variant>  (444) 
116:0-1

>  <s_i_glide_gridfile>  (444) 
pfpi4k_grid

>  <i_i_glide_lignum>  (444) 
35

>  <i_i_glide_rotatable_bonds>  (444) 
8

>  <r_i_docking_score>  (444) 
-2.82888

>  <r_i_glide_ligand_efficiency>  (444) 
-0.080825

>  <r_i_glide_ligand_efficiency_sa>  (444) 
-0.264384

>  <r_i_glide_ligand_efficiency_ln>  (444) 
-0.621001

>  <r_i_glide_gscore>  (444) 
-2.82888

>  <r_i_glide_lipo>  (444) 
-0.481912

>  <r_i_glide_hbond>  (444) 
-0.155737

>  <r_i_glide_metal>  (444) 
-0

>  <r_i_glide_rewards>  (444) 
-0.100609

>  <r_i_glide_evdw>  (444) 
-22.9532

>  <r_i_glide_ecoul>  (444) 
-6.28511

>  <r_i_glide_erotb>  (444) 
0

>  <r_i_glide_esite>  (444) 
-0.000189555

>  <r_i_glide_emodel>  (444) 
-33.9934

>  <r_i_glide_energy>  (444) 
-29.2383

>  <r_i_glide_einternal>  (444) 
1.22244

>  <r_i_glide_intrahb_reward>  (444) 
-0

>  <i_i_glide_confnum>  (444) 
2

>  <i_i_glide_posenum>  (444) 
1

>  <r_i_glide_eff_state_penalty>  (444) 
0

>  <ligand_id>  (444) 
116

>  <original_smiles>  (444) 
CC1=CCC2(O)C3C4(C)C5(O)CC(C)C(O)OC5C(O)C(C)(O)C4(O)C3(O)C3(C)C(=O)C3(O)C12C

>  <smiles>  (444) 
[H]OC1([H])OC2([H])C([H])(O[H])C(O[H])(C([H])([H])[H])C3(O[H])C4(O[H])C([H])(C5(O[H])C([H])([H])C([H])=C(C([H])([H])[H])C5(C([H])([H])[H])C5(O[H])C(=O)C54C([H])([H])[H])C3(C([H])([H])[H])C2(O[H])C([H])([H])C1([H])C([H])([H])[H]

$$$$
116:1:0
     RDKit          3D

 71 76  0  0  1  0  0  0  0  0999 V2000
    0.4014   -2.3498    5.4210 C   0  0  0  0  0  0  0  0  0  0  0  0
    0.9149   -1.1576    6.1978 C   0  0  0  0  0  0  0  0  0  0  0  0
    0.2016   -0.5456    7.1674 C   0  0  0  0  0  0  0  0  0  0  0  0
    0.9386    0.5321    7.8792 C   0  0  0  0  0  0  0  0  0  0  0  0
    2.2659    0.6256    7.1041 C   0  0  2  0  0  0  0  0  0  0  0  0
    3.2228    0.3755    8.1214 O   0  0  0  0  0  0  0  0  0  0  0  0
    2.5631    2.0750    6.5550 C   0  0  2  0  0  0  0  0  0  0  0  0
    1.6596    3.3267    6.1883 C   0  0  2  0  0  0  0  0  0  0  0  0
    2.0851    4.4644    7.1950 C   0  0  0  0  0  0  0  0  0  0  0  0
    0.1052    3.5325    6.0028 C   0  0  2  0  0  0  0  0  0  0  0  0
   -0.4804    3.7922    7.2708 O   0  0  0  0  0  0  0  0  0  0  0  0
   -0.7179    2.3171    5.4555 C   0  0  0  0  0  0  0  0  0  0  0  0
   -2.0397    2.6602    4.7625 C   0  0  1  0  0  0  0  0  0  0  0  0
   -3.1752    2.9861    5.7545 C   0  0  0  0  0  0  0  0  0  0  0  0
   -1.7583    3.8011    3.7633 C   0  0  1  0  0  0  0  0  0  0  0  0
   -2.8826    4.0682    2.9558 O   0  0  0  0  0  0  0  0  0  0  0  0
   -1.3764    4.9217    4.4880 O   0  0  0  0  0  0  0  0  0  0  0  0
   -0.1044    4.8691    5.1496 C   0  0  2  0  0  0  0  0  0  0  0  0
    0.9943    5.3395    4.0957 C   0  0  1  0  0  0  0  0  0  0  0  0
    1.1269    6.7592    4.0919 O   0  0  0  0  0  0  0  0  0  0  0  0
    2.4432    4.7223    4.1609 C   0  0  1  0  0  0  0  0  0  0  0  0
    3.0969    4.8252    2.7591 C   0  0  0  0  0  0  0  0  0  0  0  0
    3.3309    5.5446    4.9142 O   0  0  0  0  0  0  0  0  0  0  0  0
    2.3389    3.2898    4.7716 C   0  0  2  0  0  0  0  0  0  0  0  0
    1.6419    2.7058    3.6967 O   0  0  0  0  0  0  0  0  0  0  0  0
    3.4619    2.3345    5.3228 C   0  0  1  0  0  0  0  0  0  0  0  0
    4.6196    3.0645    5.7006 O   0  0  0  0  0  0  0  0  0  0  0  0
    3.9040    0.9371    4.8014 C   0  0  2  0  0  0  0  0  0  0  0  0
    5.2218    0.4948    5.4483 C   0  0  0  0  0  0  0  0  0  0  0  0
    3.6983    0.1023    3.6069 C   0  0  0  0  0  0  0  0  0  0  0  0
    4.1020   -0.2405    2.5022 O   0  0  0  0  0  0  0  0  0  0  0  0
    2.6279   -0.0099    4.6682 C   0  0  2  0  0  0  0  0  0  0  0  0
    1.4665    0.1061    3.8736 O   0  0  0  0  0  0  0  0  0  0  0  0
    2.3273   -0.5980    6.0594 C   0  0  2  0  0  0  0  0  0  0  0  0
    3.2573   -1.7897    6.4270 C   0  0  0  0  0  0  0  0  0  0  0  0
    0.4020   -2.1621    4.3458 H   0  0  0  0  0  0  0  0  0  0  0  0
   -0.6181   -2.5963    5.7157 H   0  0  0  0  0  0  0  0  0  0  0  0
    1.0243   -3.2225    5.6200 H   0  0  0  0  0  0  0  0  0  0  0  0
   -0.7902   -0.8220    7.4321 H   0  0  0  0  0  0  0  0  0  0  0  0
    0.3952    1.4680    7.8797 H   0  0  0  0  0  0  0  0  0  0  0  0
    1.0652    0.2517    8.9257 H   0  0  0  0  0  0  0  0  0  0  0  0
    4.0735    0.3224    7.7209 H   0  0  0  0  0  0  0  0  0  0  0  0
    3.1959    2.4556    7.3615 H   0  0  0  0  0  0  0  0  0  0  0  0
    1.6955    5.4503    6.9440 H   0  0  0  0  0  0  0  0  0  0  0  0
    3.1715    4.5951    7.2482 H   0  0  0  0  0  0  0  0  0  0  0  0
    1.7733    4.2419    8.2245 H   0  0  0  0  0  0  0  0  0  0  0  0
   -0.3258    3.0540    7.8363 H   0  0  0  0  0  0  0  0  0  0  0  0
   -0.1451    1.7000    4.7951 H   0  0  0  0  0  0  0  0  0  0  0  0
   -0.9585    1.6459    6.2677 H   0  0  0  0  0  0  0  0  0  0  0  0
   -2.3279    1.7881    4.1776 H   0  0  0  0  0  0  0  0  0  0  0  0
   -2.9898    3.9044    6.3105 H   0  0  0  0  0  0  0  0  0  0  0  0
   -3.3294    2.1798    6.4871 H   0  0  0  0  0  0  0  0  0  0  0  0
   -4.1019    3.1081    5.2021 H   0  0  0  0  0  0  0  0  0  0  0  0
   -0.9743    3.4914    3.0611 H   0  0  0  0  0  0  0  0  0  0  0  0
   -2.5594    4.2810    2.0923 H   0  0  0  0  0  0  0  0  0  0  0  0
   -0.1364    5.6881    5.8731 H   0  0  0  0  0  0  0  0  0  0  0  0
    0.6018    5.0759    3.1112 H   0  0  0  0  0  0  0  0  0  0  0  0
    0.6564    7.1628    3.3590 H   0  0  0  0  0  0  0  0  0  0  0  0
    2.5268    4.3548    1.9559 H   0  0  0  0  0  0  0  0  0  0  0  0
    4.0702    4.3626    2.7554 H   0  0  0  0  0  0  0  0  0  0  0  0
    3.2400    5.8753    2.4673 H   0  0  0  0  0  0  0  0  0  0  0  0
    3.2546    6.4227    4.5574 H   0  0  0  0  0  0  0  0  0  0  0  0
    1.6412    3.3562    3.0114 H   0  0  0  0  0  0  0  0  0  0  0  0
    4.3232    3.9640    5.7377 H   0  0  0  0  0  0  0  0  0  0  0  0
    5.2040    0.6132    6.5294 H   0  0  0  0  0  0  0  0  0  0  0  0
    6.0617    1.0689    5.0554 H   0  0  0  0  0  0  0  0  0  0  0  0
    5.4228   -0.5500    5.2063 H   0  0  0  0  0  0  0  0  0  0  0  0
    1.7442    0.3216    2.9941 H   0  0  0  0  0  0  0  0  0  0  0  0
    4.2574   -1.5209    6.7486 H   0  0  0  0  0  0  0  0  0  0  0  0
    3.3577   -2.4700    5.5778 H   0  0  0  0  0  0  0  0  0  0  0  0
    2.8329   -2.3692    7.2483 H   0  0  0  0  0  0  0  0  0  0  0  0
  1  2  1  0
  1 36  1  0
  1 37  1  0
  1 38  1  0
  2 34  1  0
  2  3  2  0
  3  4  1  0
  3 39  1  0
  4  5  1  0
  4 40  1  0
  4 41  1  0
  5 34  1  0
  5  6  1  1
  5  7  1  0
  6 42  1  0
  7 26  1  0
  7  8  1  0
  7 43  1  1
  8 24  1  0
  8  9  1  1
  8 10  1  0
  9 44  1  0
  9 45  1  0
  9 46  1  0
 10 18  1  0
 10 11  1  1
 10 12  1  0
 11 47  1  0
 12 13  1  0
 12 48  1  0
 12 49  1  0
 13 14  1  0
 13 15  1  0
 13 50  1  6
 14 51  1  0
 14 52  1  0
 14 53  1  0
 15 16  1  0
 15 17  1  0
 15 54  1  6
 16 55  1  0
 17 18  1  0
 18 19  1  0
 18 56  1  1
 19 20  1  0
 19 21  1  0
 19 57  1  6
 20 58  1  0
 21 22  1  0
 21 23  1  1
 21 24  1  0
 22 59  1  0
 22 60  1  0
 22 61  1  0
 23 62  1  0
 24 25  1  6
 24 26  1  0
 25 63  1  0
 26 27  1  1
 26 28  1  0
 27 64  1  0
 28 32  1  0
 28 29  1  1
 28 30  1  0
 29 65  1  0
 29 66  1  0
 29 67  1  0
 30 31  2  0
 30 32  1  0
 32 33  1  6
 32 34  1  0
 33 68  1  0
 34 35  1  1
 35 69  1  0
 35 70  1  0
 35 71  1  0
M  END
>  <i_m_ct_stereo_status>  (445) 
1

>  <s_m_source_file>  (445) 
/var/tmp/pbs.5076255.sched01/tmp1cu33jom/138ve8n868x.sdf

>  <i_m_source_file_index>  (445) 
36

>  <i_lp_mmshare_version>  (445) 
48012

>  <i_f3d_flags>  (445) 
0

>  <s_epik_input>  (445) 
W0NIMl0xW0NIXT1DKFtDSDNdKVtDQEBdMihbQ0gzXSlDKEMzPU8pKFtPSF0pQzMoW0NIM10pW0NAQF00KFtPSF0pW0NAXTUoW09IXSlbQ0BdKFtDSDNdKShbT0hdKVtDQEhdKFtPSF0pW0NAQEhdKE9bQ0BIXShbT0hdKVtDQEBIXShbQ0gyXTYpW0NIM10pW0NAXTYoW09IXSlbQ0BAXTUoW0NIM10pW0NASF00W0NAQF0xMltPSF0=

>  <s_epik_cmdline>  (445) 
J2VwaWtfcHl0aG9uJywgJy1waHQnLCAnMi4wJywgJy1waCcsICc3LjAnLCAnLXRuJywgJzgnLCAnLW1hJywgJzIwMCcsICctaW1hZScsICc8aW5maWxlLm1hZT4nLCAnLW9tYWUnLCAnPG91dGZpbGUubWFlPic=

>  <r_lp_tautomer_probability>  (445) 
1

>  <r_epik_Ionization_Penalty>  (445) 
2.93296e-07

>  <r_epik_Ionization_Penalty_Charging>  (445) 
0

>  <r_epik_Ionization_Penalty_Neutral>  (445) 
2.93296e-07

>  <r_epik_State_Penalty>  (445) 
-0

>  <r_epik_Charging_Adjusted_Penalty>  (445) 
0

>  <i_epik_Tot_Q>  (445) 
0

>  <i_epik_Tot_abs_Q>  (445) 
0

>  <s_epik_Chemistry_Notes>  (445) 
This compound contains an acetal/aminal-like group ( X-CH(R)-Y where X, Y are N, S, or O) that may be acid/base labile, releasing an aldehyde.

>  <s_lp_Force_Field>  (445) 
OPLS3e

>  <r_lp_Energy>  (445) 
160.767

>  <b_lp_Chiralities_Consistent>  (445) 
1

>  <s_lp_Variant>  (445) 
116:0-2

>  <s_i_glide_gridfile>  (445) 
pfpi4k_grid

>  <i_i_glide_lignum>  (445) 
36

>  <i_i_glide_rotatable_bonds>  (445) 
8

>  <r_i_docking_score>  (445) 
-2.92275

>  <r_i_glide_ligand_efficiency>  (445) 
-0.0835072

>  <r_i_glide_ligand_efficiency_sa>  (445) 
-0.273158

>  <r_i_glide_ligand_efficiency_ln>  (445) 
-0.641609

>  <r_i_glide_gscore>  (445) 
-2.92275

>  <r_i_glide_lipo>  (445) 
-0.245361

>  <r_i_glide_hbond>  (445) 
-0.0870055

>  <r_i_glide_metal>  (445) 
-0

>  <r_i_glide_rewards>  (445) 
-0.523541

>  <r_i_glide_evdw>  (445) 
-15.2221

>  <r_i_glide_ecoul>  (445) 
-8.20147

>  <r_i_glide_erotb>  (445) 
0

>  <r_i_glide_esite>  (445) 
-0.0755173

>  <r_i_glide_emodel>  (445) 
-29.2855

>  <r_i_glide_energy>  (445) 
-23.4236

>  <r_i_glide_einternal>  (445) 
4.4538

>  <r_i_glide_intrahb_reward>  (445) 
-0.5

>  <i_i_glide_confnum>  (445) 
1

>  <i_i_glide_posenum>  (445) 
30

>  <r_i_glide_eff_state_penalty>  (445) 
0

>  <ligand_id>  (445) 
116

>  <original_smiles>  (445) 
CC1=CCC2(O)C3C4(C)C5(O)CC(C)C(O)OC5C(O)C(C)(O)C4(O)C3(O)C3(C)C(=O)C3(O)C12C

>  <smiles>  (445) 
[H]OC1([H])OC2([H])C([H])(O[H])C(O[H])(C([H])([H])[H])C3(O[H])C4(O[H])C([H])(C5(O[H])C([H])([H])C([H])=C(C([H])([H])[H])C5(C([H])([H])[H])C5(O[H])C(=O)C54C([H])([H])[H])C3(C([H])([H])[H])C2(O[H])C([H])([H])C1([H])C([H])([H])[H]

$$$$
116:1:1
     RDKit          3D

 71 76  0  0  1  0  0  0  0  0999 V2000
    0.3294   -2.3726    5.2933 C   0  0  0  0  0  0  0  0  0  0  0  0
    0.8624   -1.1851    6.0788 C   0  0  0  0  0  0  0  0  0  0  0  0
    0.1906   -0.5957    7.0686 C   0  0  0  0  0  0  0  0  0  0  0  0
    0.9526    0.4662    7.7875 C   0  0  0  0  0  0  0  0  0  0  0  0
    2.2563    0.5501    6.9856 C   0  0  2  0  0  0  0  0  0  0  0  0
    3.2373    0.2755    7.9748 O   0  0  0  0  0  0  0  0  0  0  0  0
    2.5681    2.0205    6.4612 C   0  0  2  0  0  0  0  0  0  0  0  0
    1.6588    3.2794    6.1318 C   0  0  2  0  0  0  0  0  0  0  0  0
    2.1189    4.3943    7.1395 C   0  0  0  0  0  0  0  0  0  0  0  0
    0.1032    3.4968    5.9824 C   0  0  2  0  0  0  0  0  0  0  0  0
   -0.4581    3.7478    7.2711 O   0  0  0  0  0  0  0  0  0  0  0  0
   -0.7499    2.2954    5.4476 C   0  0  0  0  0  0  0  0  0  0  0  0
   -2.0764    2.6582    4.7836 C   0  0  1  0  0  0  0  0  0  0  0  0
   -3.1986    2.9756    5.7874 C   0  0  0  0  0  0  0  0  0  0  0  0
   -1.8086    3.8087    3.7996 C   0  0  1  0  0  0  0  0  0  0  0  0
   -2.9485    4.1121    3.0189 O   0  0  0  0  0  0  0  0  0  0  0  0
   -1.3879    4.9282    4.5301 O   0  0  0  0  0  0  0  0  0  0  0  0
   -0.1031    4.8488    5.1579 C   0  0  2  0  0  0  0  0  0  0  0  0
    0.9485    5.3213    4.0702 C   0  0  1  0  0  0  0  0  0  0  0  0
    1.0155    6.7440    4.0760 O   0  0  0  0  0  0  0  0  0  0  0  0
    2.4005    4.7157    4.0995 C   0  0  1  0  0  0  0  0  0  0  0  0
    3.0358    4.8224    2.6930 C   0  0  0  0  0  0  0  0  0  0  0  0
    3.2823    5.5433    4.8468 O   0  0  0  0  0  0  0  0  0  0  0  0
    2.2989    3.2766    4.7040 C   0  0  2  0  0  0  0  0  0  0  0  0
    1.5708    2.7330    3.6459 O   0  0  0  0  0  0  0  0  0  0  0  0
    3.4054    2.2820    5.1910 C   0  0  1  0  0  0  0  0  0  0  0  0
    4.5875    3.0004    5.4166 O   0  0  0  0  0  0  0  0  0  0  0  0
    3.8406    0.8882    4.6447 C   0  0  2  0  0  0  0  0  0  0  0  0
    5.1729    0.4233    5.2669 C   0  0  0  0  0  0  0  0  0  0  0  0
    3.6155    0.0775    3.4410 C   0  0  0  0  0  0  0  0  0  0  0  0
    4.0089   -0.2455    2.3162 O   0  0  0  0  0  0  0  0  0  0  0  0
    2.5676   -0.0357    4.5139 C   0  0  2  0  0  0  0  0  0  0  0  0
    1.3925    0.2266    3.7864 O   0  0  0  0  0  0  0  0  0  0  0  0
    2.2850   -0.6445    5.9126 C   0  0  2  0  0  0  0  0  0  0  0  0
    3.2090   -1.8549    6.2445 C   0  0  0  0  0  0  0  0  0  0  0  0
    0.3124   -2.1602    4.2286 H   0  0  0  0  0  0  0  0  0  0  0  0
   -0.6850   -2.6248    5.6071 H   0  0  0  0  0  0  0  0  0  0  0  0
    0.9471   -3.2529    5.4623 H   0  0  0  0  0  0  0  0  0  0  0  0
   -0.7982   -0.8692    7.3681 H   0  0  0  0  0  0  0  0  0  0  0  0
    0.4148    1.4068    7.8148 H   0  0  0  0  0  0  0  0  0  0  0  0
    1.0973    0.1738    8.8303 H   0  0  0  0  0  0  0  0  0  0  0  0
    4.0879    0.2772    7.5654 H   0  0  0  0  0  0  0  0  0  0  0  0
    3.2442    2.3894    7.2259 H   0  0  0  0  0  0  0  0  0  0  0  0
    1.7362    5.3813    6.9064 H   0  0  0  0  0  0  0  0  0  0  0  0
    3.2010    4.5147    7.1588 H   0  0  0  0  0  0  0  0  0  0  0  0
    1.8318    4.1668    8.1691 H   0  0  0  0  0  0  0  0  0  0  0  0
   -0.2971    3.0041    7.8313 H   0  0  0  0  0  0  0  0  0  0  0  0
   -0.2169    1.6833    4.7454 H   0  0  0  0  0  0  0  0  0  0  0  0
   -0.9944    1.6082    6.2480 H   0  0  0  0  0  0  0  0  0  0  0  0
   -2.3930    1.8193    4.1842 H   0  0  0  0  0  0  0  0  0  0  0  0
   -2.9961    3.8735    6.3782 H   0  0  0  0  0  0  0  0  0  0  0  0
   -3.3540    2.1668    6.5038 H   0  0  0  0  0  0  0  0  0  0  0  0
   -4.1455    3.1264    5.2681 H   0  0  0  0  0  0  0  0  0  0  0  0
   -1.0444    3.5198    3.0657 H   0  0  0  0  0  0  0  0  0  0  0  0
   -2.6655    4.2011    2.1211 H   0  0  0  0  0  0  0  0  0  0  0  0
   -0.1185    5.6508    5.8962 H   0  0  0  0  0  0  0  0  0  0  0  0
    0.5515    5.0503    3.0936 H   0  0  0  0  0  0  0  0  0  0  0  0
    0.6509    7.1176    3.2810 H   0  0  0  0  0  0  0  0  0  0  0  0
    2.4397    4.3590    1.9050 H   0  0  0  0  0  0  0  0  0  0  0  0
    4.0098    4.3640    2.6535 H   0  0  0  0  0  0  0  0  0  0  0  0
    3.1702    5.8704    2.4381 H   0  0  0  0  0  0  0  0  0  0  0  0
    4.1359    5.1423    4.8433 H   0  0  0  0  0  0  0  0  0  0  0  0
    1.4100    1.8235    3.8669 H   0  0  0  0  0  0  0  0  0  0  0  0
    4.9146    3.1274    4.5411 H   0  0  0  0  0  0  0  0  0  0  0  0
    5.1842    0.5239    6.3503 H   0  0  0  0  0  0  0  0  0  0  0  0
    6.0090    0.9968    4.8663 H   0  0  0  0  0  0  0  0  0  0  0  0
    5.3696   -0.6128    5.0078 H   0  0  0  0  0  0  0  0  0  0  0  0
    1.6132    0.2410    2.8663 H   0  0  0  0  0  0  0  0  0  0  0  0
    4.2147   -1.5956    6.5492 H   0  0  0  0  0  0  0  0  0  0  0  0
    3.2875   -2.5204    5.3836 H   0  0  0  0  0  0  0  0  0  0  0  0
    2.8005   -2.4435    7.0655 H   0  0  0  0  0  0  0  0  0  0  0  0
  1  2  1  0
  1 36  1  0
  1 37  1  0
  1 38  1  0
  2 34  1  0
  2  3  2  0
  3  4  1  0
  3 39  1  0
  4  5  1  0
  4 40  1  0
  4 41  1  0
  5 34  1  0
  5  6  1  1
  5  7  1  0
  6 42  1  0
  7 26  1  0
  7  8  1  0
  7 43  1  1
  8 24  1  0
  8  9  1  1
  8 10  1  0
  9 44  1  0
  9 45  1  0
  9 46  1  0
 10 18  1  0
 10 11  1  1
 10 12  1  0
 11 47  1  0
 12 13  1  0
 12 48  1  0
 12 49  1  0
 13 14  1  0
 13 15  1  0
 13 50  1  6
 14 51  1  0
 14 52  1  0
 14 53  1  0
 15 16  1  0
 15 17  1  0
 15 54  1  6
 16 55  1  0
 17 18  1  0
 18 19  1  0
 18 56  1  1
 19 20  1  0
 19 21  1  0
 19 57  1  6
 20 58  1  0
 21 22  1  0
 21 23  1  1
 21 24  1  0
 22 59  1  0
 22 60  1  0
 22 61  1  0
 23 62  1  0
 24 25  1  6
 24 26  1  0
 25 63  1  0
 26 27  1  1
 26 28  1  0
 27 64  1  0
 28 32  1  0
 28 29  1  1
 28 30  1  0
 29 65  1  0
 29 66  1  0
 29 67  1  0
 30 31  2  0
 30 32  1  0
 32 33  1  6
 32 34  1  0
 33 68  1  0
 34 35  1  1
 35 69  1  0
 35 70  1  0
 35 71  1  0
M  END
>  <i_m_ct_stereo_status>  (446) 
1

>  <s_m_source_file>  (446) 
/var/tmp/pbs.5076255.sched01/tmp1cu33jom/138ve8n868x.sdf

>  <i_m_source_file_index>  (446) 
36

>  <i_lp_mmshare_version>  (446) 
48012

>  <i_f3d_flags>  (446) 
0

>  <s_epik_input>  (446) 
W0NIMl0xW0NIXT1DKFtDSDNdKVtDQEBdMihbQ0gzXSlDKEMzPU8pKFtPSF0pQzMoW0NIM10pW0NAQF00KFtPSF0pW0NAXTUoW09IXSlbQ0BdKFtDSDNdKShbT0hdKVtDQEhdKFtPSF0pW0NAQEhdKE9bQ0BIXShbT0hdKVtDQEBIXShbQ0gyXTYpW0NIM10pW0NAXTYoW09IXSlbQ0BAXTUoW0NIM10pW0NASF00W0NAQF0xMltPSF0=

>  <s_epik_cmdline>  (446) 
J2VwaWtfcHl0aG9uJywgJy1waHQnLCAnMi4wJywgJy1waCcsICc3LjAnLCAnLXRuJywgJzgnLCAnLW1hJywgJzIwMCcsICctaW1hZScsICc8aW5maWxlLm1hZT4nLCAnLW9tYWUnLCAnPG91dGZpbGUubWFlPic=

>  <r_lp_tautomer_probability>  (446) 
1

>  <r_epik_Ionization_Penalty>  (446) 
2.93296e-07

>  <r_epik_Ionization_Penalty_Charging>  (446) 
0

>  <r_epik_Ionization_Penalty_Neutral>  (446) 
2.93296e-07

>  <r_epik_State_Penalty>  (446) 
-0

>  <r_epik_Charging_Adjusted_Penalty>  (446) 
0

>  <i_epik_Tot_Q>  (446) 
0

>  <i_epik_Tot_abs_Q>  (446) 
0

>  <s_epik_Chemistry_Notes>  (446) 
This compound contains an acetal/aminal-like group ( X-CH(R)-Y where X, Y are N, S, or O) that may be acid/base labile, releasing an aldehyde.

>  <s_lp_Force_Field>  (446) 
OPLS3e

>  <r_lp_Energy>  (446) 
160.767

>  <b_lp_Chiralities_Consistent>  (446) 
1

>  <s_lp_Variant>  (446) 
116:0-2

>  <s_i_glide_gridfile>  (446) 
pfpi4k_grid

>  <i_i_glide_lignum>  (446) 
36

>  <i_i_glide_rotatable_bonds>  (446) 
8

>  <r_i_docking_score>  (446) 
-2.64856

>  <r_i_glide_ligand_efficiency>  (446) 
-0.0756732

>  <r_i_glide_ligand_efficiency_sa>  (446) 
-0.247532

>  <r_i_glide_ligand_efficiency_ln>  (446) 
-0.581418

>  <r_i_glide_gscore>  (446) 
-2.64856

>  <r_i_glide_lipo>  (446) 
-0.228167

>  <r_i_glide_hbond>  (446) 
-0.0831447

>  <r_i_glide_metal>  (446) 
-0

>  <r_i_glide_rewards>  (446) 
-0.523541

>  <r_i_glide_evdw>  (446) 
-14.1771

>  <r_i_glide_ecoul>  (446) 
-6.87069

>  <r_i_glide_erotb>  (446) 
0

>  <r_i_glide_esite>  (446) 
-0.0742504

>  <r_i_glide_emodel>  (446) 
-26.824

>  <r_i_glide_energy>  (446) 
-21.0478

>  <r_i_glide_einternal>  (446) 
4.26703

>  <r_i_glide_intrahb_reward>  (446) 
-0.5

>  <i_i_glide_confnum>  (446) 
1

>  <i_i_glide_posenum>  (446) 
14

>  <r_i_glide_eff_state_penalty>  (446) 
0

>  <ligand_id>  (446) 
116

>  <original_smiles>  (446) 
CC1=CCC2(O)C3C4(C)C5(O)CC(C)C(O)OC5C(O)C(C)(O)C4(O)C3(O)C3(C)C(=O)C3(O)C12C

>  <smiles>  (446) 
[H]OC1([H])OC2([H])C([H])(O[H])C(O[H])(C([H])([H])[H])C3(O[H])C4(O[H])C([H])(C5(O[H])C([H])([H])C([H])=C(C([H])([H])[H])C5(C([H])([H])[H])C5(O[H])C(=O)C54C([H])([H])[H])C3(C([H])([H])[H])C2(O[H])C([H])([H])C1([H])C([H])([H])[H]

$$$$
116:1:2
     RDKit          3D

 71 76  0  0  1  0  0  0  0  0999 V2000
    0.1715   -2.4022    5.0726 C   0  0  0  0  0  0  0  0  0  0  0  0
    0.7207   -1.2422    5.8950 C   0  0  0  0  0  0  0  0  0  0  0  0
    0.0386   -0.6482    6.8729 C   0  0  0  0  0  0  0  0  0  0  0  0
    0.8176    0.3803    7.6252 C   0  0  0  0  0  0  0  0  0  0  0  0
    2.1402    0.4476    6.8494 C   0  0  2  0  0  0  0  0  0  0  0  0
    3.0904    0.1316    7.8507 O   0  0  0  0  0  0  0  0  0  0  0  0
    2.4948    1.9083    6.3485 C   0  0  2  0  0  0  0  0  0  0  0  0
    1.6325    3.2018    6.0186 C   0  0  2  0  0  0  0  0  0  0  0  0
    2.1022    4.2850    7.0579 C   0  0  0  0  0  0  0  0  0  0  0  0
    0.0860    3.4651    5.8477 C   0  0  2  0  0  0  0  0  0  0  0  0
   -0.4828    3.7029    7.1349 O   0  0  0  0  0  0  0  0  0  0  0  0
   -0.7690    2.2936    5.2590 C   0  0  0  0  0  0  0  0  0  0  0  0
   -2.0698    2.7077    4.5671 C   0  0  1  0  0  0  0  0  0  0  0  0
   -3.1714    3.0423    5.5826 C   0  0  0  0  0  0  0  0  0  0  0  0
   -1.7662    3.8796    3.6322 C   0  0  1  0  0  0  0  0  0  0  0  0
   -2.8671    4.2557    2.8490 O   0  0  0  0  0  0  0  0  0  0  0  0
   -1.3404    4.9290    4.4199 O   0  0  0  0  0  0  0  0  0  0  0  0
   -0.0655    4.8315    5.0507 C   0  0  2  0  0  0  0  0  0  0  0  0
    1.0169    5.2982    3.9972 C   0  0  1  0  0  0  0  0  0  0  0  0
    1.1284    6.7129    4.0919 O   0  0  0  0  0  0  0  0  0  0  0  0
    2.4469    4.6460    4.0346 C   0  0  1  0  0  0  0  0  0  0  0  0
    3.1131    4.7647    2.6414 C   0  0  0  0  0  0  0  0  0  0  0  0
    3.3409    5.4402    4.8069 O   0  0  0  0  0  0  0  0  0  0  0  0
    2.3008    3.1920    4.5999 C   0  0  2  0  0  0  0  0  0  0  0  0
    1.5923    2.6667    3.5070 O   0  0  0  0  0  0  0  0  0  0  0  0
    3.3665    2.1657    5.0972 C   0  0  1  0  0  0  0  0  0  0  0  0
    4.5656    2.8477    5.3764 O   0  0  0  0  0  0  0  0  0  0  0  0
    3.7786    0.7792    4.5488 C   0  0  2  0  0  0  0  0  0  0  0  0
    5.0858    0.2747    5.1851 C   0  0  0  0  0  0  0  0  0  0  0  0
    3.5544   -0.0055    3.3265 C   0  0  0  0  0  0  0  0  0  0  0  0
    3.9581   -0.3169    2.2069 O   0  0  0  0  0  0  0  0  0  0  0  0
    2.4831   -0.1256    4.3884 C   0  0  2  0  0  0  0  0  0  0  0  0
    1.3247    0.0418    3.6043 O   0  0  0  0  0  0  0  0  0  0  0  0
    2.1613   -0.7431    5.7632 C   0  0  2  0  0  0  0  0  0  0  0  0
    3.0460   -1.9762    6.0945 C   0  0  0  0  0  0  0  0  0  0  0  0
    0.1771   -2.1780    4.0111 H   0  0  0  0  0  0  0  0  0  0  0  0
   -0.8548   -2.6227    5.3636 H   0  0  0  0  0  0  0  0  0  0  0  0
    0.7626   -3.2972    5.2442 H   0  0  0  0  0  0  0  0  0  0  0  0
   -0.9734   -0.8970    7.1412 H   0  0  0  0  0  0  0  0  0  0  0  0
    0.3082    1.3351    7.6539 H   0  0  0  0  0  0  0  0  0  0  0  0
    0.9373    0.0650    8.6625 H   0  0  0  0  0  0  0  0  0  0  0  0
    3.9456    0.1116    7.4629 H   0  0  0  0  0  0  0  0  0  0  0  0
    3.1678    2.2506    7.1286 H   0  0  0  0  0  0  0  0  0  0  0  0
    1.7567    5.2926    6.8409 H   0  0  0  0  0  0  0  0  0  0  0  0
    3.1929    4.3762    7.1065 H   0  0  0  0  0  0  0  0  0  0  0  0
    1.7932    4.0489    8.0805 H   0  0  0  0  0  0  0  0  0  0  0  0
   -0.3045    2.9699    7.6961 H   0  0  0  0  0  0  0  0  0  0  0  0
   -0.2223    1.6734    4.5735 H   0  0  0  0  0  0  0  0  0  0  0  0
   -1.0456    1.6071    6.0510 H   0  0  0  0  0  0  0  0  0  0  0  0
   -2.4143    1.8741    3.9664 H   0  0  0  0  0  0  0  0  0  0  0  0
   -2.9837    3.9459    6.1665 H   0  0  0  0  0  0  0  0  0  0  0  0
   -3.2699    2.2340    6.3244 H   0  0  0  0  0  0  0  0  0  0  0  0
   -4.1370    3.1656    5.0844 H   0  0  0  0  0  0  0  0  0  0  0  0
   -0.9901    3.5844    2.9135 H   0  0  0  0  0  0  0  0  0  0  0  0
   -2.8508    3.7271    2.0654 H   0  0  0  0  0  0  0  0  0  0  0  0
   -0.0778    5.6210    5.8039 H   0  0  0  0  0  0  0  0  0  0  0  0
    0.6295    5.0734    3.0037 H   0  0  0  0  0  0  0  0  0  0  0  0
    0.7380    7.1315    3.3276 H   0  0  0  0  0  0  0  0  0  0  0  0
    2.5354    4.3346    1.8229 H   0  0  0  0  0  0  0  0  0  0  0  0
    4.0743    4.2849    2.6253 H   0  0  0  0  0  0  0  0  0  0  0  0
    3.2937    5.8159    2.4067 H   0  0  0  0  0  0  0  0  0  0  0  0
    4.1830    5.0153    4.8395 H   0  0  0  0  0  0  0  0  0  0  0  0
    1.4976    3.3673    2.8780 H   0  0  0  0  0  0  0  0  0  0  0  0
    4.9267    2.9733    4.4977 H   0  0  0  0  0  0  0  0  0  0  0  0
    5.0721    0.3525    6.2672 H   0  0  0  0  0  0  0  0  0  0  0  0
    5.9469    0.8287    4.8123 H   0  0  0  0  0  0  0  0  0  0  0  0
    5.2555   -0.7617    4.9140 H   0  0  0  0  0  0  0  0  0  0  0  0
    1.5853    0.4084    2.7717 H   0  0  0  0  0  0  0  0  0  0  0  0
    4.0528   -1.7497    6.4198 H   0  0  0  0  0  0  0  0  0  0  0  0
    3.1251   -2.6279    5.2192 H   0  0  0  0  0  0  0  0  0  0  0  0
    2.6004   -2.5671    6.8931 H   0  0  0  0  0  0  0  0  0  0  0  0
  1  2  1  0
  1 36  1  0
  1 37  1  0
  1 38  1  0
  2 34  1  0
  2  3  2  0
  3  4  1  0
  3 39  1  0
  4  5  1  0
  4 40  1  0
  4 41  1  0
  5 34  1  0
  5  6  1  1
  5  7  1  0
  6 42  1  0
  7 26  1  0
  7  8  1  0
  7 43  1  1
  8 24  1  0
  8  9  1  1
  8 10  1  0
  9 44  1  0
  9 45  1  0
  9 46  1  0
 10 18  1  0
 10 11  1  1
 10 12  1  0
 11 47  1  0
 12 13  1  0
 12 48  1  0
 12 49  1  0
 13 14  1  0
 13 15  1  0
 13 50  1  6
 14 51  1  0
 14 52  1  0
 14 53  1  0
 15 16  1  0
 15 17  1  0
 15 54  1  6
 16 55  1  0
 17 18  1  0
 18 19  1  0
 18 56  1  1
 19 20  1  0
 19 21  1  0
 19 57  1  6
 20 58  1  0
 21 22  1  0
 21 23  1  1
 21 24  1  0
 22 59  1  0
 22 60  1  0
 22 61  1  0
 23 62  1  0
 24 25  1  6
 24 26  1  0
 25 63  1  0
 26 27  1  1
 26 28  1  0
 27 64  1  0
 28 32  1  0
 28 29  1  1
 28 30  1  0
 29 65  1  0
 29 66  1  0
 29 67  1  0
 30 31  2  0
 30 32  1  0
 32 33  1  6
 32 34  1  0
 33 68  1  0
 34 35  1  1
 35 69  1  0
 35 70  1  0
 35 71  1  0
M  END
>  <i_m_ct_stereo_status>  (447) 
1

>  <s_m_source_file>  (447) 
/var/tmp/pbs.5076255.sched01/tmp1cu33jom/138ve8n868x.sdf

>  <i_m_source_file_index>  (447) 
36

>  <i_lp_mmshare_version>  (447) 
48012

>  <i_f3d_flags>  (447) 
0

>  <s_epik_input>  (447) 
W0NIMl0xW0NIXT1DKFtDSDNdKVtDQEBdMihbQ0gzXSlDKEMzPU8pKFtPSF0pQzMoW0NIM10pW0NAQF00KFtPSF0pW0NAXTUoW09IXSlbQ0BdKFtDSDNdKShbT0hdKVtDQEhdKFtPSF0pW0NAQEhdKE9bQ0BIXShbT0hdKVtDQEBIXShbQ0gyXTYpW0NIM10pW0NAXTYoW09IXSlbQ0BAXTUoW0NIM10pW0NASF00W0NAQF0xMltPSF0=

>  <s_epik_cmdline>  (447) 
J2VwaWtfcHl0aG9uJywgJy1waHQnLCAnMi4wJywgJy1waCcsICc3LjAnLCAnLXRuJywgJzgnLCAnLW1hJywgJzIwMCcsICctaW1hZScsICc8aW5maWxlLm1hZT4nLCAnLW9tYWUnLCAnPG91dGZpbGUubWFlPic=

>  <r_lp_tautomer_probability>  (447) 
1

>  <r_epik_Ionization_Penalty>  (447) 
2.93296e-07

>  <r_epik_Ionization_Penalty_Charging>  (447) 
0

>  <r_epik_Ionization_Penalty_Neutral>  (447) 
2.93296e-07

>  <r_epik_State_Penalty>  (447) 
-0

>  <r_epik_Charging_Adjusted_Penalty>  (447) 
0

>  <i_epik_Tot_Q>  (447) 
0

>  <i_epik_Tot_abs_Q>  (447) 
0

>  <s_epik_Chemistry_Notes>  (447) 
This compound contains an acetal/aminal-like group ( X-CH(R)-Y where X, Y are N, S, or O) that may be acid/base labile, releasing an aldehyde.

>  <s_lp_Force_Field>  (447) 
OPLS3e

>  <r_lp_Energy>  (447) 
160.767

>  <b_lp_Chiralities_Consistent>  (447) 
1

>  <s_lp_Variant>  (447) 
116:0-2

>  <s_i_glide_gridfile>  (447) 
pfpi4k_grid

>  <i_i_glide_lignum>  (447) 
36

>  <i_i_glide_rotatable_bonds>  (447) 
8

>  <r_i_docking_score>  (447) 
-2.50054

>  <r_i_glide_ligand_efficiency>  (447) 
-0.0714441

>  <r_i_glide_ligand_efficiency_sa>  (447) 
-0.233698

>  <r_i_glide_ligand_efficiency_ln>  (447) 
-0.548925

>  <r_i_glide_gscore>  (447) 
-2.50054

>  <r_i_glide_lipo>  (447) 
-0.248272

>  <r_i_glide_hbond>  (447) 
-0.0924269

>  <r_i_glide_metal>  (447) 
-0

>  <r_i_glide_rewards>  (447) 
-0.0258535

>  <r_i_glide_evdw>  (447) 
-14.7556

>  <r_i_glide_ecoul>  (447) 
-8.741

>  <r_i_glide_erotb>  (447) 
0

>  <r_i_glide_esite>  (447) 
-0.0850597

>  <r_i_glide_emodel>  (447) 
-23.7482

>  <r_i_glide_energy>  (447) 
-23.4966

>  <r_i_glide_einternal>  (447) 
6.09901

>  <r_i_glide_intrahb_reward>  (447) 
-0

>  <i_i_glide_confnum>  (447) 
2

>  <i_i_glide_posenum>  (447) 
1

>  <r_i_glide_eff_state_penalty>  (447) 
0

>  <ligand_id>  (447) 
116

>  <original_smiles>  (447) 
CC1=CCC2(O)C3C4(C)C5(O)CC(C)C(O)OC5C(O)C(C)(O)C4(O)C3(O)C3(C)C(=O)C3(O)C12C

>  <smiles>  (447) 
[H]OC1([H])OC2([H])C([H])(O[H])C(O[H])(C([H])([H])[H])C3(O[H])C4(O[H])C([H])(C5(O[H])C([H])([H])C([H])=C(C([H])([H])[H])C5(C([H])([H])[H])C5(O[H])C(=O)C54C([H])([H])[H])C3(C([H])([H])[H])C2(O[H])C([H])([H])C1([H])C([H])([H])[H]

$$$$
116:2:0
     RDKit          3D

 71 76  0  0  1  0  0  0  0  0999 V2000
    5.3501   -3.8401   -1.6513 C   0  0  0  0  0  0  0  0  0  0  0  0
    5.1097   -4.3527   -0.2405 C   0  0  0  0  0  0  0  0  0  0  0  0
    4.4147   -5.4309    0.0866 C   0  0  0  0  0  0  0  0  0  0  0  0
    4.3069   -5.6451    1.5695 C   0  0  0  0  0  0  0  0  0  0  0  0
    5.2095   -4.5592    2.2138 C   0  0  2  0  0  0  0  0  0  0  0  0
    6.2539   -5.2863    2.8311 O   0  0  0  0  0  0  0  0  0  0  0  0
    4.6368   -3.6504    3.3833 C   0  0  2  0  0  0  0  0  0  0  0  0
    3.8130   -3.9918    4.6681 C   0  0  2  0  0  0  0  0  0  0  0  0
    4.5380   -3.2428    5.8539 C   0  0  0  0  0  0  0  0  0  0  0  0
    3.3391   -5.3627    5.2989 C   0  0  2  0  0  0  0  0  0  0  0  0
    4.3953   -5.8660    6.1053 O   0  0  0  0  0  0  0  0  0  0  0  0
    3.0333   -6.5654    4.3509 C   0  0  0  0  0  0  0  0  0  0  0  0
    2.2427   -7.7221    4.9858 C   0  0  1  0  0  0  0  0  0  0  0  0
    3.0435   -8.6586    5.9137 C   0  0  0  0  0  0  0  0  0  0  0  0
    1.0117   -7.1202    5.6882 C   0  0  1  0  0  0  0  0  0  0  0  0
    0.2057   -8.1349    6.2318 O   0  0  0  0  0  0  0  0  0  0  0  0
    1.4484   -6.2282    6.6719 O   0  0  0  0  0  0  0  0  0  0  0  0
    2.1260   -5.0361    6.2612 C   0  0  2  0  0  0  0  0  0  0  0  0
    1.0657   -3.9620    5.7935 C   0  0  1  0  0  0  0  0  0  0  0  0
    0.3426   -3.5249    6.9266 O   0  0  0  0  0  0  0  0  0  0  0  0
    1.5723   -2.7271    4.9555 C   0  0  1  0  0  0  0  0  0  0  0  0
    0.4059   -1.9469    4.3041 C   0  0  0  0  0  0  0  0  0  0  0  0
    2.1157   -1.7472    5.8253 O   0  0  0  0  0  0  0  0  0  0  0  0
    2.6380   -3.2554    3.9470 C   0  0  2  0  0  0  0  0  0  0  0  0
    1.8106   -4.0739    3.1483 O   0  0  0  0  0  0  0  0  0  0  0  0
    3.6690   -2.4491    3.0644 C   0  0  1  0  0  0  0  0  0  0  0  0
    3.9460   -1.1684    3.6108 O   0  0  0  0  0  0  0  0  0  0  0  0
    3.6981   -2.2083    1.5271 C   0  0  1  0  0  0  0  0  0  0  0  0
    2.5170   -2.7703    0.7375 C   0  0  0  0  0  0  0  0  0  0  0  0
    4.3722   -1.2422    0.5884 C   0  0  0  0  0  0  0  0  0  0  0  0
    4.2638   -0.2782   -0.1603 O   0  0  0  0  0  0  0  0  0  0  0  0
    5.2465   -2.2479    1.1889 C   0  0  1  0  0  0  0  0  0  0  0  0
    6.1737   -1.4842    1.9407 O   0  0  0  0  0  0  0  0  0  0  0  0
    5.7302   -3.6879    0.9698 C   0  0  2  0  0  0  0  0  0  0  0  0
    7.2718   -3.7490    0.7739 C   0  0  0  0  0  0  0  0  0  0  0  0
    4.9885   -2.8174   -1.7602 H   0  0  0  0  0  0  0  0  0  0  0  0
    4.8274   -4.4633   -2.3826 H   0  0  0  0  0  0  0  0  0  0  0  0
    6.4116   -3.8551   -1.9011 H   0  0  0  0  0  0  0  0  0  0  0  0
    3.9016   -6.0708   -0.6182 H   0  0  0  0  0  0  0  0  0  0  0  0
    3.2622   -5.5184    1.8062 H   0  0  0  0  0  0  0  0  0  0  0  0
    4.6007   -6.6673    1.8104 H   0  0  0  0  0  0  0  0  0  0  0  0
    6.6504   -5.8529    2.1861 H   0  0  0  0  0  0  0  0  0  0  0  0
    5.5298   -3.1659    3.7672 H   0  0  0  0  0  0  0  0  0  0  0  0
    3.9777   -3.2279    6.7835 H   0  0  0  0  0  0  0  0  0  0  0  0
    4.7545   -2.1967    5.6442 H   0  0  0  0  0  0  0  0  0  0  0  0
    5.5134   -3.6824    6.0799 H   0  0  0  0  0  0  0  0  0  0  0  0
    5.1083   -6.1310    5.5424 H   0  0  0  0  0  0  0  0  0  0  0  0
    2.4131   -6.2899    3.5148 H   0  0  0  0  0  0  0  0  0  0  0  0
    3.9545   -6.9657    3.9314 H   0  0  0  0  0  0  0  0  0  0  0  0
    1.8624   -8.3424    4.1725 H   0  0  0  0  0  0  0  0  0  0  0  0
    3.3412   -8.1710    6.8418 H   0  0  0  0  0  0  0  0  0  0  0  0
    3.9426   -9.0148    5.4110 H   0  0  0  0  0  0  0  0  0  0  0  0
    2.4669   -9.5470    6.1755 H   0  0  0  0  0  0  0  0  0  0  0  0
    0.3795   -6.6077    4.9608 H   0  0  0  0  0  0  0  0  0  0  0  0
    0.7769   -8.7777    6.6197 H   0  0  0  0  0  0  0  0  0  0  0  0
    2.5389   -4.6589    7.1963 H   0  0  0  0  0  0  0  0  0  0  0  0
    0.3316   -4.4615    5.1688 H   0  0  0  0  0  0  0  0  0  0  0  0
    0.1174   -4.2982    7.4204 H   0  0  0  0  0  0  0  0  0  0  0  0
   -0.2181   -2.5836    3.6801 H   0  0  0  0  0  0  0  0  0  0  0  0
    0.7537   -1.1067    3.6996 H   0  0  0  0  0  0  0  0  0  0  0  0
   -0.2410   -1.5400    5.0813 H   0  0  0  0  0  0  0  0  0  0  0  0
    2.5105   -1.0708    5.2961 H   0  0  0  0  0  0  0  0  0  0  0  0
    1.2873   -3.4823    2.6357 H   0  0  0  0  0  0  0  0  0  0  0  0
    3.3159   -0.5742    3.2344 H   0  0  0  0  0  0  0  0  0  0  0  0
    2.4516   -3.8504    0.7764 H   0  0  0  0  0  0  0  0  0  0  0  0
    2.6027   -2.5123   -0.3210 H   0  0  0  0  0  0  0  0  0  0  0  0
    1.5957   -2.3252    1.1140 H   0  0  0  0  0  0  0  0  0  0  0  0
    6.0860   -1.7403    2.8452 H   0  0  0  0  0  0  0  0  0  0  0  0
    7.8135   -3.4805    1.6793 H   0  0  0  0  0  0  0  0  0  0  0  0
    7.6087   -3.0720   -0.0176 H   0  0  0  0  0  0  0  0  0  0  0  0
    7.5921   -4.7541    0.4945 H   0  0  0  0  0  0  0  0  0  0  0  0
  1  2  1  0
  1 36  1  0
  1 37  1  0
  1 38  1  0
  2 34  1  0
  2  3  2  0
  3  4  1  0
  3 39  1  0
  4  5  1  0
  4 40  1  0
  4 41  1  0
  5 34  1  0
  5  6  1  1
  5  7  1  0
  6 42  1  0
  7 26  1  0
  7  8  1  0
  7 43  1  1
  8 24  1  0
  8  9  1  1
  8 10  1  0
  9 44  1  0
  9 45  1  0
  9 46  1  0
 10 18  1  0
 10 11  1  1
 10 12  1  0
 11 47  1  0
 12 13  1  0
 12 48  1  0
 12 49  1  0
 13 14  1  0
 13 15  1  0
 13 50  1  6
 14 51  1  0
 14 52  1  0
 14 53  1  0
 15 16  1  0
 15 17  1  0
 15 54  1  6
 16 55  1  0
 17 18  1  0
 18 19  1  0
 18 56  1  1
 19 20  1  0
 19 21  1  0
 19 57  1  6
 20 58  1  0
 21 22  1  0
 21 23  1  1
 21 24  1  0
 22 59  1  0
 22 60  1  0
 22 61  1  0
 23 62  1  0
 24 25  1  6
 24 26  1  0
 25 63  1  0
 26 27  1  1
 26 28  1  0
 27 64  1  0
 28 32  1  0
 28 29  1  6
 28 30  1  0
 29 65  1  0
 29 66  1  0
 29 67  1  0
 30 31  2  0
 30 32  1  0
 32 33  1  1
 32 34  1  0
 33 68  1  0
 34 35  1  6
 35 69  1  0
 35 70  1  0
 35 71  1  0
M  END
>  <i_m_ct_stereo_status>  (448) 
1

>  <s_m_source_file>  (448) 
/var/tmp/pbs.5076255.sched01/tmp1cu33jom/138ve8n868x.sdf

>  <i_m_source_file_index>  (448) 
37

>  <i_lp_mmshare_version>  (448) 
48012

>  <i_f3d_flags>  (448) 
0

>  <s_epik_input>  (448) 
W0NIMl0xW0NIXT1DKFtDSDNdKVtDQEBdMihbQ0gzXSlDKEMzPU8pKFtPSF0pQzMoW0NIM10pW0NAQF00KFtPSF0pW0NAXTUoW09IXSlbQ0BdKFtDSDNdKShbT0hdKVtDQEhdKFtPSF0pW0NAQEhdKE9bQ0BIXShbT0hdKVtDQEBIXShbQ0gyXTYpW0NIM10pW0NAXTYoW09IXSlbQ0BAXTUoW0NIM10pW0NASF00W0NAQF0xMltPSF0=

>  <s_epik_cmdline>  (448) 
J2VwaWtfcHl0aG9uJywgJy1waHQnLCAnMi4wJywgJy1waCcsICc3LjAnLCAnLXRuJywgJzgnLCAnLW1hJywgJzIwMCcsICctaW1hZScsICc8aW5maWxlLm1hZT4nLCAnLW9tYWUnLCAnPG91dGZpbGUubWFlPic=

>  <r_lp_tautomer_probability>  (448) 
1

>  <r_epik_Ionization_Penalty>  (448) 
2.93296e-07

>  <r_epik_Ionization_Penalty_Charging>  (448) 
0

>  <r_epik_Ionization_Penalty_Neutral>  (448) 
2.93296e-07

>  <r_epik_State_Penalty>  (448) 
-0

>  <r_epik_Charging_Adjusted_Penalty>  (448) 
0

>  <i_epik_Tot_Q>  (448) 
0

>  <i_epik_Tot_abs_Q>  (448) 
0

>  <s_epik_Chemistry_Notes>  (448) 
This compound contains an acetal/aminal-like group ( X-CH(R)-Y where X, Y are N, S, or O) that may be acid/base labile, releasing an aldehyde.

>  <s_lp_Force_Field>  (448) 
OPLS3e

>  <r_lp_Energy>  (448) 
135.852

>  <b_lp_Chiralities_Consistent>  (448) 
1

>  <s_lp_Variant>  (448) 
116:0-3

>  <s_i_glide_gridfile>  (448) 
pfpi4k_grid

>  <i_i_glide_lignum>  (448) 
37

>  <i_i_glide_rotatable_bonds>  (448) 
8

>  <r_i_docking_score>  (448) 
-2.12387

>  <r_i_glide_ligand_efficiency>  (448) 
-0.0606821

>  <r_i_glide_ligand_efficiency_sa>  (448) 
-0.198495

>  <r_i_glide_ligand_efficiency_ln>  (448) 
-0.466237

>  <r_i_glide_gscore>  (448) 
-2.12387

>  <r_i_glide_lipo>  (448) 
-0.424419

>  <r_i_glide_hbond>  (448) 
0

>  <r_i_glide_metal>  (448) 
-0

>  <r_i_glide_rewards>  (448) 
-0.0235409

>  <r_i_glide_evdw>  (448) 
-18.3433

>  <r_i_glide_ecoul>  (448) 
-4.98782

>  <r_i_glide_erotb>  (448) 
0

>  <r_i_glide_esite>  (448) 
-0.0105776

>  <r_i_glide_emodel>  (448) 
-24.5127

>  <r_i_glide_energy>  (448) 
-23.3311

>  <r_i_glide_einternal>  (448) 
2.1802

>  <r_i_glide_intrahb_reward>  (448) 
-0

>  <i_i_glide_confnum>  (448) 
1

>  <i_i_glide_posenum>  (448) 
34

>  <r_i_glide_eff_state_penalty>  (448) 
0

>  <ligand_id>  (448) 
116

>  <original_smiles>  (448) 
CC1=CCC2(O)C3C4(C)C5(O)CC(C)C(O)OC5C(O)C(C)(O)C4(O)C3(O)C3(C)C(=O)C3(O)C12C

>  <smiles>  (448) 
[H]OC1([H])OC2([H])C([H])(O[H])C(O[H])(C([H])([H])[H])C3(O[H])C4(O[H])C([H])(C5(O[H])C([H])([H])C([H])=C(C([H])([H])[H])C5(C([H])([H])[H])C5(O[H])C(=O)C54C([H])([H])[H])C3(C([H])([H])[H])C2(O[H])C([H])([H])C1([H])C([H])([H])[H]

$$$$
116:2:1
     RDKit          3D

 71 76  0  0  1  0  0  0  0  0999 V2000
    5.2102   -4.2047   -2.7569 C   0  0  0  0  0  0  0  0  0  0  0  0
    5.2730   -4.2245   -1.2371 C   0  0  0  0  0  0  0  0  0  0  0  0
    4.9580   -5.2281   -0.4391 C   0  0  0  0  0  0  0  0  0  0  0  0
    5.0848   -4.8999    1.0182 C   0  0  0  0  0  0  0  0  0  0  0  0
    5.7083   -3.4826    1.0469 C   0  0  2  0  0  0  0  0  0  0  0  0
    6.9834   -3.6969    1.5979 O   0  0  0  0  0  0  0  0  0  0  0  0
    5.0361   -2.3507    1.9371 C   0  0  2  0  0  0  0  0  0  0  0  0
    4.4922   -2.3455    3.4066 C   0  0  2  0  0  0  0  0  0  0  0  0
    5.0837   -1.0566    4.0983 C   0  0  0  0  0  0  0  0  0  0  0  0
    4.4820   -3.4489    4.5476 C   0  0  2  0  0  0  0  0  0  0  0  0
    5.7006   -3.3774    5.2628 O   0  0  0  0  0  0  0  0  0  0  0  0
    4.4276   -4.9556    4.1364 C   0  0  0  0  0  0  0  0  0  0  0  0
    4.0695   -5.9383    5.2679 C   0  0  1  0  0  0  0  0  0  0  0  0
    5.1946   -6.2515    6.2743 C   0  0  0  0  0  0  0  0  0  0  0  0
    2.8045   -5.3956    5.9571 C   0  0  1  0  0  0  0  0  0  0  0  0
    2.3401   -6.2750    6.9624 O   0  0  0  0  0  0  0  0  0  0  0  0
    3.1080   -4.1370    6.4812 O   0  0  0  0  0  0  0  0  0  0  0  0
    3.3455   -3.0604    5.5716 C   0  0  2  0  0  0  0  0  0  0  0  0
    1.9828   -2.5085    4.9954 C   0  0  1  0  0  0  0  0  0  0  0  0
    1.3031   -1.8044    6.0184 O   0  0  0  0  0  0  0  0  0  0  0  0
    2.0452   -1.5914    3.7118 C   0  0  1  0  0  0  0  0  0  0  0  0
    0.6569   -1.3905    3.0842 C   0  0  0  0  0  0  0  0  0  0  0  0
    2.3761   -0.2714    4.0961 O   0  0  0  0  0  0  0  0  0  0  0  0
    3.0924   -2.2033    2.7322 C   0  0  2  0  0  0  0  0  0  0  0  0
    2.4417   -3.4175    2.4623 O   0  0  0  0  0  0  0  0  0  0  0  0
    3.7477   -1.5931    1.4233 C   0  0  1  0  0  0  0  0  0  0  0  0
    3.7036   -0.1821    1.4259 O   0  0  0  0  0  0  0  0  0  0  0  0
    3.5416   -1.9475   -0.0845 C   0  0  1  0  0  0  0  0  0  0  0  0
    2.5056   -3.0322   -0.3545 C   0  0  0  0  0  0  0  0  0  0  0  0
    3.8581   -1.3153   -1.4346 C   0  0  0  0  0  0  0  0  0  0  0  0
    3.4416   -0.7898   -2.4796 O   0  0  0  0  0  0  0  0  0  0  0  0
    4.9971   -1.7978   -0.6604 C   0  0  1  0  0  0  0  0  0  0  0  0
    5.7853   -0.6624   -0.3741 O   0  0  0  0  0  0  0  0  0  0  0  0
    5.8348   -3.0565   -0.4859 C   0  0  2  0  0  0  0  0  0  0  0  0
    7.2996   -2.8379   -0.9633 C   0  0  0  0  0  0  0  0  0  0  0  0
    4.5516   -3.4247   -3.1351 H   0  0  0  0  0  0  0  0  0  0  0  0
    4.8747   -5.1563   -3.1642 H   0  0  0  0  0  0  0  0  0  0  0  0
    6.2064   -4.0295   -3.1563 H   0  0  0  0  0  0  0  0  0  0  0  0
    4.5743   -6.1844   -0.7684 H   0  0  0  0  0  0  0  0  0  0  0  0
    4.0770   -4.9443    1.4004 H   0  0  0  0  0  0  0  0  0  0  0  0
    5.6870   -5.6642    1.5150 H   0  0  0  0  0  0  0  0  0  0  0  0
    7.3936   -4.4201    1.1565 H   0  0  0  0  0  0  0  0  0  0  0  0
    5.7898   -1.5712    1.9571 H   0  0  0  0  0  0  0  0  0  0  0  0
    4.6514   -0.8284    5.0662 H   0  0  0  0  0  0  0  0  0  0  0  0
    4.9593   -0.1581    3.4999 H   0  0  0  0  0  0  0  0  0  0  0  0
    6.1583   -1.0869    4.2475 H   0  0  0  0  0  0  0  0  0  0  0  0
    5.6349   -4.0053    5.9628 H   0  0  0  0  0  0  0  0  0  0  0  0
    3.6642   -5.1669    3.4010 H   0  0  0  0  0  0  0  0  0  0  0  0
    5.3782   -5.2635    3.7029 H   0  0  0  0  0  0  0  0  0  0  0  0
    3.7947   -6.8854    4.8026 H   0  0  0  0  0  0  0  0  0  0  0  0
    5.4436   -5.4088    6.9191 H   0  0  0  0  0  0  0  0  0  0  0  0
    6.0964   -6.5639    5.7498 H   0  0  0  0  0  0  0  0  0  0  0  0
    4.9098   -7.0776    6.9278 H   0  0  0  0  0  0  0  0  0  0  0  0
    1.9849   -5.3431    5.2381 H   0  0  0  0  0  0  0  0  0  0  0  0
    2.2554   -7.1352    6.5838 H   0  0  0  0  0  0  0  0  0  0  0  0
    3.7355   -2.2759    6.2190 H   0  0  0  0  0  0  0  0  0  0  0  0
    1.3496   -3.3514    4.7308 H   0  0  0  0  0  0  0  0  0  0  0  0
    1.8410   -1.0618    6.2475 H   0  0  0  0  0  0  0  0  0  0  0  0
    0.2123   -2.3604    2.8762 H   0  0  0  0  0  0  0  0  0  0  0  0
    0.6788   -0.7931    2.1681 H   0  0  0  0  0  0  0  0  0  0  0  0
   -0.0007   -0.8908    3.7886 H   0  0  0  0  0  0  0  0  0  0  0  0
    2.4623    0.2322    3.3021 H   0  0  0  0  0  0  0  0  0  0  0  0
    3.0266   -3.8844    1.8968 H   0  0  0  0  0  0  0  0  0  0  0  0
    2.8567    0.0460    1.0780 H   0  0  0  0  0  0  0  0  0  0  0  0
    2.7562   -4.0069    0.0442 H   0  0  0  0  0  0  0  0  0  0  0  0
    2.3552   -3.1503   -1.4300 H   0  0  0  0  0  0  0  0  0  0  0  0
    1.5753   -2.7070    0.1009 H   0  0  0  0  0  0  0  0  0  0  0  0
    5.2550    0.1086   -0.5076 H   0  0  0  0  0  0  0  0  0  0  0  0
    7.8420   -2.1396   -0.3271 H   0  0  0  0  0  0  0  0  0  0  0  0
    7.3523   -2.4587   -1.9859 H   0  0  0  0  0  0  0  0  0  0  0  0
    7.8536   -3.7687   -0.9455 H   0  0  0  0  0  0  0  0  0  0  0  0
  1  2  1  0
  1 36  1  0
  1 37  1  0
  1 38  1  0
  2 34  1  0
  2  3  2  0
  3  4  1  0
  3 39  1  0
  4  5  1  0
  4 40  1  0
  4 41  1  0
  5 34  1  0
  5  6  1  1
  5  7  1  0
  6 42  1  0
  7 26  1  0
  7  8  1  0
  7 43  1  1
  8 24  1  0
  8  9  1  1
  8 10  1  0
  9 44  1  0
  9 45  1  0
  9 46  1  0
 10 18  1  0
 10 11  1  1
 10 12  1  0
 11 47  1  0
 12 13  1  0
 12 48  1  0
 12 49  1  0
 13 14  1  0
 13 15  1  0
 13 50  1  6
 14 51  1  0
 14 52  1  0
 14 53  1  0
 15 16  1  0
 15 17  1  0
 15 54  1  6
 16 55  1  0
 17 18  1  0
 18 19  1  0
 18 56  1  1
 19 20  1  0
 19 21  1  0
 19 57  1  6
 20 58  1  0
 21 22  1  0
 21 23  1  1
 21 24  1  0
 22 59  1  0
 22 60  1  0
 22 61  1  0
 23 62  1  0
 24 25  1  6
 24 26  1  0
 25 63  1  0
 26 27  1  6
 26 28  1  0
 27 64  1  0
 28 32  1  0
 28 29  1  1
 28 30  1  0
 29 65  1  0
 29 66  1  0
 29 67  1  0
 30 31  2  0
 30 32  1  0
 32 33  1  1
 32 34  1  0
 33 68  1  0
 34 35  1  6
 35 69  1  0
 35 70  1  0
 35 71  1  0
M  END
>  <i_m_ct_stereo_status>  (449) 
1

>  <s_m_source_file>  (449) 
/var/tmp/pbs.5076255.sched01/tmp1cu33jom/138ve8n868x.sdf

>  <i_m_source_file_index>  (449) 
37

>  <i_lp_mmshare_version>  (449) 
48012

>  <i_f3d_flags>  (449) 
0

>  <s_epik_input>  (449) 
W0NIMl0xW0NIXT1DKFtDSDNdKVtDQEBdMihbQ0gzXSlDKEMzPU8pKFtPSF0pQzMoW0NIM10pW0NAQF00KFtPSF0pW0NAXTUoW09IXSlbQ0BdKFtDSDNdKShbT0hdKVtDQEhdKFtPSF0pW0NAQEhdKE9bQ0BIXShbT0hdKVtDQEBIXShbQ0gyXTYpW0NIM10pW0NAXTYoW09IXSlbQ0BAXTUoW0NIM10pW0NASF00W0NAQF0xMltPSF0=

>  <s_epik_cmdline>  (449) 
J2VwaWtfcHl0aG9uJywgJy1waHQnLCAnMi4wJywgJy1waCcsICc3LjAnLCAnLXRuJywgJzgnLCAnLW1hJywgJzIwMCcsICctaW1hZScsICc8aW5maWxlLm1hZT4nLCAnLW9tYWUnLCAnPG91dGZpbGUubWFlPic=

>  <r_lp_tautomer_probability>  (449) 
1

>  <r_epik_Ionization_Penalty>  (449) 
2.93296e-07

>  <r_epik_Ionization_Penalty_Charging>  (449) 
0

>  <r_epik_Ionization_Penalty_Neutral>  (449) 
2.93296e-07

>  <r_epik_State_Penalty>  (449) 
-0

>  <r_epik_Charging_Adjusted_Penalty>  (449) 
0

>  <i_epik_Tot_Q>  (449) 
0

>  <i_epik_Tot_abs_Q>  (449) 
0

>  <s_epik_Chemistry_Notes>  (449) 
This compound contains an acetal/aminal-like group ( X-CH(R)-Y where X, Y are N, S, or O) that may be acid/base labile, releasing an aldehyde.

>  <s_lp_Force_Field>  (449) 
OPLS3e

>  <r_lp_Energy>  (449) 
135.852

>  <b_lp_Chiralities_Consistent>  (449) 
1

>  <s_lp_Variant>  (449) 
116:0-3

>  <s_i_glide_gridfile>  (449) 
pfpi4k_grid

>  <i_i_glide_lignum>  (449) 
37

>  <i_i_glide_rotatable_bonds>  (449) 
8

>  <r_i_docking_score>  (449) 
-1.92626

>  <r_i_glide_ligand_efficiency>  (449) 
-0.0550359

>  <r_i_glide_ligand_efficiency_sa>  (449) 
-0.180026

>  <r_i_glide_ligand_efficiency_ln>  (449) 
-0.422856

>  <r_i_glide_gscore>  (449) 
-1.92626

>  <r_i_glide_lipo>  (449) 
-0.31866

>  <r_i_glide_hbond>  (449) 
0

>  <r_i_glide_metal>  (449) 
-0

>  <r_i_glide_rewards>  (449) 
-0.0235409

>  <r_i_glide_evdw>  (449) 
-14.5302

>  <r_i_glide_ecoul>  (449) 
-5.25843

>  <r_i_glide_erotb>  (449) 
0

>  <r_i_glide_esite>  (449) 
-0.0687799

>  <r_i_glide_emodel>  (449) 
-20.142

>  <r_i_glide_energy>  (449) 
-19.7887

>  <r_i_glide_einternal>  (449) 
3.1271

>  <r_i_glide_intrahb_reward>  (449) 
-0

>  <i_i_glide_confnum>  (449) 
1

>  <i_i_glide_posenum>  (449) 
35

>  <r_i_glide_eff_state_penalty>  (449) 
0

>  <ligand_id>  (449) 
116

>  <original_smiles>  (449) 
CC1=CCC2(O)C3C4(C)C5(O)CC(C)C(O)OC5C(O)C(C)(O)C4(O)C3(O)C3(C)C(=O)C3(O)C12C

>  <smiles>  (449) 
[H]OC1([H])OC2([H])C([H])(O[H])C(O[H])(C([H])([H])[H])C3(O[H])C4(O[H])C([H])(C5(O[H])C([H])([H])C([H])=C(C([H])([H])[H])C5(C([H])([H])[H])C5(O[H])C(=O)C54C([H])([H])[H])C3(C([H])([H])[H])C2(O[H])C([H])([H])C1([H])C([H])([H])[H]

$$$$
116:2:2
     RDKit          3D

 71 76  0  0  1  0  0  0  0  0999 V2000
    5.2223   -4.2036   -2.7617 C   0  0  0  0  0  0  0  0  0  0  0  0
    5.2924   -4.2227   -1.2455 C   0  0  0  0  0  0  0  0  0  0  0  0
    4.9819   -5.2296   -0.4439 C   0  0  0  0  0  0  0  0  0  0  0  0
    5.1089   -4.9014    1.0107 C   0  0  0  0  0  0  0  0  0  0  0  0
    5.7211   -3.4817    1.0377 C   0  0  2  0  0  0  0  0  0  0  0  0
    6.9999   -3.7018    1.5622 O   0  0  0  0  0  0  0  0  0  0  0  0
    5.0492   -2.3546    1.9363 C   0  0  2  0  0  0  0  0  0  0  0  0
    4.5010   -2.3532    3.4048 C   0  0  2  0  0  0  0  0  0  0  0  0
    5.0805   -1.0584    4.0988 C   0  0  0  0  0  0  0  0  0  0  0  0
    4.5021   -3.4589    4.5446 C   0  0  2  0  0  0  0  0  0  0  0  0
    5.7291   -3.3623    5.2529 O   0  0  0  0  0  0  0  0  0  0  0  0
    4.4557   -4.9685    4.1296 C   0  0  0  0  0  0  0  0  0  0  0  0
    4.0999   -5.9524    5.2570 C   0  0  1  0  0  0  0  0  0  0  0  0
    5.2245   -6.2618    6.2654 C   0  0  0  0  0  0  0  0  0  0  0  0
    2.8335   -5.4220    5.9522 C   0  0  1  0  0  0  0  0  0  0  0  0
    2.3972   -6.3065    6.9572 O   0  0  0  0  0  0  0  0  0  0  0  0
    3.1145   -4.1597    6.4759 O   0  0  0  0  0  0  0  0  0  0  0  0
    3.3564   -3.0853    5.5673 C   0  0  2  0  0  0  0  0  0  0  0  0
    1.9901   -2.5397    4.9919 C   0  0  1  0  0  0  0  0  0  0  0  0
    1.3022   -1.8532    6.0217 O   0  0  0  0  0  0  0  0  0  0  0  0
    2.0480   -1.6176    3.7142 C   0  0  1  0  0  0  0  0  0  0  0  0
    0.6580   -1.4267    3.0886 C   0  0  0  0  0  0  0  0  0  0  0  0
    2.3651   -0.2982    4.1195 O   0  0  0  0  0  0  0  0  0  0  0  0
    3.0999   -2.2194    2.7299 C   0  0  2  0  0  0  0  0  0  0  0  0
    2.4613   -3.4412    2.4560 O   0  0  0  0  0  0  0  0  0  0  0  0
    3.7566   -1.6070    1.4198 C   0  0  1  0  0  0  0  0  0  0  0  0
    3.7253   -0.1958    1.4143 O   0  0  0  0  0  0  0  0  0  0  0  0
    3.5495   -1.9585   -0.0867 C   0  0  1  0  0  0  0  0  0  0  0  0
    2.5178   -3.0502   -0.3626 C   0  0  0  0  0  0  0  0  0  0  0  0
    3.8605   -1.3182   -1.4330 C   0  0  0  0  0  0  0  0  0  0  0  0
    3.4351   -0.7958   -2.4764 O   0  0  0  0  0  0  0  0  0  0  0  0
    5.0075   -1.7976   -0.6633 C   0  0  1  0  0  0  0  0  0  0  0  0
    5.7892   -0.6541   -0.3675 O   0  0  0  0  0  0  0  0  0  0  0  0
    5.8478   -3.0482   -0.4921 C   0  0  2  0  0  0  0  0  0  0  0  0
    7.3128   -2.8210   -0.9668 C   0  0  0  0  0  0  0  0  0  0  0  0
    4.5571   -3.4285   -3.1372 H   0  0  0  0  0  0  0  0  0  0  0  0
    4.9009   -5.1615   -3.1613 H   0  0  0  0  0  0  0  0  0  0  0  0
    6.2110   -4.0139   -3.1662 H   0  0  0  0  0  0  0  0  0  0  0  0
    4.5999   -6.1841   -0.7745 H   0  0  0  0  0  0  0  0  0  0  0  0
    4.1043   -4.9541    1.3968 H   0  0  0  0  0  0  0  0  0  0  0  0
    5.7235   -5.6556    1.5067 H   0  0  0  0  0  0  0  0  0  0  0  0
    7.4176   -2.8600    1.6498 H   0  0  0  0  0  0  0  0  0  0  0  0
    5.7933   -1.5630    1.9560 H   0  0  0  0  0  0  0  0  0  0  0  0
    4.6651   -0.8424    5.0783 H   0  0  0  0  0  0  0  0  0  0  0  0
    4.9545   -0.1583    3.5014 H   0  0  0  0  0  0  0  0  0  0  0  0
    6.1555   -1.0815    4.2438 H   0  0  0  0  0  0  0  0  0  0  0  0
    6.4169   -3.7143    4.7066 H   0  0  0  0  0  0  0  0  0  0  0  0
    3.6934   -5.1830    3.3975 H   0  0  0  0  0  0  0  0  0  0  0  0
    5.4048   -5.2797    3.6946 H   0  0  0  0  0  0  0  0  0  0  0  0
    3.8244   -6.9029    4.7957 H   0  0  0  0  0  0  0  0  0  0  0  0
    5.4696   -5.4070    6.8962 H   0  0  0  0  0  0  0  0  0  0  0  0
    6.1287   -6.5663    5.7399 H   0  0  0  0  0  0  0  0  0  0  0  0
    4.9552   -7.0922    6.9196 H   0  0  0  0  0  0  0  0  0  0  0  0
    2.0015   -5.3834    5.2471 H   0  0  0  0  0  0  0  0  0  0  0  0
    3.1427   -6.5080    7.5011 H   0  0  0  0  0  0  0  0  0  0  0  0
    3.7430   -2.3032    6.2194 H   0  0  0  0  0  0  0  0  0  0  0  0
    1.3636   -3.3883    4.7261 H   0  0  0  0  0  0  0  0  0  0  0  0
    1.8212   -1.0979    6.2623 H   0  0  0  0  0  0  0  0  0  0  0  0
    0.2157   -2.3956    2.8769 H   0  0  0  0  0  0  0  0  0  0  0  0
    0.6840   -0.8276    2.1745 H   0  0  0  0  0  0  0  0  0  0  0  0
   -0.0030   -0.9248    3.7910 H   0  0  0  0  0  0  0  0  0  0  0  0
    3.2902   -0.2738    4.3108 H   0  0  0  0  0  0  0  0  0  0  0  0
    3.0369   -3.9046    1.8769 H   0  0  0  0  0  0  0  0  0  0  0  0
    2.8404    0.0429    1.1811 H   0  0  0  0  0  0  0  0  0  0  0  0
    2.7727   -4.0208    0.0348 H   0  0  0  0  0  0  0  0  0  0  0  0
    2.3700   -3.1723   -1.4376 H   0  0  0  0  0  0  0  0  0  0  0  0
    1.5818   -2.7338    0.0888 H   0  0  0  0  0  0  0  0  0  0  0  0
    5.2455    0.1118   -0.4764 H   0  0  0  0  0  0  0  0  0  0  0  0
    7.8538   -2.1187   -0.3334 H   0  0  0  0  0  0  0  0  0  0  0  0
    7.3638   -2.4437   -1.9885 H   0  0  0  0  0  0  0  0  0  0  0  0
    7.8706   -3.7499   -0.9435 H   0  0  0  0  0  0  0  0  0  0  0  0
  1  2  1  0
  1 36  1  0
  1 37  1  0
  1 38  1  0
  2 34  1  0
  2  3  2  0
  3  4  1  0
  3 39  1  0
  4  5  1  0
  4 40  1  0
  4 41  1  0
  5 34  1  0
  5  6  1  1
  5  7  1  0
  6 42  1  0
  7 26  1  0
  7  8  1  0
  7 43  1  1
  8 24  1  0
  8  9  1  1
  8 10  1  0
  9 44  1  0
  9 45  1  0
  9 46  1  0
 10 18  1  0
 10 11  1  1
 10 12  1  0
 11 47  1  0
 12 13  1  0
 12 48  1  0
 12 49  1  0
 13 14  1  0
 13 15  1  0
 13 50  1  6
 14 51  1  0
 14 52  1  0
 14 53  1  0
 15 16  1  0
 15 17  1  0
 15 54  1  6
 16 55  1  0
 17 18  1  0
 18 19  1  0
 18 56  1  1
 19 20  1  0
 19 21  1  0
 19 57  1  6
 20 58  1  0
 21 22  1  0
 21 23  1  1
 21 24  1  0
 22 59  1  0
 22 60  1  0
 22 61  1  0
 23 62  1  0
 24 25  1  6
 24 26  1  0
 25 63  1  0
 26 27  1  6
 26 28  1  0
 27 64  1  0
 28 32  1  0
 28 29  1  1
 28 30  1  0
 29 65  1  0
 29 66  1  0
 29 67  1  0
 30 31  2  0
 30 32  1  0
 32 33  1  1
 32 34  1  0
 33 68  1  0
 34 35  1  6
 35 69  1  0
 35 70  1  0
 35 71  1  0
M  END
>  <i_m_ct_stereo_status>  (450) 
1

>  <s_m_source_file>  (450) 
/var/tmp/pbs.5076255.sched01/tmp1cu33jom/138ve8n868x.sdf

>  <i_m_source_file_index>  (450) 
37

>  <i_lp_mmshare_version>  (450) 
48012

>  <i_f3d_flags>  (450) 
0

>  <s_epik_input>  (450) 
W0NIMl0xW0NIXT1DKFtDSDNdKVtDQEBdMihbQ0gzXSlDKEMzPU8pKFtPSF0pQzMoW0NIM10pW0NAQF00KFtPSF0pW0NAXTUoW09IXSlbQ0BdKFtDSDNdKShbT0hdKVtDQEhdKFtPSF0pW0NAQEhdKE9bQ0BIXShbT0hdKVtDQEBIXShbQ0gyXTYpW0NIM10pW0NAXTYoW09IXSlbQ0BAXTUoW0NIM10pW0NASF00W0NAQF0xMltPSF0=

>  <s_epik_cmdline>  (450) 
J2VwaWtfcHl0aG9uJywgJy1waHQnLCAnMi4wJywgJy1waCcsICc3LjAnLCAnLXRuJywgJzgnLCAnLW1hJywgJzIwMCcsICctaW1hZScsICc8aW5maWxlLm1hZT4nLCAnLW9tYWUnLCAnPG91dGZpbGUubWFlPic=

>  <r_lp_tautomer_probability>  (450) 
1

>  <r_epik_Ionization_Penalty>  (450) 
2.93296e-07

>  <r_epik_Ionization_Penalty_Charging>  (450) 
0

>  <r_epik_Ionization_Penalty_Neutral>  (450) 
2.93296e-07

>  <r_epik_State_Penalty>  (450) 
-0

>  <r_epik_Charging_Adjusted_Penalty>  (450) 
0

>  <i_epik_Tot_Q>  (450) 
0

>  <i_epik_Tot_abs_Q>  (450) 
0

>  <s_epik_Chemistry_Notes>  (450) 
This compound contains an acetal/aminal-like group ( X-CH(R)-Y where X, Y are N, S, or O) that may be acid/base labile, releasing an aldehyde.

>  <s_lp_Force_Field>  (450) 
OPLS3e

>  <r_lp_Energy>  (450) 
135.852

>  <b_lp_Chiralities_Consistent>  (450) 
1

>  <s_lp_Variant>  (450) 
116:0-3

>  <s_i_glide_gridfile>  (450) 
pfpi4k_grid

>  <i_i_glide_lignum>  (450) 
37

>  <i_i_glide_rotatable_bonds>  (450) 
8

>  <r_i_docking_score>  (450) 
-1.70738

>  <r_i_glide_ligand_efficiency>  (450) 
-0.0487824

>  <r_i_glide_ligand_efficiency_sa>  (450) 
-0.15957

>  <r_i_glide_ligand_efficiency_ln>  (450) 
-0.374809

>  <r_i_glide_gscore>  (450) 
-1.70738

>  <r_i_glide_lipo>  (450) 
-0.320451

>  <r_i_glide_hbond>  (450) 
0

>  <r_i_glide_metal>  (450) 
-0

>  <r_i_glide_rewards>  (450) 
-0.0235409

>  <r_i_glide_evdw>  (450) 
-14.8194

>  <r_i_glide_ecoul>  (450) 
-3.69125

>  <r_i_glide_erotb>  (450) 
0

>  <r_i_glide_esite>  (450) 
-0.0687353

>  <r_i_glide_emodel>  (450) 
-19.5479

>  <r_i_glide_energy>  (450) 
-18.5106

>  <r_i_glide_einternal>  (450) 
1.25043

>  <r_i_glide_intrahb_reward>  (450) 
-0

>  <i_i_glide_confnum>  (450) 
1

>  <i_i_glide_posenum>  (450) 
1

>  <r_i_glide_eff_state_penalty>  (450) 
0

>  <ligand_id>  (450) 
116

>  <original_smiles>  (450) 
CC1=CCC2(O)C3C4(C)C5(O)CC(C)C(O)OC5C(O)C(C)(O)C4(O)C3(O)C3(C)C(=O)C3(O)C12C

>  <smiles>  (450) 
[H]OC1([H])OC2([H])C([H])(O[H])C(O[H])(C([H])([H])[H])C3(O[H])C4(O[H])C([H])(C5(O[H])C([H])([H])C([H])=C(C([H])([H])[H])C5(C([H])([H])[H])C5(O[H])C(=O)C54C([H])([H])[H])C3(C([H])([H])[H])C2(O[H])C([H])([H])C1([H])C([H])([H])[H]

$$$$
116:3:0
     RDKit          3D

 71 76  0  0  1  0  0  0  0  0999 V2000
    0.5046   -0.3982    7.0086 C   0  0  0  0  0  0  0  0  0  0  0  0
    0.5725   -1.7958    6.4247 C   0  0  0  0  0  0  0  0  0  0  0  0
   -0.1729   -2.2634    5.4193 C   0  0  0  0  0  0  0  0  0  0  0  0
    0.2060   -3.6682    5.0352 C   0  0  0  0  0  0  0  0  0  0  0  0
    1.6046   -3.8252    5.6893 C   0  0  2  0  0  0  0  0  0  0  0  0
    2.4739   -3.3342    4.6804 O   0  0  0  0  0  0  0  0  0  0  0  0
    2.2090   -5.1911    6.0849 C   0  0  2  0  0  0  0  0  0  0  0  0
    2.2151   -6.5840    5.3596 C   0  0  2  0  0  0  0  0  0  0  0  0
    3.7174   -7.0695    5.3258 C   0  0  0  0  0  0  0  0  0  0  0  0
    1.6148   -7.1000    3.9809 C   0  0  2  0  0  0  0  0  0  0  0  0
    2.5698   -6.9106    2.9524 O   0  0  0  0  0  0  0  0  0  0  0  0
    0.3737   -6.3653    3.3705 C   0  0  0  0  0  0  0  0  0  0  0  0
   -0.4121   -7.1469    2.3041 C   0  0  1  0  0  0  0  0  0  0  0  0
    0.2148   -7.1446    0.8945 C   0  0  0  0  0  0  0  0  0  0  0  0
   -0.6360   -8.5683    2.8469 C   0  0  1  0  0  0  0  0  0  0  0  0
   -1.4304   -9.3193    1.9697 O   0  0  0  0  0  0  0  0  0  0  0  0
    0.6107   -9.1588    3.0264 O   0  0  0  0  0  0  0  0  0  0  0  0
    1.4153   -8.6678    4.0952 C   0  0  2  0  0  0  0  0  0  0  0  0
    0.9173   -9.2823    5.4678 C   0  0  1  0  0  0  0  0  0  0  0  0
    1.3485  -10.6328    5.5094 O   0  0  0  0  0  0  0  0  0  0  0  0
    1.3474   -8.5653    6.7974 C   0  0  1  0  0  0  0  0  0  0  0  0
    0.5012   -9.0688    7.9866 C   0  0  0  0  0  0  0  0  0  0  0  0
    2.6611   -8.9682    7.1584 O   0  0  0  0  0  0  0  0  0  0  0  0
    1.3008   -7.0252    6.5572 C   0  0  2  0  0  0  0  0  0  0  0  0
   -0.0787   -6.7848    6.3612 O   0  0  0  0  0  0  0  0  0  0  0  0
    1.8723   -5.8752    7.4475 C   0  0  1  0  0  0  0  0  0  0  0  0
    3.0237   -6.2017    8.2079 O   0  0  0  0  0  0  0  0  0  0  0  0
    1.0290   -5.0469    8.4552 C   0  0  2  0  0  0  0  0  0  0  0  0
    0.9700   -5.6014    9.8745 C   0  0  0  0  0  0  0  0  0  0  0  0
   -0.2664   -4.3625    8.0645 C   0  0  0  0  0  0  0  0  0  0  0  0
   -1.4735   -4.4098    7.8410 O   0  0  0  0  0  0  0  0  0  0  0  0
    0.9819   -3.5403    8.1725 C   0  0  1  0  0  0  0  0  0  0  0  0
    0.9604   -2.7478    9.3402 O   0  0  0  0  0  0  0  0  0  0  0  0
    1.5678   -2.8391    6.9140 C   0  0  2  0  0  0  0  0  0  0  0  0
    2.9577   -2.2445    7.2431 C   0  0  0  0  0  0  0  0  0  0  0  0
    1.4428    0.1266    6.8246 H   0  0  0  0  0  0  0  0  0  0  0  0
    0.3368   -0.4347    8.0842 H   0  0  0  0  0  0  0  0  0  0  0  0
   -0.2950    0.1837    6.5441 H   0  0  0  0  0  0  0  0  0  0  0  0
   -0.9520   -1.7186    4.9030 H   0  0  0  0  0  0  0  0  0  0  0  0
   -0.5361   -4.3575    5.4287 H   0  0  0  0  0  0  0  0  0  0  0  0
    0.2151   -3.7196    3.9513 H   0  0  0  0  0  0  0  0  0  0  0  0
    2.5299   -3.9874    3.9955 H   0  0  0  0  0  0  0  0  0  0  0  0
    3.2660   -4.9434    6.2186 H   0  0  0  0  0  0  0  0  0  0  0  0
    3.8456   -8.1110    5.0256 H   0  0  0  0  0  0  0  0  0  0  0  0
    4.2334   -6.9934    6.2815 H   0  0  0  0  0  0  0  0  0  0  0  0
    4.3225   -6.4696    4.6389 H   0  0  0  0  0  0  0  0  0  0  0  0
    2.3394   -7.4957    2.2473 H   0  0  0  0  0  0  0  0  0  0  0  0
   -0.3518   -6.0941    4.1211 H   0  0  0  0  0  0  0  0  0  0  0  0
    0.7076   -5.4362    2.9098 H   0  0  0  0  0  0  0  0  0  0  0  0
   -1.3979   -6.6877    2.2095 H   0  0  0  0  0  0  0  0  0  0  0  0
    1.1392   -7.7205    0.8506 H   0  0  0  0  0  0  0  0  0  0  0  0
    0.4376   -6.1346    0.5510 H   0  0  0  0  0  0  0  0  0  0  0  0
   -0.4831   -7.5670    0.1728 H   0  0  0  0  0  0  0  0  0  0  0  0
   -1.2046   -8.5301    3.7770 H   0  0  0  0  0  0  0  0  0  0  0  0
   -0.9324   -9.4569    1.1723 H   0  0  0  0  0  0  0  0  0  0  0  0
    2.3812   -9.1352    3.9068 H   0  0  0  0  0  0  0  0  0  0  0  0
   -0.1706   -9.3043    5.4632 H   0  0  0  0  0  0  0  0  0  0  0  0
    1.0420  -11.0769    6.2998 H   0  0  0  0  0  0  0  0  0  0  0  0
   -0.5633   -8.8739    7.8605 H   0  0  0  0  0  0  0  0  0  0  0  0
    0.8283   -8.6334    8.9270 H   0  0  0  0  0  0  0  0  0  0  0  0
    0.6072  -10.1508    8.0969 H   0  0  0  0  0  0  0  0  0  0  0  0
    2.6588   -9.9148    7.2388 H   0  0  0  0  0  0  0  0  0  0  0  0
   -0.3685   -7.4017    5.7121 H   0  0  0  0  0  0  0  0  0  0  0  0
    3.4933   -6.8524    7.7088 H   0  0  0  0  0  0  0  0  0  0  0  0
    1.8864   -5.3815   10.4213 H   0  0  0  0  0  0  0  0  0  0  0  0
    0.8192   -6.6734    9.8606 H   0  0  0  0  0  0  0  0  0  0  0  0
    0.1441   -5.1594   10.4263 H   0  0  0  0  0  0  0  0  0  0  0  0
    1.8102   -2.8472    9.7476 H   0  0  0  0  0  0  0  0  0  0  0  0
    3.6539   -3.0213    7.5528 H   0  0  0  0  0  0  0  0  0  0  0  0
    2.9062   -1.5220    8.0523 H   0  0  0  0  0  0  0  0  0  0  0  0
    3.4006   -1.7240    6.3929 H   0  0  0  0  0  0  0  0  0  0  0  0
  1  2  1  0
  1 36  1  0
  1 37  1  0
  1 38  1  0
  2 34  1  0
  2  3  2  0
  3  4  1  0
  3 39  1  0
  4  5  1  0
  4 40  1  0
  4 41  1  0
  5 34  1  0
  5  6  1  6
  5  7  1  0
  6 42  1  0
  7 26  1  0
  7  8  1  0
  7 43  1  1
  8 24  1  0
  8  9  1  1
  8 10  1  0
  9 44  1  0
  9 45  1  0
  9 46  1  0
 10 18  1  0
 10 11  1  6
 10 12  1  0
 11 47  1  0
 12 13  1  0
 12 48  1  0
 12 49  1  0
 13 14  1  0
 13 15  1  0
 13 50  1  6
 14 51  1  0
 14 52  1  0
 14 53  1  0
 15 16  1  0
 15 17  1  0
 15 54  1  1
 16 55  1  0
 17 18  1  0
 18 19  1  0
 18 56  1  6
 19 20  1  0
 19 21  1  0
 19 57  1  6
 20 58  1  0
 21 22  1  0
 21 23  1  1
 21 24  1  0
 22 59  1  0
 22 60  1  0
 22 61  1  0
 23 62  1  0
 24 25  1  6
 24 26  1  0
 25 63  1  0
 26 27  1  1
 26 28  1  0
 27 64  1  0
 28 32  1  0
 28 29  1  1
 28 30  1  0
 29 65  1  0
 29 66  1  0
 29 67  1  0
 30 31  2  0
 30 32  1  0
 32 33  1  1
 32 34  1  0
 33 68  1  0
 34 35  1  1
 35 69  1  0
 35 70  1  0
 35 71  1  0
M  END
>  <i_m_ct_stereo_status>  (451) 
1

>  <s_m_source_file>  (451) 
/var/tmp/pbs.5076255.sched01/tmp1cu33jom/138ve8n868x.sdf

>  <i_m_source_file_index>  (451) 
38

>  <i_lp_mmshare_version>  (451) 
48012

>  <i_f3d_flags>  (451) 
0

>  <s_epik_input>  (451) 
W0NIMl0xW0NIXT1DKFtDSDNdKVtDQEBdMihbQ0gzXSlDKEMzPU8pKFtPSF0pQzMoW0NIM10pW0NAQF00KFtPSF0pW0NAXTUoW09IXSlbQ0BdKFtDSDNdKShbT0hdKVtDQEhdKFtPSF0pW0NAQEhdKE9bQ0BIXShbT0hdKVtDQEBIXShbQ0gyXTYpW0NIM10pW0NAXTYoW09IXSlbQ0BAXTUoW0NIM10pW0NASF00W0NAQF0xMltPSF0=

>  <s_epik_cmdline>  (451) 
J2VwaWtfcHl0aG9uJywgJy1waHQnLCAnMi4wJywgJy1waCcsICc3LjAnLCAnLXRuJywgJzgnLCAnLW1hJywgJzIwMCcsICctaW1hZScsICc8aW5maWxlLm1hZT4nLCAnLW9tYWUnLCAnPG91dGZpbGUubWFlPic=

>  <r_lp_tautomer_probability>  (451) 
1

>  <r_epik_Ionization_Penalty>  (451) 
2.93296e-07

>  <r_epik_Ionization_Penalty_Charging>  (451) 
0

>  <r_epik_Ionization_Penalty_Neutral>  (451) 
2.93296e-07

>  <r_epik_State_Penalty>  (451) 
-0

>  <r_epik_Charging_Adjusted_Penalty>  (451) 
0

>  <i_epik_Tot_Q>  (451) 
0

>  <i_epik_Tot_abs_Q>  (451) 
0

>  <s_epik_Chemistry_Notes>  (451) 
This compound contains an acetal/aminal-like group ( X-CH(R)-Y where X, Y are N, S, or O) that may be acid/base labile, releasing an aldehyde.

>  <s_lp_Force_Field>  (451) 
OPLS3e

>  <r_lp_Energy>  (451) 
102.983

>  <b_lp_Chiralities_Consistent>  (451) 
1

>  <s_lp_Variant>  (451) 
116:0-4

>  <s_i_glide_gridfile>  (451) 
pfpi4k_grid

>  <i_i_glide_lignum>  (451) 
38

>  <i_i_glide_rotatable_bonds>  (451) 
8

>  <r_i_docking_score>  (451) 
-2.87014

>  <r_i_glide_ligand_efficiency>  (451) 
-0.0820039

>  <r_i_glide_ligand_efficiency_sa>  (451) 
-0.26824

>  <r_i_glide_ligand_efficiency_ln>  (451) 
-0.630059

>  <r_i_glide_gscore>  (451) 
-2.87014

>  <r_i_glide_lipo>  (451) 
0

>  <r_i_glide_hbond>  (451) 
0

>  <r_i_glide_metal>  (451) 
-0

>  <r_i_glide_rewards>  (451) 
-0.523541

>  <r_i_glide_evdw>  (451) 
-20.3718

>  <r_i_glide_ecoul>  (451) 
-8.497

>  <r_i_glide_erotb>  (451) 
0

>  <r_i_glide_esite>  (451) 
-0.0534549

>  <r_i_glide_emodel>  (451) 
-39.0842

>  <r_i_glide_energy>  (451) 
-28.8688

>  <r_i_glide_einternal>  (451) 
1.78426

>  <r_i_glide_intrahb_reward>  (451) 
-0.5

>  <i_i_glide_confnum>  (451) 
2

>  <i_i_glide_posenum>  (451) 
11

>  <r_i_glide_eff_state_penalty>  (451) 
0

>  <ligand_id>  (451) 
116

>  <original_smiles>  (451) 
CC1=CCC2(O)C3C4(C)C5(O)CC(C)C(O)OC5C(O)C(C)(O)C4(O)C3(O)C3(C)C(=O)C3(O)C12C

>  <smiles>  (451) 
[H]OC1([H])OC2([H])C([H])(O[H])C(O[H])(C([H])([H])[H])C3(O[H])C4(O[H])C([H])(C5(O[H])C([H])([H])C([H])=C(C([H])([H])[H])C5(C([H])([H])[H])C5(O[H])C(=O)C54C([H])([H])[H])C3(C([H])([H])[H])C2(O[H])C([H])([H])C1([H])C([H])([H])[H]

$$$$
116:3:1
     RDKit          3D

 71 76  0  0  1  0  0  0  0  0999 V2000
   -0.4975   -9.0490    4.8417 C   0  0  0  0  0  0  0  0  0  0  0  0
    0.2271   -7.7807    4.4371 C   0  0  0  0  0  0  0  0  0  0  0  0
   -0.3506   -6.6135    4.1588 C   0  0  0  0  0  0  0  0  0  0  0  0
    0.6588   -5.5314    3.8769 C   0  0  0  0  0  0  0  0  0  0  0  0
    1.9614   -6.1417    4.4515 C   0  0  2  0  0  0  0  0  0  0  0  0
    1.9073   -5.7213    5.8069 O   0  0  0  0  0  0  0  0  0  0  0  0
    3.3748   -5.7450    3.9511 C   0  0  2  0  0  0  0  0  0  0  0  0
    4.0022   -4.3521    3.5875 C   0  0  2  0  0  0  0  0  0  0  0  0
    5.3377   -4.2419    4.4060 C   0  0  0  0  0  0  0  0  0  0  0  0
    3.4437   -2.8665    3.5793 C   0  0  2  0  0  0  0  0  0  0  0  0
    3.6677   -2.2840    4.8620 O   0  0  0  0  0  0  0  0  0  0  0  0
    1.9115   -2.6506    3.3898 C   0  0  0  0  0  0  0  0  0  0  0  0
    1.4769   -1.2383    2.9537 C   0  0  1  0  0  0  0  0  0  0  0  0
    1.4373   -0.1751    4.0685 C   0  0  0  0  0  0  0  0  0  0  0  0
    2.3708   -0.8067    1.7910 C   0  0  1  0  0  0  0  0  0  0  0  0
    1.9551    0.4357    1.2810 O   0  0  0  0  0  0  0  0  0  0  0  0
    3.6925   -0.7756    2.2363 O   0  0  0  0  0  0  0  0  0  0  0  0
    4.3161   -2.0238    2.5557 C   0  0  2  0  0  0  0  0  0  0  0  0
    4.8095   -2.7095    1.2220 C   0  0  1  0  0  0  0  0  0  0  0  0
    5.9497   -2.0116    0.7445 O   0  0  0  0  0  0  0  0  0  0  0  0
    5.1144   -4.2477    1.2447 C   0  0  1  0  0  0  0  0  0  0  0  0
    5.2432   -4.8208   -0.1841 C   0  0  0  0  0  0  0  0  0  0  0  0
    6.4152   -4.4714    1.7562 O   0  0  0  0  0  0  0  0  0  0  0  0
    4.0458   -4.9396    2.1396 C   0  0  2  0  0  0  0  0  0  0  0  0
    2.8725   -4.7283    1.3780 O   0  0  0  0  0  0  0  0  0  0  0  0
    4.0373   -6.4037    2.6944 C   0  0  1  0  0  0  0  0  0  0  0  0
    5.3283   -6.9503    2.9309 O   0  0  0  0  0  0  0  0  0  0  0  0
    3.2617   -7.6051    2.0799 C   0  0  2  0  0  0  0  0  0  0  0  0
    4.0547   -8.4248    1.0639 C   0  0  0  0  0  0  0  0  0  0  0  0
    1.7921   -7.4914    1.7204 C   0  0  0  0  0  0  0  0  0  0  0  0
    0.9081   -7.0945    0.9579 O   0  0  0  0  0  0  0  0  0  0  0  0
    2.1874   -8.2260    2.9659 C   0  0  1  0  0  0  0  0  0  0  0  0
    2.0778   -9.6217    2.7717 O   0  0  0  0  0  0  0  0  0  0  0  0
    1.7433   -7.6974    4.3537 C   0  0  2  0  0  0  0  0  0  0  0  0
    2.4595   -8.4778    5.4825 C   0  0  0  0  0  0  0  0  0  0  0  0
   -0.2339   -9.3243    5.8598 H   0  0  0  0  0  0  0  0  0  0  0  0
   -0.2349   -9.8713    4.1850 H   0  0  0  0  0  0  0  0  0  0  0  0
   -1.5725   -8.8917    4.8032 H   0  0  0  0  0  0  0  0  0  0  0  0
   -1.4123   -6.4297    4.1549 H   0  0  0  0  0  0  0  0  0  0  0  0
    0.7048   -5.3588    2.8073 H   0  0  0  0  0  0  0  0  0  0  0  0
    0.3317   -4.6291    4.3837 H   0  0  0  0  0  0  0  0  0  0  0  0
    2.6061   -6.1439    6.2778 H   0  0  0  0  0  0  0  0  0  0  0  0
    4.0153   -6.1212    4.7433 H   0  0  0  0  0  0  0  0  0  0  0  0
    5.9312   -3.3917    4.1089 H   0  0  0  0  0  0  0  0  0  0  0  0
    5.9880   -5.1086    4.3225 H   0  0  0  0  0  0  0  0  0  0  0  0
    5.1613   -4.1260    5.4785 H   0  0  0  0  0  0  0  0  0  0  0  0
    3.1350   -2.7289    5.5035 H   0  0  0  0  0  0  0  0  0  0  0  0
    1.4833   -3.3123    2.6492 H   0  0  0  0  0  0  0  0  0  0  0  0
    1.3956   -2.8540    4.3251 H   0  0  0  0  0  0  0  0  0  0  0  0
    0.4650   -1.3101    2.5577 H   0  0  0  0  0  0  0  0  0  0  0  0
    2.4315    0.0590    4.4484 H   0  0  0  0  0  0  0  0  0  0  0  0
    0.8232   -0.5118    4.9030 H   0  0  0  0  0  0  0  0  0  0  0  0
    0.9963    0.7540    3.7045 H   0  0  0  0  0  0  0  0  0  0  0  0
    2.2555   -1.4912    0.9515 H   0  0  0  0  0  0  0  0  0  0  0  0
    1.4056    0.2411    0.5293 H   0  0  0  0  0  0  0  0  0  0  0  0
    5.2225   -1.7165    3.0799 H   0  0  0  0  0  0  0  0  0  0  0  0
    4.0373   -2.5831    0.4680 H   0  0  0  0  0  0  0  0  0  0  0  0
    6.6200   -2.0660    1.4098 H   0  0  0  0  0  0  0  0  0  0  0  0
    4.3369   -4.6948   -0.7755 H   0  0  0  0  0  0  0  0  0  0  0  0
    5.5233   -5.8737   -0.1871 H   0  0  0  0  0  0  0  0  0  0  0  0
    6.0339   -4.2886   -0.7105 H   0  0  0  0  0  0  0  0  0  0  0  0
    6.5192   -5.4069    1.8683 H   0  0  0  0  0  0  0  0  0  0  0  0
    3.0861   -4.9605    0.4911 H   0  0  0  0  0  0  0  0  0  0  0  0
    5.1987   -7.7316    3.4442 H   0  0  0  0  0  0  0  0  0  0  0  0
    4.7576   -9.0950    1.5523 H   0  0  0  0  0  0  0  0  0  0  0  0
    4.5938   -7.7676    0.3895 H   0  0  0  0  0  0  0  0  0  0  0  0
    3.3961   -9.0520    0.4724 H   0  0  0  0  0  0  0  0  0  0  0  0
    1.2841   -9.9326    3.1757 H   0  0  0  0  0  0  0  0  0  0  0  0
    3.5364   -8.3680    5.4076 H   0  0  0  0  0  0  0  0  0  0  0  0
    2.2461   -9.5454    5.4257 H   0  0  0  0  0  0  0  0  0  0  0  0
    2.1495   -8.1604    6.4769 H   0  0  0  0  0  0  0  0  0  0  0  0
  1  2  1  0
  1 36  1  0
  1 37  1  0
  1 38  1  0
  2 34  1  0
  2  3  2  0
  3  4  1  0
  3 39  1  0
  4  5  1  0
  4 40  1  0
  4 41  1  0
  5 34  1  0
  5  6  1  1
  5  7  1  0
  6 42  1  0
  7 26  1  0
  7  8  1  0
  7 43  1  1
  8 24  1  0
  8  9  1  1
  8 10  1  0
  9 44  1  0
  9 45  1  0
  9 46  1  0
 10 18  1  0
 10 11  1  1
 10 12  1  0
 11 47  1  0
 12 13  1  0
 12 48  1  0
 12 49  1  0
 13 14  1  0
 13 15  1  0
 13 50  1  6
 14 51  1  0
 14 52  1  0
 14 53  1  0
 15 16  1  0
 15 17  1  0
 15 54  1  6
 16 55  1  0
 17 18  1  0
 18 19  1  0
 18 56  1  1
 19 20  1  0
 19 21  1  0
 19 57  1  6
 20 58  1  0
 21 22  1  0
 21 23  1  1
 21 24  1  0
 22 59  1  0
 22 60  1  0
 22 61  1  0
 23 62  1  0
 24 25  1  6
 24 26  1  0
 25 63  1  0
 26 27  1  1
 26 28  1  0
 27 64  1  0
 28 32  1  0
 28 29  1  6
 28 30  1  0
 29 65  1  0
 29 66  1  0
 29 67  1  0
 30 31  2  0
 30 32  1  0
 32 33  1  6
 32 34  1  0
 33 68  1  0
 34 35  1  1
 35 69  1  0
 35 70  1  0
 35 71  1  0
M  END
>  <i_m_ct_stereo_status>  (452) 
1

>  <s_m_source_file>  (452) 
/var/tmp/pbs.5076255.sched01/tmp1cu33jom/138ve8n868x.sdf

>  <i_m_source_file_index>  (452) 
38

>  <i_lp_mmshare_version>  (452) 
48012

>  <i_f3d_flags>  (452) 
0

>  <s_epik_input>  (452) 
W0NIMl0xW0NIXT1DKFtDSDNdKVtDQEBdMihbQ0gzXSlDKEMzPU8pKFtPSF0pQzMoW0NIM10pW0NAQF00KFtPSF0pW0NAXTUoW09IXSlbQ0BdKFtDSDNdKShbT0hdKVtDQEhdKFtPSF0pW0NAQEhdKE9bQ0BIXShbT0hdKVtDQEBIXShbQ0gyXTYpW0NIM10pW0NAXTYoW09IXSlbQ0BAXTUoW0NIM10pW0NASF00W0NAQF0xMltPSF0=

>  <s_epik_cmdline>  (452) 
J2VwaWtfcHl0aG9uJywgJy1waHQnLCAnMi4wJywgJy1waCcsICc3LjAnLCAnLXRuJywgJzgnLCAnLW1hJywgJzIwMCcsICctaW1hZScsICc8aW5maWxlLm1hZT4nLCAnLW9tYWUnLCAnPG91dGZpbGUubWFlPic=

>  <r_lp_tautomer_probability>  (452) 
1

>  <r_epik_Ionization_Penalty>  (452) 
2.93296e-07

>  <r_epik_Ionization_Penalty_Charging>  (452) 
0

>  <r_epik_Ionization_Penalty_Neutral>  (452) 
2.93296e-07

>  <r_epik_State_Penalty>  (452) 
-0

>  <r_epik_Charging_Adjusted_Penalty>  (452) 
0

>  <i_epik_Tot_Q>  (452) 
0

>  <i_epik_Tot_abs_Q>  (452) 
0

>  <s_epik_Chemistry_Notes>  (452) 
This compound contains an acetal/aminal-like group ( X-CH(R)-Y where X, Y are N, S, or O) that may be acid/base labile, releasing an aldehyde.

>  <s_lp_Force_Field>  (452) 
OPLS3e

>  <r_lp_Energy>  (452) 
102.983

>  <b_lp_Chiralities_Consistent>  (452) 
1

>  <s_lp_Variant>  (452) 
116:0-4

>  <s_i_glide_gridfile>  (452) 
pfpi4k_grid

>  <i_i_glide_lignum>  (452) 
38

>  <i_i_glide_rotatable_bonds>  (452) 
8

>  <r_i_docking_score>  (452) 
-2.71306

>  <r_i_glide_ligand_efficiency>  (452) 
-0.077516

>  <r_i_glide_ligand_efficiency_sa>  (452) 
-0.25356

>  <r_i_glide_ligand_efficiency_ln>  (452) 
-0.595577

>  <r_i_glide_gscore>  (452) 
-2.71306

>  <r_i_glide_lipo>  (452) 
-0.141742

>  <r_i_glide_hbond>  (452) 
0

>  <r_i_glide_metal>  (452) 
-0

>  <r_i_glide_rewards>  (452) 
-0.523541

>  <r_i_glide_evdw>  (452) 
-24.1604

>  <r_i_glide_ecoul>  (452) 
-5.03797

>  <r_i_glide_erotb>  (452) 
0

>  <r_i_glide_esite>  (452) 
-0.0840621

>  <r_i_glide_emodel>  (452) 
-38.3492

>  <r_i_glide_energy>  (452) 
-29.1983

>  <r_i_glide_einternal>  (452) 
3.66099

>  <r_i_glide_intrahb_reward>  (452) 
-0.5

>  <i_i_glide_confnum>  (452) 
2

>  <i_i_glide_posenum>  (452) 
3

>  <r_i_glide_eff_state_penalty>  (452) 
0

>  <ligand_id>  (452) 
116

>  <original_smiles>  (452) 
CC1=CCC2(O)C3C4(C)C5(O)CC(C)C(O)OC5C(O)C(C)(O)C4(O)C3(O)C3(C)C(=O)C3(O)C12C

>  <smiles>  (452) 
[H]OC1([H])OC2([H])C([H])(O[H])C(O[H])(C([H])([H])[H])C3(O[H])C4(O[H])C([H])(C5(O[H])C([H])([H])C([H])=C(C([H])([H])[H])C5(C([H])([H])[H])C5(O[H])C(=O)C54C([H])([H])[H])C3(C([H])([H])[H])C2(O[H])C([H])([H])C1([H])C([H])([H])[H]

$$$$
116:3:2
     RDKit          3D

 71 76  0  0  1  0  0  0  0  0999 V2000
   -0.4150   -8.8895    5.1737 C   0  0  0  0  0  0  0  0  0  0  0  0
    0.2598   -7.6211    4.7031 C   0  0  0  0  0  0  0  0  0  0  0  0
   -0.3582   -6.4672    4.4366 C   0  0  0  0  0  0  0  0  0  0  0  0
    0.6116   -5.3747    4.0765 C   0  0  0  0  0  0  0  0  0  0  0  0
    1.9567   -5.9422    4.5910 C   0  0  2  0  0  0  0  0  0  0  0  0
    1.9837   -5.4887    5.9346 O   0  0  0  0  0  0  0  0  0  0  0  0
    3.3262   -5.5270    4.0021 C   0  0  2  0  0  0  0  0  0  0  0  0
    3.9020   -4.1295    3.5804 C   0  0  2  0  0  0  0  0  0  0  0  0
    5.2739   -3.9722    4.3207 C   0  0  0  0  0  0  0  0  0  0  0  0
    3.3119   -2.6564    3.5716 C   0  0  2  0  0  0  0  0  0  0  0  0
    3.5900   -2.0405    4.8280 O   0  0  0  0  0  0  0  0  0  0  0  0
    1.7673   -2.4797    3.4617 C   0  0  0  0  0  0  0  0  0  0  0  0
    1.2769   -1.0885    3.0218 C   0  0  1  0  0  0  0  0  0  0  0  0
    1.2741    0.0013    4.1099 C   0  0  0  0  0  0  0  0  0  0  0  0
    2.1007   -0.6614    1.8023 C   0  0  1  0  0  0  0  0  0  0  0  0
    1.6320    0.5473    1.2736 O   0  0  0  0  0  0  0  0  0  0  0  0
    3.4425   -0.5931    2.1777 O   0  0  0  0  0  0  0  0  0  0  0  0
    4.1104   -1.8183    2.4856 C   0  0  2  0  0  0  0  0  0  0  0  0
    4.5478   -2.5223    1.1417 C   0  0  1  0  0  0  0  0  0  0  0  0
    5.6457   -1.8091    0.5931 O   0  0  0  0  0  0  0  0  0  0  0  0
    4.8897   -4.0522    1.1813 C   0  0  1  0  0  0  0  0  0  0  0  0
    4.9552   -4.6571   -0.2395 C   0  0  0  0  0  0  0  0  0  0  0  0
    6.2177   -4.2313    1.6338 O   0  0  0  0  0  0  0  0  0  0  0  0
    3.8842   -4.7473    2.1447 C   0  0  2  0  0  0  0  0  0  0  0  0
    2.6701   -4.5828    1.4451 O   0  0  0  0  0  0  0  0  0  0  0  0
    3.9385   -6.2010    2.7275 C   0  0  1  0  0  0  0  0  0  0  0  0
    5.2503   -6.7119    2.9016 O   0  0  0  0  0  0  0  0  0  0  0  0
    3.1614   -7.4338    2.1832 C   0  0  2  0  0  0  0  0  0  0  0  0
    3.9144   -8.2525    1.1358 C   0  0  0  0  0  0  0  0  0  0  0  0
    1.6759   -7.3681    1.8972 C   0  0  0  0  0  0  0  0  0  0  0  0
    0.7416   -7.0189    1.1721 O   0  0  0  0  0  0  0  0  0  0  0  0
    2.1471   -8.0552    3.1383 C   0  0  1  0  0  0  0  0  0  0  0  0
    2.0768   -9.4518    2.9818 O   0  0  0  0  0  0  0  0  0  0  0  0
    1.7652   -7.5046    4.5364 C   0  0  2  0  0  0  0  0  0  0  0  0
    2.5582   -8.2459    5.6420 C   0  0  0  0  0  0  0  0  0  0  0  0
   -0.0904   -9.1456    6.1820 H   0  0  0  0  0  0  0  0  0  0  0  0
   -0.1684   -9.7235    4.5183 H   0  0  0  0  0  0  0  0  0  0  0  0
   -1.4974   -8.7666    5.1931 H   0  0  0  0  0  0  0  0  0  0  0  0
   -1.4228   -6.3081    4.4853 H   0  0  0  0  0  0  0  0  0  0  0  0
    0.6048   -5.2303    3.0002 H   0  0  0  0  0  0  0  0  0  0  0  0
    0.2855   -4.4635    4.5713 H   0  0  0  0  0  0  0  0  0  0  0  0
    1.2357   -5.8499    6.3843 H   0  0  0  0  0  0  0  0  0  0  0  0
    4.0122   -5.8675    4.7717 H   0  0  0  0  0  0  0  0  0  0  0  0
    5.8291   -3.1218    3.9587 H   0  0  0  0  0  0  0  0  0  0  0  0
    5.9365   -4.8278    4.2232 H   0  0  0  0  0  0  0  0  0  0  0  0
    5.1580   -3.8316    5.3981 H   0  0  0  0  0  0  0  0  0  0  0  0
    3.1088   -2.4899    5.5067 H   0  0  0  0  0  0  0  0  0  0  0  0
    1.3166   -3.1661    2.7586 H   0  0  0  0  0  0  0  0  0  0  0  0
    1.3068   -2.6703    4.4270 H   0  0  0  0  0  0  0  0  0  0  0  0
    0.2455   -1.1835    2.6844 H   0  0  0  0  0  0  0  0  0  0  0  0
    2.2816    0.2649    4.4318 H   0  0  0  0  0  0  0  0  0  0  0  0
    0.7138   -0.3294    4.9829 H   0  0  0  0  0  0  0  0  0  0  0  0
    0.7933    0.9127    3.7504 H   0  0  0  0  0  0  0  0  0  0  0  0
    1.9726   -1.3846    0.9938 H   0  0  0  0  0  0  0  0  0  0  0  0
    1.1262    0.3135    0.4950 H   0  0  0  0  0  0  0  0  0  0  0  0
    5.0353   -1.4788    2.9542 H   0  0  0  0  0  0  0  0  0  0  0  0
    3.7352   -2.4319    0.4255 H   0  0  0  0  0  0  0  0  0  0  0  0
    6.3370   -1.8053    1.2390 H   0  0  0  0  0  0  0  0  0  0  0  0
    4.0159   -4.5616   -0.7834 H   0  0  0  0  0  0  0  0  0  0  0  0
    5.2577   -5.7042   -0.2380 H   0  0  0  0  0  0  0  0  0  0  0  0
    5.7039   -4.1220   -0.8202 H   0  0  0  0  0  0  0  0  0  0  0  0
    6.3551   -5.1630    1.7464 H   0  0  0  0  0  0  0  0  0  0  0  0
    2.8416   -4.8459    0.5556 H   0  0  0  0  0  0  0  0  0  0  0  0
    5.1709   -7.4787    3.4477 H   0  0  0  0  0  0  0  0  0  0  0  0
    4.6539   -8.9011    1.5986 H   0  0  0  0  0  0  0  0  0  0  0  0
    4.4079   -7.5969    0.4241 H   0  0  0  0  0  0  0  0  0  0  0  0
    3.2338   -8.8925    0.5822 H   0  0  0  0  0  0  0  0  0  0  0  0
    2.8873   -9.8250    3.2917 H   0  0  0  0  0  0  0  0  0  0  0  0
    3.6269   -8.1110    5.5073 H   0  0  0  0  0  0  0  0  0  0  0  0
    2.3627   -9.3173    5.6201 H   0  0  0  0  0  0  0  0  0  0  0  0
    2.2979   -7.9061    6.6424 H   0  0  0  0  0  0  0  0  0  0  0  0
  1  2  1  0
  1 36  1  0
  1 37  1  0
  1 38  1  0
  2 34  1  0
  2  3  2  0
  3  4  1  0
  3 39  1  0
  4  5  1  0
  4 40  1  0
  4 41  1  0
  5 34  1  0
  5  6  1  1
  5  7  1  0
  6 42  1  0
  7 26  1  0
  7  8  1  0
  7 43  1  1
  8 24  1  0
  8  9  1  1
  8 10  1  0
  9 44  1  0
  9 45  1  0
  9 46  1  0
 10 18  1  0
 10 11  1  1
 10 12  1  0
 11 47  1  0
 12 13  1  0
 12 48  1  0
 12 49  1  0
 13 14  1  0
 13 15  1  0
 13 50  1  6
 14 51  1  0
 14 52  1  0
 14 53  1  0
 15 16  1  0
 15 17  1  0
 15 54  1  6
 16 55  1  0
 17 18  1  0
 18 19  1  0
 18 56  1  1
 19 20  1  0
 19 21  1  0
 19 57  1  6
 20 58  1  0
 21 22  1  0
 21 23  1  1
 21 24  1  0
 22 59  1  0
 22 60  1  0
 22 61  1  0
 23 62  1  0
 24 25  1  6
 24 26  1  0
 25 63  1  0
 26 27  1  1
 26 28  1  0
 27 64  1  0
 28 32  1  0
 28 29  1  6
 28 30  1  0
 29 65  1  0
 29 66  1  0
 29 67  1  0
 30 31  2  0
 30 32  1  0
 32 33  1  6
 32 34  1  0
 33 68  1  0
 34 35  1  1
 35 69  1  0
 35 70  1  0
 35 71  1  0
M  END
>  <i_m_ct_stereo_status>  (453) 
1

>  <s_m_source_file>  (453) 
/var/tmp/pbs.5076255.sched01/tmp1cu33jom/138ve8n868x.sdf

>  <i_m_source_file_index>  (453) 
38

>  <i_lp_mmshare_version>  (453) 
48012

>  <i_f3d_flags>  (453) 
0

>  <s_epik_input>  (453) 
W0NIMl0xW0NIXT1DKFtDSDNdKVtDQEBdMihbQ0gzXSlDKEMzPU8pKFtPSF0pQzMoW0NIM10pW0NAQF00KFtPSF0pW0NAXTUoW09IXSlbQ0BdKFtDSDNdKShbT0hdKVtDQEhdKFtPSF0pW0NAQEhdKE9bQ0BIXShbT0hdKVtDQEBIXShbQ0gyXTYpW0NIM10pW0NAXTYoW09IXSlbQ0BAXTUoW0NIM10pW0NASF00W0NAQF0xMltPSF0=

>  <s_epik_cmdline>  (453) 
J2VwaWtfcHl0aG9uJywgJy1waHQnLCAnMi4wJywgJy1waCcsICc3LjAnLCAnLXRuJywgJzgnLCAnLW1hJywgJzIwMCcsICctaW1hZScsICc8aW5maWxlLm1hZT4nLCAnLW9tYWUnLCAnPG91dGZpbGUubWFlPic=

>  <r_lp_tautomer_probability>  (453) 
1

>  <r_epik_Ionization_Penalty>  (453) 
2.93296e-07

>  <r_epik_Ionization_Penalty_Charging>  (453) 
0

>  <r_epik_Ionization_Penalty_Neutral>  (453) 
2.93296e-07

>  <r_epik_State_Penalty>  (453) 
-0

>  <r_epik_Charging_Adjusted_Penalty>  (453) 
0

>  <i_epik_Tot_Q>  (453) 
0

>  <i_epik_Tot_abs_Q>  (453) 
0

>  <s_epik_Chemistry_Notes>  (453) 
This compound contains an acetal/aminal-like group ( X-CH(R)-Y where X, Y are N, S, or O) that may be acid/base labile, releasing an aldehyde.

>  <s_lp_Force_Field>  (453) 
OPLS3e

>  <r_lp_Energy>  (453) 
102.983

>  <b_lp_Chiralities_Consistent>  (453) 
1

>  <s_lp_Variant>  (453) 
116:0-4

>  <s_i_glide_gridfile>  (453) 
pfpi4k_grid

>  <i_i_glide_lignum>  (453) 
38

>  <i_i_glide_rotatable_bonds>  (453) 
8

>  <r_i_docking_score>  (453) 
-2.66868

>  <r_i_glide_ligand_efficiency>  (453) 
-0.0762481

>  <r_i_glide_ligand_efficiency_sa>  (453) 
-0.249413

>  <r_i_glide_ligand_efficiency_ln>  (453) 
-0.585836

>  <r_i_glide_gscore>  (453) 
-2.66868

>  <r_i_glide_lipo>  (453) 
-0.119928

>  <r_i_glide_hbond>  (453) 
0

>  <r_i_glide_metal>  (453) 
-0

>  <r_i_glide_rewards>  (453) 
-0.523541

>  <r_i_glide_evdw>  (453) 
-23.5091

>  <r_i_glide_ecoul>  (453) 
-5.02486

>  <r_i_glide_erotb>  (453) 
0

>  <r_i_glide_esite>  (453) 
-0.0960324

>  <r_i_glide_emodel>  (453) 
-37.4687

>  <r_i_glide_energy>  (453) 
-28.534

>  <r_i_glide_einternal>  (453) 
3.67198

>  <r_i_glide_intrahb_reward>  (453) 
-0.5

>  <i_i_glide_confnum>  (453) 
2

>  <i_i_glide_posenum>  (453) 
17

>  <r_i_glide_eff_state_penalty>  (453) 
0

>  <ligand_id>  (453) 
116

>  <original_smiles>  (453) 
CC1=CCC2(O)C3C4(C)C5(O)CC(C)C(O)OC5C(O)C(C)(O)C4(O)C3(O)C3(C)C(=O)C3(O)C12C

>  <smiles>  (453) 
[H]OC1([H])OC2([H])C([H])(O[H])C(O[H])(C([H])([H])[H])C3(O[H])C4(O[H])C([H])(C5(O[H])C([H])([H])C([H])=C(C([H])([H])[H])C5(C([H])([H])[H])C5(O[H])C(=O)C54C([H])([H])[H])C3(C([H])([H])[H])C2(O[H])C([H])([H])C1([H])C([H])([H])[H]

$$$$
117:0:0
     RDKit          3D

 66 71  0  0  1  0  0  0  0  0999 V2000
    6.4088   -7.4321    2.1344 C   0  0  0  0  0  0  0  0  0  0  0  0
    5.7858   -6.0183    2.6571 C   0  0  1  0  0  0  0  0  0  0  0  0
    7.0305   -5.6920    3.4671 C   0  0  0  0  0  0  0  0  0  0  0  0
    8.1875   -5.4642    2.3621 C   0  0  0  0  0  0  0  0  0  0  0  0
    7.6992   -5.2351    0.8519 C   0  0  0  0  0  0  0  0  0  0  0  0
    6.5567   -4.1827    0.7918 C   0  0  2  0  0  0  0  0  0  0  0  0
    7.5296   -2.9236    0.8850 C   0  0  0  0  0  0  0  0  0  0  0  0
    5.5384   -4.4839    2.0535 C   0  0  2  0  0  0  0  0  0  0  0  0
    4.4288   -3.3608    2.7546 C   0  0  2  0  0  0  0  0  0  0  0  0
    4.2195   -3.6724    4.2958 C   0  0  0  0  0  0  0  0  0  0  0  0
    2.9036   -3.3338    2.1865 C   0  0  0  0  0  0  0  0  0  0  0  0
    2.8804   -3.3197    0.6640 C   0  0  1  0  0  0  0  0  0  0  0  0
    1.9263   -3.2229   -0.4018 O   0  0  0  0  0  0  0  0  0  0  0  0
    2.9557   -2.5672   -1.2393 C   0  0  2  0  0  0  0  0  0  0  0  0
    3.8053   -3.3662   -2.3350 C   0  0  0  0  0  0  0  0  0  0  0  0
    5.2959   -3.7656   -1.9197 C   0  0  0  0  0  0  0  0  0  0  0  0
    6.2273   -3.5625   -2.6872 O   0  0  0  0  0  0  0  0  0  0  0  0
    5.4615   -4.1472   -0.4029 C   0  0  1  0  0  0  0  0  0  0  0  0
    4.6062   -5.5636   -0.5802 C   0  0  0  0  0  0  0  0  0  0  0  0
    4.2878   -6.8463    0.3079 C   0  0  0  0  0  0  0  0  0  0  0  0
    4.6186   -7.9251   -0.1985 O   0  0  0  0  0  0  0  0  0  0  0  0
    3.5213   -6.9945    1.6857 C   0  0  1  0  0  0  0  0  0  0  0  0
    2.3005   -6.2976    1.5918 O   0  0  0  0  0  0  0  0  0  0  0  0
    3.0328   -8.4771    1.8486 C   0  0  0  0  0  0  0  0  0  0  0  0
    2.3256   -8.6792    3.0515 O   0  0  0  0  0  0  0  0  0  0  0  0
    4.3563   -6.5808    2.9935 C   0  0  0  0  0  0  0  0  0  0  0  0
    5.0640   -2.5992   -0.1815 C   0  0  0  0  0  0  0  0  0  0  0  0
    3.6887   -2.2736    0.0284 C   0  0  2  0  0  0  0  0  0  0  0  0
    3.5564   -0.9471    0.7849 C   0  0  0  0  0  0  0  0  0  0  0  0
    4.3087   -0.8614    2.0147 O   0  0  0  0  0  0  0  0  0  0  0  0
    4.8560   -1.8393    2.8425 C   0  0  0  0  0  0  0  0  0  0  0  0
    5.6839   -1.4934    3.6675 O   0  0  0  0  0  0  0  0  0  0  0  0
    5.8315   -8.2976    2.4410 H   0  0  0  0  0  0  0  0  0  0  0  0
    7.3641   -7.7479    2.5522 H   0  0  0  0  0  0  0  0  0  0  0  0
    6.5618   -7.6041    1.0810 H   0  0  0  0  0  0  0  0  0  0  0  0
    6.7610   -4.8282    4.0435 H   0  0  0  0  0  0  0  0  0  0  0  0
    7.3000   -6.4332    4.2190 H   0  0  0  0  0  0  0  0  0  0  0  0
    8.9161   -4.7265    2.6638 H   0  0  0  0  0  0  0  0  0  0  0  0
    8.8560   -6.3308    2.3512 H   0  0  0  0  0  0  0  0  0  0  0  0
    8.5654   -4.9260    0.2638 H   0  0  0  0  0  0  0  0  0  0  0  0
    7.4582   -6.1053    0.2564 H   0  0  0  0  0  0  0  0  0  0  0  0
    7.1802   -2.1889    1.6068 H   0  0  0  0  0  0  0  0  0  0  0  0
    7.6883   -2.4420   -0.0876 H   0  0  0  0  0  0  0  0  0  0  0  0
    8.5262   -3.1210    1.2596 H   0  0  0  0  0  0  0  0  0  0  0  0
    4.6692   -4.7835    1.5838 H   0  0  0  0  0  0  0  0  0  0  0  0
    3.2955   -4.2105    4.5168 H   0  0  0  0  0  0  0  0  0  0  0  0
    4.1140   -2.7852    4.9283 H   0  0  0  0  0  0  0  0  0  0  0  0
    5.0164   -4.2463    4.7679 H   0  0  0  0  0  0  0  0  0  0  0  0
    2.3112   -4.1495    2.5894 H   0  0  0  0  0  0  0  0  0  0  0  0
    2.3843   -2.4686    2.5884 H   0  0  0  0  0  0  0  0  0  0  0  0
    3.1179   -4.3078    0.5188 H   0  0  0  0  0  0  0  0  0  0  0  0
    2.6223   -1.6014   -1.6317 H   0  0  0  0  0  0  0  0  0  0  0  0
    3.2349   -4.2005   -2.7571 H   0  0  0  0  0  0  0  0  0  0  0  0
    3.9430   -2.6974   -3.1849 H   0  0  0  0  0  0  0  0  0  0  0  0
    3.6448   -5.2907   -0.9359 H   0  0  0  0  0  0  0  0  0  0  0  0
    5.0081   -6.0483   -1.4657 H   0  0  0  0  0  0  0  0  0  0  0  0
    2.5064   -5.3774    1.5024 H   0  0  0  0  0  0  0  0  0  0  0  0
    2.4005   -8.7777    1.0118 H   0  0  0  0  0  0  0  0  0  0  0  0
    3.8623   -9.1844    1.8426 H   0  0  0  0  0  0  0  0  0  0  0  0
    2.0654   -9.5953    3.0818 H   0  0  0  0  0  0  0  0  0  0  0  0
    4.4619   -7.4227    3.6806 H   0  0  0  0  0  0  0  0  0  0  0  0
    3.7329   -5.9146    3.5584 H   0  0  0  0  0  0  0  0  0  0  0  0
    5.5412   -2.0809    0.5736 H   0  0  0  0  0  0  0  0  0  0  0  0
    5.4979   -1.8479   -0.8718 H   0  0  0  0  0  0  0  0  0  0  0  0
    3.8753   -0.1053    0.1666 H   0  0  0  0  0  0  0  0  0  0  0  0
    2.5133   -0.7662    1.0407 H   0  0  0  0  0  0  0  0  0  0  0  0
  2  1  1  6
  1 33  1  0
  1 34  1  0
  1 35  1  0
  2  8  1  0
  2 26  1  0
  2  3  1  0
  3  4  1  0
  3 36  1  0
  3 37  1  0
  4  5  1  0
  4 38  1  0
  4 39  1  0
  5  6  1  0
  5 40  1  0
  5 41  1  0
  6 18  1  0
  6  7  1  1
  6  8  1  0
  7 42  1  0
  7 43  1  0
  7 44  1  0
  8  9  1  0
  8 45  1  6
  9 31  1  0
  9 10  1  1
  9 11  1  0
 10 46  1  0
 10 47  1  0
 10 48  1  0
 11 12  1  0
 11 49  1  0
 11 50  1  0
 12 28  1  0
 12 13  1  0
 12 51  1  6
 13 14  1  0
 14 28  1  0
 14 15  1  0
 14 52  1  6
 15 16  1  0
 15 53  1  0
 15 54  1  0
 16 17  2  0
 16 18  1  0
 18 19  1  1
 18 27  1  0
 19 20  1  0
 19 55  1  0
 19 56  1  0
 20 21  2  0
 20 22  1  0
 22 23  1  6
 22 24  1  0
 22 26  1  0
 23 57  1  0
 24 25  1  0
 24 58  1  0
 24 59  1  0
 25 60  1  0
 26 61  1  0
 26 62  1  0
 27 28  1  0
 27 63  1  0
 27 64  1  0
 28 29  1  1
 29 30  1  0
 29 65  1  0
 29 66  1  0
 30 31  1  0
 31 32  2  0
M  END
>  <i_m_ct_stereo_status>  (454) 
1

>  <s_m_source_file>  (454) 
/var/tmp/pbs.5076255.sched01/tmp1cu33jom/138ve8n868x.sdf

>  <i_m_source_file_index>  (454) 
39

>  <i_lp_mmshare_version>  (454) 
48012

>  <i_f3d_flags>  (454) 
0

>  <s_epik_input>  (454) 
W0NIMl0xQyg9TylbQ0BAXShbT0hdKShbQ0gyXVtPSF0pW0NIMl1bQ0BdKFtDSDNdKShbQ0gyXVtDSDJdW0NIMl0yKVtDQEhdKEMyKFtDQF0xMzQpW0NIM10pW0NAXTUoW0NIM10pW0NIMl1bQ0hdNltDQEBdKFtDSDJdNCkoW0NASF0oTzYpW0NIMl1DMz1PKVtDSDJdT0M1PU8=

>  <s_epik_cmdline>  (454) 
J2VwaWtfcHl0aG9uJywgJy1waHQnLCAnMi4wJywgJy1waCcsICc3LjAnLCAnLXRuJywgJzgnLCAnLW1hJywgJzIwMCcsICctaW1hZScsICc8aW5maWxlLm1hZT4nLCAnLW9tYWUnLCAnPG91dGZpbGUubWFlPic=

>  <r_lp_tautomer_probability>  (454) 
1

>  <r_epik_Ionization_Penalty>  (454) 
8.14173e-08

>  <r_epik_Ionization_Penalty_Charging>  (454) 
0

>  <r_epik_Ionization_Penalty_Neutral>  (454) 
8.14173e-08

>  <r_epik_State_Penalty>  (454) 
-0

>  <r_epik_Charging_Adjusted_Penalty>  (454) 
0

>  <i_epik_Tot_Q>  (454) 
0

>  <i_epik_Tot_abs_Q>  (454) 
0

>  <s_epik_Chemistry_Notes>  (454) 
This compound has an ester and may undergo hydrolysis at high or low pH.

>  <s_lp_Force_Field>  (454) 
OPLS3e

>  <r_lp_Energy>  (454) 
401.398

>  <b_lp_Chiralities_Consistent>  (454) 
1

>  <s_lp_Variant>  (454) 
117:0-1

>  <s_i_glide_gridfile>  (454) 
pfpi4k_grid

>  <i_i_glide_lignum>  (454) 
39

>  <i_i_glide_rotatable_bonds>  (454) 
3

>  <r_i_docking_score>  (454) 
-1.98041

>  <r_i_glide_ligand_efficiency>  (454) 
-0.0618879

>  <r_i_glide_ligand_efficiency_sa>  (454) 
-0.196482

>  <r_i_glide_ligand_efficiency_ln>  (454) 
-0.443468

>  <r_i_glide_gscore>  (454) 
-1.98041

>  <r_i_glide_lipo>  (454) 
-0.542683

>  <r_i_glide_hbond>  (454) 
-0.053168

>  <r_i_glide_metal>  (454) 
-0

>  <r_i_glide_rewards>  (454) 
-0.696208

>  <r_i_glide_evdw>  (454) 
-1.99632

>  <r_i_glide_ecoul>  (454) 
-4.59285

>  <r_i_glide_erotb>  (454) 
0.100391

>  <r_i_glide_esite>  (454) 
0

>  <r_i_glide_emodel>  (454) 
-2.37708

>  <r_i_glide_energy>  (454) 
-6.58917

>  <r_i_glide_einternal>  (454) 
9.54581

>  <r_i_glide_intrahb_reward>  (454) 
-0

>  <i_i_glide_confnum>  (454) 
5

>  <i_i_glide_posenum>  (454) 
4

>  <r_i_glide_eff_state_penalty>  (454) 
0

>  <ligand_id>  (454) 
117

>  <original_smiles>  (454) 
CC12CCCC3(C)C1C1(C)CC4OC5CC(=O)C3(CC(=O)C(O)(CO)C2)CC54COC1=O

>  <smiles>  (454) 
[H]OC([H])([H])C1(O[H])C(=O)C([H])([H])C23C(=O)C([H])([H])C4([H])OC5([H])C([H])([H])C(C([H])([H])[H])(C(=O)OC([H])([H])C45C2([H])[H])C2([H])C(C([H])([H])[H])(C([H])([H])C([H])([H])C([H])([H])C23C([H])([H])[H])C1([H])[H]

$$$$
117:0:1
     RDKit          3D

 66 71  0  0  1  0  0  0  0  0999 V2000
    6.4451   -7.4458    2.1382 C   0  0  0  0  0  0  0  0  0  0  0  0
    5.8170   -6.0388    2.6766 C   0  0  1  0  0  0  0  0  0  0  0  0
    7.0679   -5.7096    3.4733 C   0  0  0  0  0  0  0  0  0  0  0  0
    8.2136   -5.4592    2.3637 C   0  0  0  0  0  0  0  0  0  0  0  0
    7.7097   -5.2350    0.8539 C   0  0  0  0  0  0  0  0  0  0  0  0
    6.5625   -4.1909    0.8119 C   0  0  2  0  0  0  0  0  0  0  0  0
    7.5168   -2.9232    0.8892 C   0  0  0  0  0  0  0  0  0  0  0  0
    5.5551   -4.5030    2.0756 C   0  0  2  0  0  0  0  0  0  0  0  0
    4.4349   -3.3856    2.7862 C   0  0  2  0  0  0  0  0  0  0  0  0
    4.2437   -3.7061    4.3278 C   0  0  0  0  0  0  0  0  0  0  0  0
    2.9077   -3.3754    2.2288 C   0  0  0  0  0  0  0  0  0  0  0  0
    2.8669   -3.3650    0.7067 C   0  0  1  0  0  0  0  0  0  0  0  0
    1.9090   -3.2611   -0.3525 O   0  0  0  0  0  0  0  0  0  0  0  0
    2.9286   -2.5990   -1.1888 C   0  0  2  0  0  0  0  0  0  0  0  0
    3.7693   -3.3941   -2.2926 C   0  0  0  0  0  0  0  0  0  0  0  0
    5.2849   -3.7777   -1.8975 C   0  0  0  0  0  0  0  0  0  0  0  0
    6.1983   -3.5741   -2.6781 O   0  0  0  0  0  0  0  0  0  0  0  0
    5.4498   -4.1636   -0.3841 C   0  0  1  0  0  0  0  0  0  0  0  0
    4.6084   -5.5785   -0.5524 C   0  0  0  0  0  0  0  0  0  0  0  0
    4.3003   -6.8732    0.3405 C   0  0  0  0  0  0  0  0  0  0  0  0
    4.6118   -7.9422   -0.1602 O   0  0  0  0  0  0  0  0  0  0  0  0
    3.5584   -7.0180    1.7221 C   0  0  1  0  0  0  0  0  0  0  0  0
    2.3230   -6.3432    1.6897 O   0  0  0  0  0  0  0  0  0  0  0  0
    3.0709   -8.4976    1.8780 C   0  0  0  0  0  0  0  0  0  0  0  0
    2.3240   -8.6805    3.0626 O   0  0  0  0  0  0  0  0  0  0  0  0
    4.3979   -6.6088    3.0268 C   0  0  0  0  0  0  0  0  0  0  0  0
    5.0455   -2.6138   -0.1492 C   0  0  0  0  0  0  0  0  0  0  0  0
    3.6656   -2.3105    0.0731 C   0  0  2  0  0  0  0  0  0  0  0  0
    3.5272   -0.9825    0.8288 C   0  0  0  0  0  0  0  0  0  0  0  0
    4.2870   -0.8900    2.0550 O   0  0  0  0  0  0  0  0  0  0  0  0
    4.8486   -1.8606    2.8750 C   0  0  0  0  0  0  0  0  0  0  0  0
    5.6698   -1.5044    3.7051 O   0  0  0  0  0  0  0  0  0  0  0  0
    5.8779   -8.3164    2.4507 H   0  0  0  0  0  0  0  0  0  0  0  0
    7.4081   -7.7566    2.5431 H   0  0  0  0  0  0  0  0  0  0  0  0
    6.5884   -7.6115    1.0843 H   0  0  0  0  0  0  0  0  0  0  0  0
    6.7995   -4.8576    4.0675 H   0  0  0  0  0  0  0  0  0  0  0  0
    7.3465   -6.4594    4.2141 H   0  0  0  0  0  0  0  0  0  0  0  0
    8.9137   -4.6834    2.6552 H   0  0  0  0  0  0  0  0  0  0  0  0
    8.8908   -6.3176    2.3376 H   0  0  0  0  0  0  0  0  0  0  0  0
    8.5669   -4.9168    0.2575 H   0  0  0  0  0  0  0  0  0  0  0  0
    7.4703   -6.1031    0.2590 H   0  0  0  0  0  0  0  0  0  0  0  0
    7.1745   -2.1851    1.6175 H   0  0  0  0  0  0  0  0  0  0  0  0
    7.6682   -2.4491   -0.0908 H   0  0  0  0  0  0  0  0  0  0  0  0
    8.5182   -3.1073    1.2626 H   0  0  0  0  0  0  0  0  0  0  0  0
    4.6788   -4.8031    1.6185 H   0  0  0  0  0  0  0  0  0  0  0  0
    3.3216   -4.2517    4.5563 H   0  0  0  0  0  0  0  0  0  0  0  0
    4.1350   -2.8206    4.9667 H   0  0  0  0  0  0  0  0  0  0  0  0
    5.0503   -4.2762    4.7937 H   0  0  0  0  0  0  0  0  0  0  0  0
    2.3284   -4.2036    2.6297 H   0  0  0  0  0  0  0  0  0  0  0  0
    2.3792   -2.5179    2.6394 H   0  0  0  0  0  0  0  0  0  0  0  0
    3.1045   -4.3593    0.5786 H   0  0  0  0  0  0  0  0  0  0  0  0
    2.6180   -1.6288   -1.5786 H   0  0  0  0  0  0  0  0  0  0  0  0
    3.2041   -4.2448   -2.6816 H   0  0  0  0  0  0  0  0  0  0  0  0
    3.8932   -2.7270   -3.1415 H   0  0  0  0  0  0  0  0  0  0  0  0
    3.6305   -5.3293   -0.8873 H   0  0  0  0  0  0  0  0  0  0  0  0
    5.0106   -6.0703   -1.4368 H   0  0  0  0  0  0  0  0  0  0  0  0
    1.8563   -6.6318    2.4573 H   0  0  0  0  0  0  0  0  0  0  0  0
    2.4524   -8.8134    1.0363 H   0  0  0  0  0  0  0  0  0  0  0  0
    3.9018   -9.2040    1.8910 H   0  0  0  0  0  0  0  0  0  0  0  0
    2.1243   -9.6003    3.1266 H   0  0  0  0  0  0  0  0  0  0  0  0
    4.5086   -7.4541    3.7034 H   0  0  0  0  0  0  0  0  0  0  0  0
    3.7786   -5.9464    3.5953 H   0  0  0  0  0  0  0  0  0  0  0  0
    5.5220   -2.0941    0.5963 H   0  0  0  0  0  0  0  0  0  0  0  0
    5.4639   -1.8625   -0.8430 H   0  0  0  0  0  0  0  0  0  0  0  0
    3.8364   -0.1373    0.2072 H   0  0  0  0  0  0  0  0  0  0  0  0
    2.4836   -0.8121    1.0915 H   0  0  0  0  0  0  0  0  0  0  0  0
  2  1  1  6
  1 33  1  0
  1 34  1  0
  1 35  1  0
  2  8  1  0
  2 26  1  0
  2  3  1  0
  3  4  1  0
  3 36  1  0
  3 37  1  0
  4  5  1  0
  4 38  1  0
  4 39  1  0
  5  6  1  0
  5 40  1  0
  5 41  1  0
  6 18  1  0
  6  7  1  1
  6  8  1  0
  7 42  1  0
  7 43  1  0
  7 44  1  0
  8  9  1  0
  8 45  1  6
  9 31  1  0
  9 10  1  1
  9 11  1  0
 10 46  1  0
 10 47  1  0
 10 48  1  0
 11 12  1  0
 11 49  1  0
 11 50  1  0
 12 28  1  0
 12 13  1  0
 12 51  1  6
 13 14  1  0
 14 28  1  0
 14 15  1  0
 14 52  1  6
 15 16  1  0
 15 53  1  0
 15 54  1  0
 16 17  2  0
 16 18  1  0
 18 19  1  1
 18 27  1  0
 19 20  1  0
 19 55  1  0
 19 56  1  0
 20 21  2  0
 20 22  1  0
 22 23  1  6
 22 24  1  0
 22 26  1  0
 23 57  1  0
 24 25  1  0
 24 58  1  0
 24 59  1  0
 25 60  1  0
 26 61  1  0
 26 62  1  0
 27 28  1  0
 27 63  1  0
 27 64  1  0
 28 29  1  1
 29 30  1  0
 29 65  1  0
 29 66  1  0
 30 31  1  0
 31 32  2  0
M  END
>  <i_m_ct_stereo_status>  (455) 
1

>  <s_m_source_file>  (455) 
/var/tmp/pbs.5076255.sched01/tmp1cu33jom/138ve8n868x.sdf

>  <i_m_source_file_index>  (455) 
39

>  <i_lp_mmshare_version>  (455) 
48012

>  <i_f3d_flags>  (455) 
0

>  <s_epik_input>  (455) 
W0NIMl0xQyg9TylbQ0BAXShbT0hdKShbQ0gyXVtPSF0pW0NIMl1bQ0BdKFtDSDNdKShbQ0gyXVtDSDJdW0NIMl0yKVtDQEhdKEMyKFtDQF0xMzQpW0NIM10pW0NAXTUoW0NIM10pW0NIMl1bQ0hdNltDQEBdKFtDSDJdNCkoW0NASF0oTzYpW0NIMl1DMz1PKVtDSDJdT0M1PU8=

>  <s_epik_cmdline>  (455) 
J2VwaWtfcHl0aG9uJywgJy1waHQnLCAnMi4wJywgJy1waCcsICc3LjAnLCAnLXRuJywgJzgnLCAnLW1hJywgJzIwMCcsICctaW1hZScsICc8aW5maWxlLm1hZT4nLCAnLW9tYWUnLCAnPG91dGZpbGUubWFlPic=

>  <r_lp_tautomer_probability>  (455) 
1

>  <r_epik_Ionization_Penalty>  (455) 
8.14173e-08

>  <r_epik_Ionization_Penalty_Charging>  (455) 
0

>  <r_epik_Ionization_Penalty_Neutral>  (455) 
8.14173e-08

>  <r_epik_State_Penalty>  (455) 
-0

>  <r_epik_Charging_Adjusted_Penalty>  (455) 
0

>  <i_epik_Tot_Q>  (455) 
0

>  <i_epik_Tot_abs_Q>  (455) 
0

>  <s_epik_Chemistry_Notes>  (455) 
This compound has an ester and may undergo hydrolysis at high or low pH.

>  <s_lp_Force_Field>  (455) 
OPLS3e

>  <r_lp_Energy>  (455) 
401.398

>  <b_lp_Chiralities_Consistent>  (455) 
1

>  <s_lp_Variant>  (455) 
117:0-1

>  <s_i_glide_gridfile>  (455) 
pfpi4k_grid

>  <i_i_glide_lignum>  (455) 
39

>  <i_i_glide_rotatable_bonds>  (455) 
3

>  <r_i_docking_score>  (455) 
-1.94562

>  <r_i_glide_ligand_efficiency>  (455) 
-0.0608007

>  <r_i_glide_ligand_efficiency_sa>  (455) 
-0.19303

>  <r_i_glide_ligand_efficiency_ln>  (455) 
-0.435678

>  <r_i_glide_gscore>  (455) 
-1.94562

>  <r_i_glide_lipo>  (455) 
-0.539773

>  <r_i_glide_hbond>  (455) 
-0.0478713

>  <r_i_glide_metal>  (455) 
-0

>  <r_i_glide_rewards>  (455) 
-0.696184

>  <r_i_glide_evdw>  (455) 
-2.12541

>  <r_i_glide_ecoul>  (455) 
-4.37276

>  <r_i_glide_erotb>  (455) 
0.100391

>  <r_i_glide_esite>  (455) 
0

>  <r_i_glide_emodel>  (455) 
-3.18924

>  <r_i_glide_energy>  (455) 
-6.49816

>  <r_i_glide_einternal>  (455) 
7.95465

>  <r_i_glide_intrahb_reward>  (455) 
-0

>  <i_i_glide_confnum>  (455) 
6

>  <i_i_glide_posenum>  (455) 
40

>  <r_i_glide_eff_state_penalty>  (455) 
0

>  <ligand_id>  (455) 
117

>  <original_smiles>  (455) 
CC12CCCC3(C)C1C1(C)CC4OC5CC(=O)C3(CC(=O)C(O)(CO)C2)CC54COC1=O

>  <smiles>  (455) 
[H]OC([H])([H])C1(O[H])C(=O)C([H])([H])C23C(=O)C([H])([H])C4([H])OC5([H])C([H])([H])C(C([H])([H])[H])(C(=O)OC([H])([H])C45C2([H])[H])C2([H])C(C([H])([H])[H])(C([H])([H])C([H])([H])C([H])([H])C23C([H])([H])[H])C1([H])[H]

$$$$
117:1:0
     RDKit          3D

 66 71  0  0  1  0  0  0  0  0999 V2000
    4.8495   -1.9583    4.3665 C   0  0  0  0  0  0  0  0  0  0  0  0
    3.2968   -2.0015    4.6546 C   0  0  1  0  0  0  0  0  0  0  0  0
    3.3553   -2.5443    6.1242 C   0  0  0  0  0  0  0  0  0  0  0  0
    3.8462   -1.4056    7.1206 C   0  0  0  0  0  0  0  0  0  0  0  0
    3.3075    0.0684    6.8939 C   0  0  0  0  0  0  0  0  0  0  0  0
    3.1776    0.4403    5.3492 C   0  0  1  0  0  0  0  0  0  0  0  0
    4.6765    0.8151    5.0539 C   0  0  0  0  0  0  0  0  0  0  0  0
    2.2749   -0.8408    4.9014 C   0  0  2  0  0  0  0  0  0  0  0  0
    0.6089   -1.1675    5.2285 C   0  0  2  0  0  0  0  0  0  0  0  0
    0.2042   -2.6907    5.0807 C   0  0  0  0  0  0  0  0  0  0  0  0
   -0.5007   -0.5764    4.2111 C   0  0  0  0  0  0  0  0  0  0  0  0
   -0.2629    0.8609    3.8357 C   0  0  1  0  0  0  0  0  0  0  0  0
   -1.0464    1.8949    3.2146 O   0  0  0  0  0  0  0  0  0  0  0  0
   -0.2919    2.8742    4.0336 C   0  0  2  0  0  0  0  0  0  0  0  0
    1.0751    3.5877    3.5468 C   0  0  0  0  0  0  0  0  0  0  0  0
    2.4425    3.0846    4.2138 C   0  0  0  0  0  0  0  0  0  0  0  0
    3.3808    3.8364    4.4922 O   0  0  0  0  0  0  0  0  0  0  0  0
    2.4373    1.5590    4.4848 C   0  0  1  0  0  0  0  0  0  0  0  0
    2.6749    1.1945    2.8501 C   0  0  0  0  0  0  0  0  0  0  0  0
    3.4081   -0.0727    2.1975 C   0  0  0  0  0  0  0  0  0  0  0  0
    4.5383    0.1082    1.7430 O   0  0  0  0  0  0  0  0  0  0  0  0
    2.7792   -1.5307    2.0019 C   0  0  1  0  0  0  0  0  0  0  0  0
    1.4121   -1.3813    1.6861 O   0  0  0  0  0  0  0  0  0  0  0  0
    3.3650   -2.2513    0.7450 C   0  0  0  0  0  0  0  0  0  0  0  0
    3.4115   -1.4664   -0.4434 O   0  0  0  0  0  0  0  0  0  0  0  0
    2.8503   -2.5827    3.2534 C   0  0  0  0  0  0  0  0  0  0  0  0
    1.2753    1.8201    5.5343 C   0  0  0  0  0  0  0  0  0  0  0  0
   -0.0646    1.7456    5.0107 C   0  0  2  0  0  0  0  0  0  0  0  0
   -1.0507    1.4070    6.1342 C   0  0  0  0  0  0  0  0  0  0  0  0
   -0.6968    0.2704    6.9612 O   0  0  0  0  0  0  0  0  0  0  0  0
    0.1083   -0.8484    6.6879 C   0  0  0  0  0  0  0  0  0  0  0  0
    0.3876   -1.6200    7.6011 O   0  0  0  0  0  0  0  0  0  0  0  0
    5.2077   -2.9671    4.1608 H   0  0  0  0  0  0  0  0  0  0  0  0
    5.4952   -1.6781    5.1867 H   0  0  0  0  0  0  0  0  0  0  0  0
    5.1766   -1.3904    3.5093 H   0  0  0  0  0  0  0  0  0  0  0  0
    2.4083   -2.8575    6.5368 H   0  0  0  0  0  0  0  0  0  0  0  0
    3.9924   -3.4267    6.2083 H   0  0  0  0  0  0  0  0  0  0  0  0
    3.5810   -1.7063    8.1335 H   0  0  0  0  0  0  0  0  0  0  0  0
    4.9356   -1.3785    7.1551 H   0  0  0  0  0  0  0  0  0  0  0  0
    2.4040    0.0773    7.4891 H   0  0  0  0  0  0  0  0  0  0  0  0
    3.9456    0.7841    7.4144 H   0  0  0  0  0  0  0  0  0  0  0  0
    5.0198    0.7565    4.0338 H   0  0  0  0  0  0  0  0  0  0  0  0
    5.4041    0.2962    5.6704 H   0  0  0  0  0  0  0  0  0  0  0  0
    4.8464    1.8544    5.3312 H   0  0  0  0  0  0  0  0  0  0  0  0
    1.8710   -0.6282    3.9627 H   0  0  0  0  0  0  0  0  0  0  0  0
   -0.0407   -2.9832    4.0601 H   0  0  0  0  0  0  0  0  0  0  0  0
   -0.7097   -2.9311    5.6333 H   0  0  0  0  0  0  0  0  0  0  0  0
    0.9225   -3.4352    5.4029 H   0  0  0  0  0  0  0  0  0  0  0  0
   -0.5267   -1.1275    3.2799 H   0  0  0  0  0  0  0  0  0  0  0  0
   -1.5065   -0.7020    4.6176 H   0  0  0  0  0  0  0  0  0  0  0  0
    0.4855    0.7461    3.1126 H   0  0  0  0  0  0  0  0  0  0  0  0
   -0.9774    3.6062    4.4695 H   0  0  0  0  0  0  0  0  0  0  0  0
    1.1788    3.5318    2.4705 H   0  0  0  0  0  0  0  0  0  0  0  0
    1.0111    4.6538    3.7651 H   0  0  0  0  0  0  0  0  0  0  0  0
    1.8852    1.5053    2.1715 H   0  0  0  0  0  0  0  0  0  0  0  0
    3.4185    1.9234    2.5291 H   0  0  0  0  0  0  0  0  0  0  0  0
    1.3066   -1.0583    0.7815 H   0  0  0  0  0  0  0  0  0  0  0  0
    4.3678   -2.6182    0.9539 H   0  0  0  0  0  0  0  0  0  0  0  0
    2.7599   -3.1312    0.5224 H   0  0  0  0  0  0  0  0  0  0  0  0
    2.5271   -1.2140   -0.6852 H   0  0  0  0  0  0  0  0  0  0  0  0
    3.5050   -3.4098    2.9839 H   0  0  0  0  0  0  0  0  0  0  0  0
    1.9077   -3.1034    3.3253 H   0  0  0  0  0  0  0  0  0  0  0  0
    1.3361    1.2844    6.4386 H   0  0  0  0  0  0  0  0  0  0  0  0
    1.3374    2.7501    6.1216 H   0  0  0  0  0  0  0  0  0  0  0  0
   -1.1740    2.2634    6.7949 H   0  0  0  0  0  0  0  0  0  0  0  0
   -2.0415    1.2278    5.7134 H   0  0  0  0  0  0  0  0  0  0  0  0
  2  1  1  6
  1 33  1  0
  1 34  1  0
  1 35  1  0
  2  8  1  0
  2 26  1  0
  2  3  1  0
  3  4  1  0
  3 36  1  0
  3 37  1  0
  4  5  1  0
  4 38  1  0
  4 39  1  0
  5  6  1  0
  5 40  1  0
  5 41  1  0
  6 18  1  0
  6  7  1  6
  6  8  1  0
  7 42  1  0
  7 43  1  0
  7 44  1  0
  8  9  1  0
  8 45  1  6
  9 31  1  0
  9 10  1  1
  9 11  1  0
 10 46  1  0
 10 47  1  0
 10 48  1  0
 11 12  1  0
 11 49  1  0
 11 50  1  0
 12 28  1  0
 12 13  1  0
 12 51  1  6
 13 14  1  0
 14 28  1  0
 14 15  1  0
 14 52  1  1
 15 16  1  0
 15 53  1  0
 15 54  1  0
 16 17  2  0
 16 18  1  0
 18 19  1  6
 18 27  1  0
 19 20  1  0
 19 55  1  0
 19 56  1  0
 20 21  2  0
 20 22  1  0
 22 23  1  6
 22 24  1  0
 22 26  1  0
 23 57  1  0
 24 25  1  0
 24 58  1  0
 24 59  1  0
 25 60  1  0
 26 61  1  0
 26 62  1  0
 27 28  1  0
 27 63  1  0
 27 64  1  0
 28 29  1  1
 29 30  1  0
 29 65  1  0
 29 66  1  0
 30 31  1  0
 31 32  2  0
M  END
>  <i_m_ct_stereo_status>  (456) 
1

>  <s_m_source_file>  (456) 
/var/tmp/pbs.5076255.sched01/tmp1cu33jom/138ve8n868x.sdf

>  <i_m_source_file_index>  (456) 
40

>  <i_lp_mmshare_version>  (456) 
48012

>  <i_f3d_flags>  (456) 
0

>  <s_epik_input>  (456) 
W0NIMl0xQyg9TylbQ0BAXShbT0hdKShbQ0gyXVtPSF0pW0NIMl1bQ0BdKFtDSDNdKShbQ0gyXVtDSDJdW0NIMl0yKVtDQEhdKEMyKFtDQF0xMzQpW0NIM10pW0NAXTUoW0NIM10pW0NIMl1bQ0hdNltDQEBdKFtDSDJdNCkoW0NASF0oTzYpW0NIMl1DMz1PKVtDSDJdT0M1PU8=

>  <s_epik_cmdline>  (456) 
J2VwaWtfcHl0aG9uJywgJy1waHQnLCAnMi4wJywgJy1waCcsICc3LjAnLCAnLXRuJywgJzgnLCAnLW1hJywgJzIwMCcsICctaW1hZScsICc8aW5maWxlLm1hZT4nLCAnLW9tYWUnLCAnPG91dGZpbGUubWFlPic=

>  <r_lp_tautomer_probability>  (456) 
1

>  <r_epik_Ionization_Penalty>  (456) 
8.14173e-08

>  <r_epik_Ionization_Penalty_Charging>  (456) 
0

>  <r_epik_Ionization_Penalty_Neutral>  (456) 
8.14173e-08

>  <r_epik_State_Penalty>  (456) 
-0

>  <r_epik_Charging_Adjusted_Penalty>  (456) 
0

>  <i_epik_Tot_Q>  (456) 
0

>  <i_epik_Tot_abs_Q>  (456) 
0

>  <s_epik_Chemistry_Notes>  (456) 
This compound has an ester and may undergo hydrolysis at high or low pH.

>  <s_lp_Force_Field>  (456) 
OPLS3e

>  <r_lp_Energy>  (456) 
359.098

>  <b_lp_Chiralities_Consistent>  (456) 
1

>  <s_lp_Variant>  (456) 
117:0-2

>  <s_i_glide_gridfile>  (456) 
pfpi4k_grid

>  <i_i_glide_lignum>  (456) 
40

>  <i_i_glide_rotatable_bonds>  (456) 
3

>  <r_i_docking_score>  (456) 
-2.74648

>  <r_i_glide_ligand_efficiency>  (456) 
-0.0858276

>  <r_i_glide_ligand_efficiency_sa>  (456) 
-0.272486

>  <r_i_glide_ligand_efficiency_ln>  (456) 
-0.615012

>  <r_i_glide_gscore>  (456) 
-2.74648

>  <r_i_glide_lipo>  (456) 
-0.0677578

>  <r_i_glide_hbond>  (456) 
-0.111894

>  <r_i_glide_metal>  (456) 
-0

>  <r_i_glide_rewards>  (456) 
-0.383175

>  <r_i_glide_evdw>  (456) 
-17.1616

>  <r_i_glide_ecoul>  (456) 
-8.9999

>  <r_i_glide_erotb>  (456) 
0.0702738

>  <r_i_glide_esite>  (456) 
-0.0458626

>  <r_i_glide_emodel>  (456) 
-27.6155

>  <r_i_glide_energy>  (456) 
-26.1615

>  <r_i_glide_einternal>  (456) 
8.11794

>  <r_i_glide_intrahb_reward>  (456) 
-0

>  <i_i_glide_confnum>  (456) 
6

>  <i_i_glide_posenum>  (456) 
26

>  <r_i_glide_eff_state_penalty>  (456) 
0

>  <ligand_id>  (456) 
117

>  <original_smiles>  (456) 
CC12CCCC3(C)C1C1(C)CC4OC5CC(=O)C3(CC(=O)C(O)(CO)C2)CC54COC1=O

>  <smiles>  (456) 
[H]OC([H])([H])C1(O[H])C(=O)C([H])([H])C23C(=O)C([H])([H])C4([H])OC5([H])C([H])([H])C(C([H])([H])[H])(C(=O)OC([H])([H])C45C2([H])[H])C2([H])C(C([H])([H])[H])(C([H])([H])C([H])([H])C([H])([H])C23C([H])([H])[H])C1([H])[H]

$$$$
117:1:1
     RDKit          3D

 66 71  0  0  1  0  0  0  0  0999 V2000
    3.5805   -1.1985    5.3069 C   0  0  0  0  0  0  0  0  0  0  0  0
    2.0338   -0.8831    5.3850 C   0  0  1  0  0  0  0  0  0  0  0  0
    1.8185   -1.2180    6.9005 C   0  0  0  0  0  0  0  0  0  0  0  0
    2.4391   -0.0767    7.8216 C   0  0  0  0  0  0  0  0  0  0  0  0
    2.2637    1.4302    7.3621 C   0  0  0  0  0  0  0  0  0  0  0  0
    2.3815    1.6051    5.7813 C   0  0  1  0  0  0  0  0  0  0  0  0
    3.9474    1.6234    5.6541 C   0  0  0  0  0  0  0  0  0  0  0  0
    1.2683    0.4854    5.3570 C   0  0  2  0  0  0  0  0  0  0  0  0
   -0.4486    0.5590    5.4950 C   0  0  2  0  0  0  0  0  0  0  0  0
   -1.1581   -0.8575    5.4691 C   0  0  0  0  0  0  0  0  0  0  0  0
   -1.2886    1.2018    4.2636 C   0  0  0  0  0  0  0  0  0  0  0  0
   -0.7078    2.4943    3.7853 C   0  0  1  0  0  0  0  0  0  0  0  0
   -1.2248    3.5752    2.9912 O   0  0  0  0  0  0  0  0  0  0  0  0
   -0.3212    4.4824    3.7540 C   0  0  2  0  0  0  0  0  0  0  0  0
    1.2189    4.8206    3.3682 C   0  0  0  0  0  0  0  0  0  0  0  0
    2.3692    4.1653    4.2743 C   0  0  0  0  0  0  0  0  0  0  0  0
    3.4188    4.7332    4.5773 O   0  0  0  0  0  0  0  0  0  0  0  0
    1.9984    2.7217    4.7099 C   0  0  1  0  0  0  0  0  0  0  0  0
    2.3211    2.0985    3.1727 C   0  0  0  0  0  0  0  0  0  0  0  0
    2.8215    0.6249    2.7810 C   0  0  0  0  0  0  0  0  0  0  0  0
    4.0128    0.4969    2.5112 O   0  0  0  0  0  0  0  0  0  0  0  0
    1.9121   -0.6833    2.6492 C   0  0  1  0  0  0  0  0  0  0  0  0
    0.6591   -0.3017    2.0982 O   0  0  0  0  0  0  0  0  0  0  0  0
    2.4865   -1.6919    1.5964 C   0  0  0  0  0  0  0  0  0  0  0  0
    3.0188   -1.1210    0.4077 O   0  0  0  0  0  0  0  0  0  0  0  0
    1.6143   -1.5432    4.0072 C   0  0  0  0  0  0  0  0  0  0  0  0
    0.8208    3.3610    5.5591 C   0  0  0  0  0  0  0  0  0  0  0  0
   -0.4418    3.4766    4.8700 C   0  0  2  0  0  0  0  0  0  0  0  0
   -1.5912    3.5133    5.8743 C   0  0  0  0  0  0  0  0  0  0  0  0
   -1.5910    2.4572    6.8598 O   0  0  0  0  0  0  0  0  0  0  0  0
   -1.0153    1.1869    6.8198 C   0  0  0  0  0  0  0  0  0  0  0  0
   -0.9762    0.5412    7.8597 O   0  0  0  0  0  0  0  0  0  0  0  0
    3.7241   -2.2786    5.2653 H   0  0  0  0  0  0  0  0  0  0  0  0
    4.1811   -0.9431    6.1708 H   0  0  0  0  0  0  0  0  0  0  0  0
    4.1152   -0.8350    4.4442 H   0  0  0  0  0  0  0  0  0  0  0  0
    0.7901   -1.2782    7.2172 H   0  0  0  0  0  0  0  0  0  0  0  0
    2.2429   -2.1890    7.1646 H   0  0  0  0  0  0  0  0  0  0  0  0
    2.0037   -0.1749    8.8161 H   0  0  0  0  0  0  0  0  0  0  0  0
    3.4973   -0.2654    7.9964 H   0  0  0  0  0  0  0  0  0  0  0  0
    1.3310    1.7115    7.8332 H   0  0  0  0  0  0  0  0  0  0  0  0
    2.9906    2.0626    7.8773 H   0  0  0  0  0  0  0  0  0  0  0  0
    4.3786    1.3579    4.7026 H   0  0  0  0  0  0  0  0  0  0  0  0
    4.4714    1.0542    6.4155 H   0  0  0  0  0  0  0  0  0  0  0  0
    4.3042    2.6380    5.8327 H   0  0  0  0  0  0  0  0  0  0  0  0
    1.0206    0.6460    4.3586 H   0  0  0  0  0  0  0  0  0  0  0  0
   -1.3450   -1.2391    4.4647 H   0  0  0  0  0  0  0  0  0  0  0  0
   -2.1604   -0.8212    5.9089 H   0  0  0  0  0  0  0  0  0  0  0  0
   -0.6555   -1.6805    5.9684 H   0  0  0  0  0  0  0  0  0  0  0  0
   -1.3563    0.5389    3.4034 H   0  0  0  0  0  0  0  0  0  0  0  0
   -2.3282    1.3443    4.5534 H   0  0  0  0  0  0  0  0  0  0  0  0
    0.0647    2.1555    3.1612 H   0  0  0  0  0  0  0  0  0  0  0  0
   -0.8562    5.3911    4.0245 H   0  0  0  0  0  0  0  0  0  0  0  0
    1.4375    4.6143    2.3211 H   0  0  0  0  0  0  0  0  0  0  0  0
    1.3616    5.8988    3.4646 H   0  0  0  0  0  0  0  0  0  0  0  0
    1.7037    2.4741    2.3608 H   0  0  0  0  0  0  0  0  0  0  0  0
    3.2471    2.5999    2.8887 H   0  0  0  0  0  0  0  0  0  0  0  0
    0.7568   -0.1863    1.1602 H   0  0  0  0  0  0  0  0  0  0  0  0
    3.2706   -2.3100    2.0371 H   0  0  0  0  0  0  0  0  0  0  0  0
    1.6957   -2.3741    1.2878 H   0  0  0  0  0  0  0  0  0  0  0  0
    2.2753   -0.9062   -0.1728 H   0  0  0  0  0  0  0  0  0  0  0  0
    2.1047   -2.5118    3.9224 H   0  0  0  0  0  0  0  0  0  0  0  0
    0.5807   -1.8495    4.0033 H   0  0  0  0  0  0  0  0  0  0  0  0
    0.6745    2.9600    6.5216 H   0  0  0  0  0  0  0  0  0  0  0  0
    1.0182    4.3343    6.0392 H   0  0  0  0  0  0  0  0  0  0  0  0
   -1.5801    4.4597    6.4157 H   0  0  0  0  0  0  0  0  0  0  0  0
   -2.5457    3.4830    5.3443 H   0  0  0  0  0  0  0  0  0  0  0  0
  2  1  1  1
  1 33  1  0
  1 34  1  0
  1 35  1  0
  2  8  1  0
  2 26  1  0
  2  3  1  0
  3  4  1  0
  3 36  1  0
  3 37  1  0
  4  5  1  0
  4 38  1  0
  4 39  1  0
  5  6  1  0
  5 40  1  0
  5 41  1  0
  6 18  1  0
  6  7  1  6
  6  8  1  0
  7 42  1  0
  7 43  1  0
  7 44  1  0
  8  9  1  0
  8 45  1  6
  9 31  1  0
  9 10  1  1
  9 11  1  0
 10 46  1  0
 10 47  1  0
 10 48  1  0
 11 12  1  0
 11 49  1  0
 11 50  1  0
 12 28  1  0
 12 13  1  0
 12 51  1  6
 13 14  1  0
 14 28  1  0
 14 15  1  0
 14 52  1  1
 15 16  1  0
 15 53  1  0
 15 54  1  0
 16 17  2  0
 16 18  1  0
 18 19  1  6
 18 27  1  0
 19 20  1  0
 19 55  1  0
 19 56  1  0
 20 21  2  0
 20 22  1  0
 22 23  1  6
 22 24  1  0
 22 26  1  0
 23 57  1  0
 24 25  1  0
 24 58  1  0
 24 59  1  0
 25 60  1  0
 26 61  1  0
 26 62  1  0
 27 28  1  0
 27 63  1  0
 27 64  1  0
 28 29  1  1
 29 30  1  0
 29 65  1  0
 29 66  1  0
 30 31  1  0
 31 32  2  0
M  END
>  <i_m_ct_stereo_status>  (457) 
1

>  <s_m_source_file>  (457) 
/var/tmp/pbs.5076255.sched01/tmp1cu33jom/138ve8n868x.sdf

>  <i_m_source_file_index>  (457) 
40

>  <i_lp_mmshare_version>  (457) 
48012

>  <i_f3d_flags>  (457) 
0

>  <s_epik_input>  (457) 
W0NIMl0xQyg9TylbQ0BAXShbT0hdKShbQ0gyXVtPSF0pW0NIMl1bQ0BdKFtDSDNdKShbQ0gyXVtDSDJdW0NIMl0yKVtDQEhdKEMyKFtDQF0xMzQpW0NIM10pW0NAXTUoW0NIM10pW0NIMl1bQ0hdNltDQEBdKFtDSDJdNCkoW0NASF0oTzYpW0NIMl1DMz1PKVtDSDJdT0M1PU8=

>  <s_epik_cmdline>  (457) 
J2VwaWtfcHl0aG9uJywgJy1waHQnLCAnMi4wJywgJy1waCcsICc3LjAnLCAnLXRuJywgJzgnLCAnLW1hJywgJzIwMCcsICctaW1hZScsICc8aW5maWxlLm1hZT4nLCAnLW9tYWUnLCAnPG91dGZpbGUubWFlPic=

>  <r_lp_tautomer_probability>  (457) 
1

>  <r_epik_Ionization_Penalty>  (457) 
8.14173e-08

>  <r_epik_Ionization_Penalty_Charging>  (457) 
0

>  <r_epik_Ionization_Penalty_Neutral>  (457) 
8.14173e-08

>  <r_epik_State_Penalty>  (457) 
-0

>  <r_epik_Charging_Adjusted_Penalty>  (457) 
0

>  <i_epik_Tot_Q>  (457) 
0

>  <i_epik_Tot_abs_Q>  (457) 
0

>  <s_epik_Chemistry_Notes>  (457) 
This compound has an ester and may undergo hydrolysis at high or low pH.

>  <s_lp_Force_Field>  (457) 
OPLS3e

>  <r_lp_Energy>  (457) 
359.098

>  <b_lp_Chiralities_Consistent>  (457) 
1

>  <s_lp_Variant>  (457) 
117:0-2

>  <s_i_glide_gridfile>  (457) 
pfpi4k_grid

>  <i_i_glide_lignum>  (457) 
40

>  <i_i_glide_rotatable_bonds>  (457) 
3

>  <r_i_docking_score>  (457) 
-2.34566

>  <r_i_glide_ligand_efficiency>  (457) 
-0.0733019

>  <r_i_glide_ligand_efficiency_sa>  (457) 
-0.232719

>  <r_i_glide_ligand_efficiency_ln>  (457) 
-0.525257

>  <r_i_glide_gscore>  (457) 
-2.34566

>  <r_i_glide_lipo>  (457) 
0

>  <r_i_glide_hbond>  (457) 
-0.0795764

>  <r_i_glide_metal>  (457) 
-0

>  <r_i_glide_rewards>  (457) 
-0.401831

>  <r_i_glide_evdw>  (457) 
-16.4429

>  <r_i_glide_ecoul>  (457) 
-7.25276

>  <r_i_glide_erotb>  (457) 
0.100391

>  <r_i_glide_esite>  (457) 
-0.0545861

>  <r_i_glide_emodel>  (457) 
-23.0344

>  <r_i_glide_energy>  (457) 
-23.6956

>  <r_i_glide_einternal>  (457) 
9.97888

>  <r_i_glide_intrahb_reward>  (457) 
-0

>  <i_i_glide_confnum>  (457) 
3

>  <i_i_glide_posenum>  (457) 
9

>  <r_i_glide_eff_state_penalty>  (457) 
0

>  <ligand_id>  (457) 
117

>  <original_smiles>  (457) 
CC12CCCC3(C)C1C1(C)CC4OC5CC(=O)C3(CC(=O)C(O)(CO)C2)CC54COC1=O

>  <smiles>  (457) 
[H]OC([H])([H])C1(O[H])C(=O)C([H])([H])C23C(=O)C([H])([H])C4([H])OC5([H])C([H])([H])C(C([H])([H])[H])(C(=O)OC([H])([H])C45C2([H])[H])C2([H])C(C([H])([H])[H])(C([H])([H])C([H])([H])C([H])([H])C23C([H])([H])[H])C1([H])[H]

$$$$
117:1:2
     RDKit          3D

 66 71  0  0  1  0  0  0  0  0999 V2000
    1.4079    3.8395    5.4671 C   0  0  0  0  0  0  0  0  0  0  0  0
    1.9456    2.7344    4.4718 C   0  0  1  0  0  0  0  0  0  0  0  0
    3.4730    3.0539    4.5860 C   0  0  0  0  0  0  0  0  0  0  0  0
    4.0534    2.5534    5.9799 C   0  0  0  0  0  0  0  0  0  0  0  0
    3.5443    1.1591    6.5366 C   0  0  0  0  0  0  0  0  0  0  0  0
    1.9978    0.9097    6.2405 C   0  0  1  0  0  0  0  0  0  0  0  0
    1.3796    1.7494    7.4188 C   0  0  0  0  0  0  0  0  0  0  0  0
    2.0442    1.1780    4.6281 C   0  0  2  0  0  0  0  0  0  0  0  0
    2.7099    0.1841    3.3742 C   0  0  2  0  0  0  0  0  0  0  0  0
    3.0151    0.9601    2.0326 C   0  0  0  0  0  0  0  0  0  0  0  0
    1.7562   -0.9501    2.7106 C   0  0  0  0  0  0  0  0  0  0  0  0
    0.9983   -1.7399    3.7395 C   0  0  1  0  0  0  0  0  0  0  0  0
    0.2548   -2.9751    3.7361 O   0  0  0  0  0  0  0  0  0  0  0  0
    0.6770   -3.1772    5.1417 C   0  0  2  0  0  0  0  0  0  0  0  0
   -0.2002   -2.6562    6.3897 C   0  0  0  0  0  0  0  0  0  0  0  0
    0.3494   -1.3751    7.1831 C   0  0  0  0  0  0  0  0  0  0  0  0
    0.2043   -1.2242    8.3960 O   0  0  0  0  0  0  0  0  0  0  0  0
    1.0089   -0.3398    6.2333 C   0  0  1  0  0  0  0  0  0  0  0  0
   -0.4959    0.1954    5.6660 C   0  0  0  0  0  0  0  0  0  0  0  0
   -0.9088    1.6408    5.1068 C   0  0  0  0  0  0  0  0  0  0  0  0
   -1.5937    2.3337    5.8654 O   0  0  0  0  0  0  0  0  0  0  0  0
   -0.6036    2.2150    3.6370 C   0  0  1  0  0  0  0  0  0  0  0  0
   -0.7330    1.1502    2.7099 O   0  0  0  0  0  0  0  0  0  0  0  0
   -1.6925    3.2273    3.1690 C   0  0  0  0  0  0  0  0  0  0  0  0
   -3.0324    2.8122    3.3585 O   0  0  0  0  0  0  0  0  0  0  0  0
    0.8429    2.9111    3.3550 C   0  0  0  0  0  0  0  0  0  0  0  0
    2.1258   -1.4231    5.9349 C   0  0  0  0  0  0  0  0  0  0  0  0
    1.8595   -2.2934    4.8180 C   0  0  2  0  0  0  0  0  0  0  0  0
    3.1731   -2.8453    4.2535 C   0  0  0  0  0  0  0  0  0  0  0  0
    4.2024   -1.8630    3.9894 O   0  0  0  0  0  0  0  0  0  0  0  0
    4.1006   -0.4976    3.6831 C   0  0  0  0  0  0  0  0  0  0  0  0
    5.1268    0.1782    3.6528 O   0  0  0  0  0  0  0  0  0  0  0  0
    1.4194    4.8091    4.9660 H   0  0  0  0  0  0  0  0  0  0  0  0
    2.0139    4.0573    6.3368 H   0  0  0  0  0  0  0  0  0  0  0  0
    0.3898    3.7367    5.8134 H   0  0  0  0  0  0  0  0  0  0  0  0
    4.0881    2.5532    3.8598 H   0  0  0  0  0  0  0  0  0  0  0  0
    3.6825    4.1158    4.4395 H   0  0  0  0  0  0  0  0  0  0  0  0
    5.1392    2.5011    5.8911 H   0  0  0  0  0  0  0  0  0  0  0  0
    3.9054    3.3121    6.7461 H   0  0  0  0  0  0  0  0  0  0  0  0
    4.2550    0.4671    6.1052 H   0  0  0  0  0  0  0  0  0  0  0  0
    3.7533    1.0823    7.6044 H   0  0  0  0  0  0  0  0  0  0  0  0
    0.3676    2.1069    7.3051 H   0  0  0  0  0  0  0  0  0  0  0  0
    1.9837    2.5899    7.7465 H   0  0  0  0  0  0  0  0  0  0  0  0
    1.3476    1.1293    8.3144 H   0  0  0  0  0  0  0  0  0  0  0  0
    1.1614    0.8052    4.2205 H   0  0  0  0  0  0  0  0  0  0  0  0
    2.1606    1.0606    1.3647 H   0  0  0  0  0  0  0  0  0  0  0  0
    3.7545    0.4416    1.4146 H   0  0  0  0  0  0  0  0  0  0  0  0
    3.3901    1.9667    2.1284 H   0  0  0  0  0  0  0  0  0  0  0  0
    1.0248   -0.5369    2.0188 H   0  0  0  0  0  0  0  0  0  0  0  0
    2.3445   -1.6131    2.0754 H   0  0  0  0  0  0  0  0  0  0  0  0
    0.2239   -1.0657    3.9500 H   0  0  0  0  0  0  0  0  0  0  0  0
    1.0086   -4.2054    5.2922 H   0  0  0  0  0  0  0  0  0  0  0  0
   -1.2350   -2.4798    6.0944 H   0  0  0  0  0  0  0  0  0  0  0  0
   -0.2489   -3.4553    7.1322 H   0  0  0  0  0  0  0  0  0  0  0  0
   -1.0982   -0.5399    5.1381 H   0  0  0  0  0  0  0  0  0  0  0  0
   -1.1031    0.2586    6.5707 H   0  0  0  0  0  0  0  0  0  0  0  0
   -0.5870    1.4946    1.8385 H   0  0  0  0  0  0  0  0  0  0  0  0
   -1.5671    4.1873    3.6692 H   0  0  0  0  0  0  0  0  0  0  0  0
   -1.5860    3.4188    2.1016 H   0  0  0  0  0  0  0  0  0  0  0  0
   -3.1384    1.9356    3.0086 H   0  0  0  0  0  0  0  0  0  0  0  0
    0.6881    3.9735    3.1630 H   0  0  0  0  0  0  0  0  0  0  0  0
    1.1980    2.6030    2.3840 H   0  0  0  0  0  0  0  0  0  0  0  0
    3.1136   -1.0662    5.8813 H   0  0  0  0  0  0  0  0  0  0  0  0
    2.4372   -2.0637    6.7743 H   0  0  0  0  0  0  0  0  0  0  0  0
    3.5940   -3.5751    4.9442 H   0  0  0  0  0  0  0  0  0  0  0  0
    2.9795   -3.3994    3.3329 H   0  0  0  0  0  0  0  0  0  0  0  0
  2  1  1  1
  1 33  1  0
  1 34  1  0
  1 35  1  0
  2  8  1  0
  2 26  1  0
  2  3  1  0
  3  4  1  0
  3 36  1  0
  3 37  1  0
  4  5  1  0
  4 38  1  0
  4 39  1  0
  5  6  1  0
  5 40  1  0
  5 41  1  0
  6 18  1  0
  6  7  1  1
  6  8  1  0
  7 42  1  0
  7 43  1  0
  7 44  1  0
  8  9  1  0
  8 45  1  6
  9 31  1  0
  9 10  1  6
  9 11  1  0
 10 46  1  0
 10 47  1  0
 10 48  1  0
 11 12  1  0
 11 49  1  0
 11 50  1  0
 12 28  1  0
 12 13  1  0
 12 51  1  1
 13 14  1  0
 14 28  1  0
 14 15  1  0
 14 52  1  1
 15 16  1  0
 15 53  1  0
 15 54  1  0
 16 17  2  0
 16 18  1  0
 18 19  1  6
 18 27  1  0
 19 20  1  0
 19 55  1  0
 19 56  1  0
 20 21  2  0
 20 22  1  0
 22 23  1  6
 22 24  1  0
 22 26  1  0
 23 57  1  0
 24 25  1  0
 24 58  1  0
 24 59  1  0
 25 60  1  0
 26 61  1  0
 26 62  1  0
 27 28  1  0
 27 63  1  0
 27 64  1  0
 28 29  1  6
 29 30  1  0
 29 65  1  0
 29 66  1  0
 30 31  1  0
 31 32  2  0
M  END
>  <i_m_ct_stereo_status>  (458) 
1

>  <s_m_source_file>  (458) 
/var/tmp/pbs.5076255.sched01/tmp1cu33jom/138ve8n868x.sdf

>  <i_m_source_file_index>  (458) 
40

>  <i_lp_mmshare_version>  (458) 
48012

>  <i_f3d_flags>  (458) 
0

>  <s_epik_input>  (458) 
W0NIMl0xQyg9TylbQ0BAXShbT0hdKShbQ0gyXVtPSF0pW0NIMl1bQ0BdKFtDSDNdKShbQ0gyXVtDSDJdW0NIMl0yKVtDQEhdKEMyKFtDQF0xMzQpW0NIM10pW0NAXTUoW0NIM10pW0NIMl1bQ0hdNltDQEBdKFtDSDJdNCkoW0NASF0oTzYpW0NIMl1DMz1PKVtDSDJdT0M1PU8=

>  <s_epik_cmdline>  (458) 
J2VwaWtfcHl0aG9uJywgJy1waHQnLCAnMi4wJywgJy1waCcsICc3LjAnLCAnLXRuJywgJzgnLCAnLW1hJywgJzIwMCcsICctaW1hZScsICc8aW5maWxlLm1hZT4nLCAnLW9tYWUnLCAnPG91dGZpbGUubWFlPic=

>  <r_lp_tautomer_probability>  (458) 
1

>  <r_epik_Ionization_Penalty>  (458) 
8.14173e-08

>  <r_epik_Ionization_Penalty_Charging>  (458) 
0

>  <r_epik_Ionization_Penalty_Neutral>  (458) 
8.14173e-08

>  <r_epik_State_Penalty>  (458) 
-0

>  <r_epik_Charging_Adjusted_Penalty>  (458) 
0

>  <i_epik_Tot_Q>  (458) 
0

>  <i_epik_Tot_abs_Q>  (458) 
0

>  <s_epik_Chemistry_Notes>  (458) 
This compound has an ester and may undergo hydrolysis at high or low pH.

>  <s_lp_Force_Field>  (458) 
OPLS3e

>  <r_lp_Energy>  (458) 
359.098

>  <b_lp_Chiralities_Consistent>  (458) 
1

>  <s_lp_Variant>  (458) 
117:0-2

>  <s_i_glide_gridfile>  (458) 
pfpi4k_grid

>  <i_i_glide_lignum>  (458) 
40

>  <i_i_glide_rotatable_bonds>  (458) 
3

>  <r_i_docking_score>  (458) 
-1.85163

>  <r_i_glide_ligand_efficiency>  (458) 
-0.0578635

>  <r_i_glide_ligand_efficiency_sa>  (458) 
-0.183705

>  <r_i_glide_ligand_efficiency_ln>  (458) 
-0.414631

>  <r_i_glide_gscore>  (458) 
-1.85163

>  <r_i_glide_lipo>  (458) 
-0.0702993

>  <r_i_glide_hbond>  (458) 
-0.0521613

>  <r_i_glide_metal>  (458) 
-0

>  <r_i_glide_rewards>  (458) 
-0.388138

>  <r_i_glide_evdw>  (458) 
-18.9489

>  <r_i_glide_ecoul>  (458) 
-2.94825

>  <r_i_glide_erotb>  (458) 
0.100391

>  <r_i_glide_esite>  (458) 
-0.0517439

>  <r_i_glide_emodel>  (458) 
-22.3973

>  <r_i_glide_energy>  (458) 
-21.8971

>  <r_i_glide_einternal>  (458) 
6.31656

>  <r_i_glide_intrahb_reward>  (458) 
-0

>  <i_i_glide_confnum>  (458) 
3

>  <i_i_glide_posenum>  (458) 
8

>  <r_i_glide_eff_state_penalty>  (458) 
0

>  <ligand_id>  (458) 
117

>  <original_smiles>  (458) 
CC12CCCC3(C)C1C1(C)CC4OC5CC(=O)C3(CC(=O)C(O)(CO)C2)CC54COC1=O

>  <smiles>  (458) 
[H]OC([H])([H])C1(O[H])C(=O)C([H])([H])C23C(=O)C([H])([H])C4([H])OC5([H])C([H])([H])C(C([H])([H])[H])(C(=O)OC([H])([H])C45C2([H])[H])C2([H])C(C([H])([H])[H])(C([H])([H])C([H])([H])C([H])([H])C23C([H])([H])[H])C1([H])[H]

$$$$
117:2:0
     RDKit          3D

 66 71  0  0  1  0  0  0  0  0999 V2000
   -1.0145    3.6867    6.2597 C   0  0  0  0  0  0  0  0  0  0  0  0
    0.5831    3.5561    6.0458 C   0  0  1  0  0  0  0  0  0  0  0  0
    0.9996    4.4369    7.2299 C   0  0  0  0  0  0  0  0  0  0  0  0
    0.6146    3.6094    8.5288 C   0  0  0  0  0  0  0  0  0  0  0  0
    0.1118    2.1133    8.2734 C   0  0  0  0  0  0  0  0  0  0  0  0
    1.1476    1.3214    7.4006 C   0  0  2  0  0  0  0  0  0  0  0  0
    2.0210    0.9316    8.6734 C   0  0  0  0  0  0  0  0  0  0  0  0
    1.6767    2.3491    6.2648 C   0  0  2  0  0  0  0  0  0  0  0  0
    3.2517    2.2518    5.6207 C   0  0  2  0  0  0  0  0  0  0  0  0
    3.6396    3.6168    4.9576 C   0  0  0  0  0  0  0  0  0  0  0  0
    3.7186    1.1911    4.4039 C   0  0  0  0  0  0  0  0  0  0  0  0
    3.8740   -0.4004    4.6597 C   0  0  2  0  0  0  0  0  0  0  0  0
    3.1537   -1.6050    4.1294 O   0  0  0  0  0  0  0  0  0  0  0  0
    2.9382   -2.0688    5.5500 C   0  0  2  0  0  0  0  0  0  0  0  0
    1.5707   -2.5437    6.2915 C   0  0  0  0  0  0  0  0  0  0  0  0
    0.6559   -1.4080    7.0142 C   0  0  0  0  0  0  0  0  0  0  0  0
   -0.0475   -1.7150    7.9719 O   0  0  0  0  0  0  0  0  0  0  0  0
    0.6273    0.0944    6.4736 C   0  0  1  0  0  0  0  0  0  0  0  0
   -0.7014    0.5065    5.6561 C   0  0  0  0  0  0  0  0  0  0  0  0
   -0.6832    1.1660    4.1893 C   0  0  0  0  0  0  0  0  0  0  0  0
   -0.9637    0.3601    3.3013 O   0  0  0  0  0  0  0  0  0  0  0  0
   -0.4095    2.6909    3.6911 C   0  0  1  0  0  0  0  0  0  0  0  0
    0.3527    2.5387    2.4921 O   0  0  0  0  0  0  0  0  0  0  0  0
   -1.7810    3.2363    3.1621 C   0  0  0  0  0  0  0  0  0  0  0  0
   -1.7819    4.6285    2.8792 O   0  0  0  0  0  0  0  0  0  0  0  0
    0.4490    3.8127    4.5101 C   0  0  0  0  0  0  0  0  0  0  0  0
    1.6456   -0.1672    5.4296 C   0  0  0  0  0  0  0  0  0  0  0  0
    3.0840   -0.6474    5.8417 C   0  0  2  0  0  0  0  0  0  0  0  0
    3.9702   -0.3493    7.0518 C   0  0  0  0  0  0  0  0  0  0  0  0
    4.7190    0.8671    7.0974 O   0  0  0  0  0  0  0  0  0  0  0  0
    4.2851    2.1109    6.7636 C   0  0  0  0  0  0  0  0  0  0  0  0
    4.7221    3.1039    7.3494 O   0  0  0  0  0  0  0  0  0  0  0  0
   -1.4126    4.5634    5.7559 H   0  0  0  0  0  0  0  0  0  0  0  0
   -1.3918    3.9145    7.2529 H   0  0  0  0  0  0  0  0  0  0  0  0
   -1.6452    2.8836    5.9196 H   0  0  0  0  0  0  0  0  0  0  0  0
    2.0739    4.6165    7.2464 H   0  0  0  0  0  0  0  0  0  0  0  0
    0.5258    5.4201    7.2179 H   0  0  0  0  0  0  0  0  0  0  0  0
    1.4551    3.6251    9.2204 H   0  0  0  0  0  0  0  0  0  0  0  0
   -0.1705    4.1436    9.0657 H   0  0  0  0  0  0  0  0  0  0  0  0
   -0.1337    1.6483    9.2280 H   0  0  0  0  0  0  0  0  0  0  0  0
   -0.8906    2.0065    7.8927 H   0  0  0  0  0  0  0  0  0  0  0  0
    1.9423   -0.1191    8.9379 H   0  0  0  0  0  0  0  0  0  0  0  0
    1.7661    1.3894    9.6295 H   0  0  0  0  0  0  0  0  0  0  0  0
    3.0389    1.2659    8.7073 H   0  0  0  0  0  0  0  0  0  0  0  0
    1.3319    2.0392    5.3440 H   0  0  0  0  0  0  0  0  0  0  0  0
    3.4129    3.6414    3.8915 H   0  0  0  0  0  0  0  0  0  0  0  0
    4.7135    3.8141    4.9829 H   0  0  0  0  0  0  0  0  0  0  0  0
    3.1766    4.4843    5.4266 H   0  0  0  0  0  0  0  0  0  0  0  0
    3.1328    1.3735    3.5024 H   0  0  0  0  0  0  0  0  0  0  0  0
    4.7077    1.5175    4.0876 H   0  0  0  0  0  0  0  0  0  0  0  0
    4.9220   -0.6697    4.8015 H   0  0  0  0  0  0  0  0  0  0  0  0
    3.7960   -2.6628    5.8762 H   0  0  0  0  0  0  0  0  0  0  0  0
    0.9356   -3.1040    5.6061 H   0  0  0  0  0  0  0  0  0  0  0  0
    1.8260   -3.2475    7.0860 H   0  0  0  0  0  0  0  0  0  0  0  0
   -1.1848   -0.4488    5.4581 H   0  0  0  0  0  0  0  0  0  0  0  0
   -1.4432    0.9676    6.2875 H   0  0  0  0  0  0  0  0  0  0  0  0
    0.2174    3.2830    1.8904 H   0  0  0  0  0  0  0  0  0  0  0  0
   -2.0856    2.7055    2.2611 H   0  0  0  0  0  0  0  0  0  0  0  0
   -2.5808    3.0543    3.8799 H   0  0  0  0  0  0  0  0  0  0  0  0
   -1.1536    4.7805    2.1735 H   0  0  0  0  0  0  0  0  0  0  0  0
    0.0762    4.8216    4.3666 H   0  0  0  0  0  0  0  0  0  0  0  0
    1.4036    3.9181    4.0343 H   0  0  0  0  0  0  0  0  0  0  0  0
    1.1269   -0.8699    4.7637 H   0  0  0  0  0  0  0  0  0  0  0  0
    1.6093    0.3838    4.5072 H   0  0  0  0  0  0  0  0  0  0  0  0
    3.5612   -0.6871    7.9911 H   0  0  0  0  0  0  0  0  0  0  0  0
    4.7960   -1.0594    6.9885 H   0  0  0  0  0  0  0  0  0  0  0  0
  2  1  1  1
  1 33  1  0
  1 34  1  0
  1 35  1  0
  2  8  1  0
  2 26  1  0
  2  3  1  0
  3  4  1  0
  3 36  1  0
  3 37  1  0
  4  5  1  0
  4 38  1  0
  4 39  1  0
  5  6  1  0
  5 40  1  0
  5 41  1  0
  6 18  1  0
  6  7  1  1
  6  8  1  0
  7 42  1  0
  7 43  1  0
  7 44  1  0
  8  9  1  0
  8 45  1  6
  9 31  1  0
  9 10  1  6
  9 11  1  0
 10 46  1  0
 10 47  1  0
 10 48  1  0
 11 12  1  0
 11 49  1  0
 11 50  1  0
 12 28  1  0
 12 13  1  0
 12 51  1  1
 13 14  1  0
 14 28  1  0
 14 15  1  0
 14 52  1  1
 15 16  1  0
 15 53  1  0
 15 54  1  0
 16 17  2  0
 16 18  1  0
 18 19  1  6
 18 27  1  0
 19 20  1  0
 19 55  1  0
 19 56  1  0
 20 21  2  0
 20 22  1  0
 22 23  1  6
 22 24  1  0
 22 26  1  0
 23 57  1  0
 24 25  1  0
 24 58  1  0
 24 59  1  0
 25 60  1  0
 26 61  1  0
 26 62  1  0
 27 28  1  0
 27 63  1  0
 27 64  1  0
 28 29  1  1
 29 30  1  0
 29 65  1  0
 29 66  1  0
 30 31  1  0
 31 32  2  0
M  END
>  <i_m_ct_stereo_status>  (459) 
1

>  <s_m_source_file>  (459) 
/var/tmp/pbs.5076255.sched01/tmp1cu33jom/138ve8n868x.sdf

>  <i_m_source_file_index>  (459) 
41

>  <i_lp_mmshare_version>  (459) 
48012

>  <i_f3d_flags>  (459) 
0

>  <s_epik_input>  (459) 
W0NIMl0xQyg9TylbQ0BAXShbT0hdKShbQ0gyXVtPSF0pW0NIMl1bQ0BdKFtDSDNdKShbQ0gyXVtDSDJdW0NIMl0yKVtDQEhdKEMyKFtDQF0xMzQpW0NIM10pW0NAXTUoW0NIM10pW0NIMl1bQ0hdNltDQEBdKFtDSDJdNCkoW0NASF0oTzYpW0NIMl1DMz1PKVtDSDJdT0M1PU8=

>  <s_epik_cmdline>  (459) 
J2VwaWtfcHl0aG9uJywgJy1waHQnLCAnMi4wJywgJy1waCcsICc3LjAnLCAnLXRuJywgJzgnLCAnLW1hJywgJzIwMCcsICctaW1hZScsICc8aW5maWxlLm1hZT4nLCAnLW9tYWUnLCAnPG91dGZpbGUubWFlPic=

>  <r_lp_tautomer_probability>  (459) 
1

>  <r_epik_Ionization_Penalty>  (459) 
8.14173e-08

>  <r_epik_Ionization_Penalty_Charging>  (459) 
0

>  <r_epik_Ionization_Penalty_Neutral>  (459) 
8.14173e-08

>  <r_epik_State_Penalty>  (459) 
-0

>  <r_epik_Charging_Adjusted_Penalty>  (459) 
0

>  <i_epik_Tot_Q>  (459) 
0

>  <i_epik_Tot_abs_Q>  (459) 
0

>  <s_epik_Chemistry_Notes>  (459) 
This compound has an ester and may undergo hydrolysis at high or low pH.

>  <s_lp_Force_Field>  (459) 
OPLS3e

>  <r_lp_Energy>  (459) 
381.677

>  <b_lp_Chiralities_Consistent>  (459) 
1

>  <s_lp_Variant>  (459) 
117:0-3

>  <s_i_glide_gridfile>  (459) 
pfpi4k_grid

>  <i_i_glide_lignum>  (459) 
41

>  <i_i_glide_rotatable_bonds>  (459) 
3

>  <r_i_docking_score>  (459) 
-2.65758

>  <r_i_glide_ligand_efficiency>  (459) 
-0.0830493

>  <r_i_glide_ligand_efficiency_sa>  (459) 
-0.263665

>  <r_i_glide_ligand_efficiency_ln>  (459) 
-0.595104

>  <r_i_glide_gscore>  (459) 
-2.65758

>  <r_i_glide_lipo>  (459) 
0

>  <r_i_glide_hbond>  (459) 
-0.0868263

>  <r_i_glide_metal>  (459) 
-0

>  <r_i_glide_rewards>  (459) 
-0.365782

>  <r_i_glide_evdw>  (459) 
-12.6063

>  <r_i_glide_ecoul>  (459) 
-10.8794

>  <r_i_glide_erotb>  (459) 
0.100391

>  <r_i_glide_esite>  (459) 
-0.0431443

>  <r_i_glide_emodel>  (459) 
-23.918

>  <r_i_glide_energy>  (459) 
-23.4856

>  <r_i_glide_einternal>  (459) 
8.59536

>  <r_i_glide_intrahb_reward>  (459) 
-0

>  <i_i_glide_confnum>  (459) 
6

>  <i_i_glide_posenum>  (459) 
12

>  <r_i_glide_eff_state_penalty>  (459) 
0

>  <ligand_id>  (459) 
117

>  <original_smiles>  (459) 
CC12CCCC3(C)C1C1(C)CC4OC5CC(=O)C3(CC(=O)C(O)(CO)C2)CC54COC1=O

>  <smiles>  (459) 
[H]OC([H])([H])C1(O[H])C(=O)C([H])([H])C23C(=O)C([H])([H])C4([H])OC5([H])C([H])([H])C(C([H])([H])[H])(C(=O)OC([H])([H])C45C2([H])[H])C2([H])C(C([H])([H])[H])(C([H])([H])C([H])([H])C([H])([H])C23C([H])([H])[H])C1([H])[H]

$$$$
117:2:1
     RDKit          3D

 66 71  0  0  1  0  0  0  0  0999 V2000
   -1.1475    2.1560    6.2284 C   0  0  0  0  0  0  0  0  0  0  0  0
    0.4625    2.2068    6.3574 C   0  0  1  0  0  0  0  0  0  0  0  0
    0.5166    2.2747    7.8928 C   0  0  0  0  0  0  0  0  0  0  0  0
    0.0184    0.8556    8.4025 C   0  0  0  0  0  0  0  0  0  0  0  0
   -0.1876   -0.2558    7.2703 C   0  0  0  0  0  0  0  0  0  0  0  0
    1.0987   -0.3984    6.3865 C   0  0  2  0  0  0  0  0  0  0  0  0
    1.7688   -1.4149    7.4155 C   0  0  0  0  0  0  0  0  0  0  0  0
    1.6661    1.1027    6.1513 C   0  0  2  0  0  0  0  0  0  0  0  0
    3.3329    1.4113    5.9621 C   0  0  2  0  0  0  0  0  0  0  0  0
    3.6313    2.9226    6.2537 C   0  0  0  0  0  0  0  0  0  0  0  0
    4.1740    1.2215    4.5205 C   0  0  0  0  0  0  0  0  0  0  0  0
    4.5233   -0.2337    3.9045 C   0  0  2  0  0  0  0  0  0  0  0  0
    4.1115   -0.9510    2.6519 O   0  0  0  0  0  0  0  0  0  0  0  0
    3.6985   -2.1358    3.4951 C   0  0  2  0  0  0  0  0  0  0  0  0
    2.2994   -2.9727    3.5098 C   0  0  0  0  0  0  0  0  0  0  0  0
    1.0995   -2.4540    4.4851 C   0  0  0  0  0  0  0  0  0  0  0  0
    0.2832   -3.2580    4.9360 O   0  0  0  0  0  0  0  0  0  0  0  0
    0.9520   -0.9098    4.8521 C   0  0  1  0  0  0  0  0  0  0  0  0
   -0.2438   -0.1357    4.0919 C   0  0  0  0  0  0  0  0  0  0  0  0
   -0.0487    1.2258    3.2600 C   0  0  0  0  0  0  0  0  0  0  0  0
   -0.0172    1.0465    2.0433 O   0  0  0  0  0  0  0  0  0  0  0  0
    0.0797    2.7688    3.7439 C   0  0  1  0  0  0  0  0  0  0  0  0
    1.0642    3.3423    2.8922 O   0  0  0  0  0  0  0  0  0  0  0  0
   -1.2358    3.4971    3.2949 C   0  0  0  0  0  0  0  0  0  0  0  0
   -1.1497    4.9161    3.2895 O   0  0  0  0  0  0  0  0  0  0  0  0
    0.5720    3.2725    5.2117 C   0  0  0  0  0  0  0  0  0  0  0  0
    2.1765   -0.5163    4.1111 C   0  0  0  0  0  0  0  0  0  0  0  0
    3.5703   -1.1171    4.5329 C   0  0  2  0  0  0  0  0  0  0  0  0
    4.1553   -1.5303    5.8821 C   0  0  0  0  0  0  0  0  0  0  0  0
    4.6896   -0.5335    6.7597 O   0  0  0  0  0  0  0  0  0  0  0  0
    4.1419    0.6738    7.0558 C   0  0  0  0  0  0  0  0  0  0  0  0
    4.3057    1.1758    8.1742 O   0  0  0  0  0  0  0  0  0  0  0  0
   -1.5785    3.1564    6.2154 H   0  0  0  0  0  0  0  0  0  0  0  0
   -1.7315    1.7751    7.0617 H   0  0  0  0  0  0  0  0  0  0  0  0
   -1.5674    1.6636    5.3673 H   0  0  0  0  0  0  0  0  0  0  0  0
    1.5275    2.4414    8.2635 H   0  0  0  0  0  0  0  0  0  0  0  0
   -0.0920    3.0841    8.3009 H   0  0  0  0  0  0  0  0  0  0  0  0
    0.7090    0.4989    9.1662 H   0  0  0  0  0  0  0  0  0  0  0  0
   -0.9204    0.9793    8.9393 H   0  0  0  0  0  0  0  0  0  0  0  0
   -0.5351   -1.1877    7.7151 H   0  0  0  0  0  0  0  0  0  0  0  0
   -1.0639   -0.1443    6.6554 H   0  0  0  0  0  0  0  0  0  0  0  0
    1.7985   -2.4345    7.0414 H   0  0  0  0  0  0  0  0  0  0  0  0
    1.2792   -1.5779    8.3751 H   0  0  0  0  0  0  0  0  0  0  0  0
    2.7015   -1.1388    7.8657 H   0  0  0  0  0  0  0  0  0  0  0  0
    1.5557    1.3567    5.1560 H   0  0  0  0  0  0  0  0  0  0  0  0
    3.6008    3.5337    5.3518 H   0  0  0  0  0  0  0  0  0  0  0  0
    4.6453    3.0909    6.6292 H   0  0  0  0  0  0  0  0  0  0  0  0
    2.9646    3.3669    6.9902 H   0  0  0  0  0  0  0  0  0  0  0  0
    3.7545    1.8670    3.7495 H   0  0  0  0  0  0  0  0  0  0  0  0
    5.1417    1.6848    4.7024 H   0  0  0  0  0  0  0  0  0  0  0  0
    5.5565   -0.5111    4.1287 H   0  0  0  0  0  0  0  0  0  0  0  0
    4.5599   -2.7927    3.6456 H   0  0  0  0  0  0  0  0  0  0  0  0
    1.9016   -3.0628    2.4992 H   0  0  0  0  0  0  0  0  0  0  0  0
    2.5086   -3.9942    3.8326 H   0  0  0  0  0  0  0  0  0  0  0  0
   -0.5245   -0.8284    3.3029 H   0  0  0  0  0  0  0  0  0  0  0  0
   -1.1560   -0.1247    4.6706 H   0  0  0  0  0  0  0  0  0  0  0  0
    0.6421    3.6280    2.0791 H   0  0  0  0  0  0  0  0  0  0  0  0
   -1.5176    3.2005    2.2840 H   0  0  0  0  0  0  0  0  0  0  0  0
   -2.0829    3.2279    3.9230 H   0  0  0  0  0  0  0  0  0  0  0  0
   -0.5702    5.1569    2.5741 H   0  0  0  0  0  0  0  0  0  0  0  0
    0.0430    4.1840    5.4876 H   0  0  0  0  0  0  0  0  0  0  0  0
    1.5743    3.6556    5.1328 H   0  0  0  0  0  0  0  0  0  0  0  0
    1.9067   -0.7355    3.0695 H   0  0  0  0  0  0  0  0  0  0  0  0
    2.2325    0.4535    3.6575 H   0  0  0  0  0  0  0  0  0  0  0  0
    3.6371   -2.3439    6.3649 H   0  0  0  0  0  0  0  0  0  0  0  0
    5.0772   -2.0660    5.6513 H   0  0  0  0  0  0  0  0  0  0  0  0
  2  1  1  1
  1 33  1  0
  1 34  1  0
  1 35  1  0
  2  8  1  0
  2 26  1  0
  2  3  1  0
  3  4  1  0
  3 36  1  0
  3 37  1  0
  4  5  1  0
  4 38  1  0
  4 39  1  0
  5  6  1  0
  5 40  1  0
  5 41  1  0
  6 18  1  0
  6  7  1  1
  6  8  1  0
  7 42  1  0
  7 43  1  0
  7 44  1  0
  8  9  1  0
  8 45  1  6
  9 31  1  0
  9 10  1  1
  9 11  1  0
 10 46  1  0
 10 47  1  0
 10 48  1  0
 11 12  1  0
 11 49  1  0
 11 50  1  0
 12 28  1  0
 12 13  1  0
 12 51  1  1
 13 14  1  0
 14 28  1  0
 14 15  1  0
 14 52  1  1
 15 16  1  0
 15 53  1  0
 15 54  1  0
 16 17  2  0
 16 18  1  0
 18 19  1  6
 18 27  1  0
 19 20  1  0
 19 55  1  0
 19 56  1  0
 20 21  2  0
 20 22  1  0
 22 23  1  6
 22 24  1  0
 22 26  1  0
 23 57  1  0
 24 25  1  0
 24 58  1  0
 24 59  1  0
 25 60  1  0
 26 61  1  0
 26 62  1  0
 27 28  1  0
 27 63  1  0
 27 64  1  0
 28 29  1  1
 29 30  1  0
 29 65  1  0
 29 66  1  0
 30 31  1  0
 31 32  2  0
M  END
>  <i_m_ct_stereo_status>  (460) 
1

>  <s_m_source_file>  (460) 
/var/tmp/pbs.5076255.sched01/tmp1cu33jom/138ve8n868x.sdf

>  <i_m_source_file_index>  (460) 
41

>  <i_lp_mmshare_version>  (460) 
48012

>  <i_f3d_flags>  (460) 
0

>  <s_epik_input>  (460) 
W0NIMl0xQyg9TylbQ0BAXShbT0hdKShbQ0gyXVtPSF0pW0NIMl1bQ0BdKFtDSDNdKShbQ0gyXVtDSDJdW0NIMl0yKVtDQEhdKEMyKFtDQF0xMzQpW0NIM10pW0NAXTUoW0NIM10pW0NIMl1bQ0hdNltDQEBdKFtDSDJdNCkoW0NASF0oTzYpW0NIMl1DMz1PKVtDSDJdT0M1PU8=

>  <s_epik_cmdline>  (460) 
J2VwaWtfcHl0aG9uJywgJy1waHQnLCAnMi4wJywgJy1waCcsICc3LjAnLCAnLXRuJywgJzgnLCAnLW1hJywgJzIwMCcsICctaW1hZScsICc8aW5maWxlLm1hZT4nLCAnLW9tYWUnLCAnPG91dGZpbGUubWFlPic=

>  <r_lp_tautomer_probability>  (460) 
1

>  <r_epik_Ionization_Penalty>  (460) 
8.14173e-08

>  <r_epik_Ionization_Penalty_Charging>  (460) 
0

>  <r_epik_Ionization_Penalty_Neutral>  (460) 
8.14173e-08

>  <r_epik_State_Penalty>  (460) 
-0

>  <r_epik_Charging_Adjusted_Penalty>  (460) 
0

>  <i_epik_Tot_Q>  (460) 
0

>  <i_epik_Tot_abs_Q>  (460) 
0

>  <s_epik_Chemistry_Notes>  (460) 
This compound has an ester and may undergo hydrolysis at high or low pH.

>  <s_lp_Force_Field>  (460) 
OPLS3e

>  <r_lp_Energy>  (460) 
381.677

>  <b_lp_Chiralities_Consistent>  (460) 
1

>  <s_lp_Variant>  (460) 
117:0-3

>  <s_i_glide_gridfile>  (460) 
pfpi4k_grid

>  <i_i_glide_lignum>  (460) 
41

>  <i_i_glide_rotatable_bonds>  (460) 
3

>  <r_i_docking_score>  (460) 
-2.50146

>  <r_i_glide_ligand_efficiency>  (460) 
-0.0781705

>  <r_i_glide_ligand_efficiency_sa>  (460) 
-0.248176

>  <r_i_glide_ligand_efficiency_ln>  (460) 
-0.560144

>  <r_i_glide_gscore>  (460) 
-2.50146

>  <r_i_glide_lipo>  (460) 
-0.0537019

>  <r_i_glide_hbond>  (460) 
0

>  <r_i_glide_metal>  (460) 
-0

>  <r_i_glide_rewards>  (460) 
-0.368999

>  <r_i_glide_evdw>  (460) 
-16.144

>  <r_i_glide_ecoul>  (460) 
-8.92128

>  <r_i_glide_erotb>  (460) 
0.100391

>  <r_i_glide_esite>  (460) 
-0.0337527

>  <r_i_glide_emodel>  (460) 
-24.6839

>  <r_i_glide_energy>  (460) 
-25.0653

>  <r_i_glide_einternal>  (460) 
10.1251

>  <r_i_glide_intrahb_reward>  (460) 
-0

>  <i_i_glide_confnum>  (460) 
5

>  <i_i_glide_posenum>  (460) 
31

>  <r_i_glide_eff_state_penalty>  (460) 
0

>  <ligand_id>  (460) 
117

>  <original_smiles>  (460) 
CC12CCCC3(C)C1C1(C)CC4OC5CC(=O)C3(CC(=O)C(O)(CO)C2)CC54COC1=O

>  <smiles>  (460) 
[H]OC([H])([H])C1(O[H])C(=O)C([H])([H])C23C(=O)C([H])([H])C4([H])OC5([H])C([H])([H])C(C([H])([H])[H])(C(=O)OC([H])([H])C45C2([H])[H])C2([H])C(C([H])([H])[H])(C([H])([H])C([H])([H])C([H])([H])C23C([H])([H])[H])C1([H])[H]

$$$$
117:2:2
     RDKit          3D

 66 71  0  0  1  0  0  0  0  0999 V2000
   -1.5774    1.5571    6.9597 C   0  0  0  0  0  0  0  0  0  0  0  0
   -0.0016    1.9200    6.9608 C   0  0  1  0  0  0  0  0  0  0  0  0
    0.2087    1.8324    8.4812 C   0  0  0  0  0  0  0  0  0  0  0  0
    0.0588    0.2958    8.8430 C   0  0  0  0  0  0  0  0  0  0  0  0
   -0.0520   -0.7030    7.5971 C   0  0  0  0  0  0  0  0  0  0  0  0
    1.1323   -0.4823    6.5943 C   0  0  2  0  0  0  0  0  0  0  0  0
    2.0921   -1.4475    7.4220 C   0  0  0  0  0  0  0  0  0  0  0  0
    1.3662    1.1199    6.5089 C   0  0  2  0  0  0  0  0  0  0  0  0
    2.9100    1.7852    6.2162 C   0  0  2  0  0  0  0  0  0  0  0  0
    2.9396    3.2830    6.6771 C   0  0  0  0  0  0  0  0  0  0  0  0
    3.6105    1.9331    4.6945 C   0  0  0  0  0  0  0  0  0  0  0  0
    4.1592    0.6531    3.8692 C   0  0  2  0  0  0  0  0  0  0  0  0
    3.7542    0.0104    2.5744 O   0  0  0  0  0  0  0  0  0  0  0  0
    3.6756   -1.3196    3.2875 C   0  0  2  0  0  0  0  0  0  0  0  0
    2.4755   -2.4224    3.3137 C   0  0  0  0  0  0  0  0  0  0  0  0
    1.3157   -2.2718    4.4486 C   0  0  0  0  0  0  0  0  0  0  0  0
    0.7222   -3.2704    4.8562 O   0  0  0  0  0  0  0  0  0  0  0  0
    0.9149   -0.8422    5.0257 C   0  0  1  0  0  0  0  0  0  0  0  0
   -0.4844   -0.2517    4.4736 C   0  0  0  0  0  0  0  0  0  0  0  0
   -0.6413    1.2046    3.8103 C   0  0  0  0  0  0  0  0  0  0  0  0
   -0.7034    1.1797    2.5801 O   0  0  0  0  0  0  0  0  0  0  0  0
   -0.7650    2.6745    4.4861 C   0  0  1  0  0  0  0  0  0  0  0  0
    0.0209    3.5370    3.6733 O   0  0  0  0  0  0  0  0  0  0  0  0
   -2.2450    3.1738    4.2573 C   0  0  0  0  0  0  0  0  0  0  0  0
   -2.3702    4.2187    3.2971 O   0  0  0  0  0  0  0  0  0  0  0  0
   -0.2261    3.1043    5.9610 C   0  0  0  0  0  0  0  0  0  0  0  0
    1.9503   -0.1265    4.2406 C   0  0  0  0  0  0  0  0  0  0  0  0
    3.4703   -0.4707    4.4571 C   0  0  2  0  0  0  0  0  0  0  0  0
    4.2702   -0.9001    5.6852 C   0  0  0  0  0  0  0  0  0  0  0  0
    4.6954    0.0832    6.6340 O   0  0  0  0  0  0  0  0  0  0  0  0
    3.9617    1.1127    7.1314 C   0  0  0  0  0  0  0  0  0  0  0  0
    4.1472    1.5112    8.2857 O   0  0  0  0  0  0  0  0  0  0  0  0
   -2.1875    2.4428    7.1299 H   0  0  0  0  0  0  0  0  0  0  0  0
   -1.9764    0.9726    7.7835 H   0  0  0  0  0  0  0  0  0  0  0  0
   -1.9983    1.1095    6.0727 H   0  0  0  0  0  0  0  0  0  0  0  0
    1.2036    2.1605    8.7800 H   0  0  0  0  0  0  0  0  0  0  0  0
   -0.4953    2.4495    9.0436 H   0  0  0  0  0  0  0  0  0  0  0  0
    0.8861    0.0064    9.4926 H   0  0  0  0  0  0  0  0  0  0  0  0
   -0.8175    0.1673    9.4746 H   0  0  0  0  0  0  0  0  0  0  0  0
   -0.1672   -1.7282    7.9546 H   0  0  0  0  0  0  0  0  0  0  0  0
   -0.9844   -0.7038    7.0659 H   0  0  0  0  0  0  0  0  0  0  0  0
    2.2754   -2.3914    6.9161 H   0  0  0  0  0  0  0  0  0  0  0  0
    1.7506   -1.8131    8.3901 H   0  0  0  0  0  0  0  0  0  0  0  0
    2.9967   -1.0362    7.8217 H   0  0  0  0  0  0  0  0  0  0  0  0
    1.0959    1.4502    5.5690 H   0  0  0  0  0  0  0  0  0  0  0  0
    2.6913    3.9709    5.8697 H   0  0  0  0  0  0  0  0  0  0  0  0
    3.9366    3.6133    6.9827 H   0  0  0  0  0  0  0  0  0  0  0  0
    2.2858    3.4955    7.5204 H   0  0  0  0  0  0  0  0  0  0  0  0
    2.9899    2.5554    4.0525 H   0  0  0  0  0  0  0  0  0  0  0  0
    4.4847    2.5709    4.8371 H   0  0  0  0  0  0  0  0  0  0  0  0
    5.2448    0.5680    3.9628 H   0  0  0  0  0  0  0  0  0  0  0  0
    4.6588   -1.7977    3.2751 H   0  0  0  0  0  0  0  0  0  0  0  0
    1.9921   -2.4808    2.3390 H   0  0  0  0  0  0  0  0  0  0  0  0
    2.9119   -3.4090    3.4812 H   0  0  0  0  0  0  0  0  0  0  0  0
   -0.7174   -0.9080    3.6386 H   0  0  0  0  0  0  0  0  0  0  0  0
   -1.3114   -0.4824    5.1288 H   0  0  0  0  0  0  0  0  0  0  0  0
    0.8581    3.1361    3.5003 H   0  0  0  0  0  0  0  0  0  0  0  0
   -2.8826    2.3659    3.8933 H   0  0  0  0  0  0  0  0  0  0  0  0
   -2.7218    3.5089    5.1778 H   0  0  0  0  0  0  0  0  0  0  0  0
   -1.6369    4.1256    2.6930 H   0  0  0  0  0  0  0  0  0  0  0  0
   -0.8877    3.8558    6.3920 H   0  0  0  0  0  0  0  0  0  0  0  0
    0.6686    3.6919    5.8668 H   0  0  0  0  0  0  0  0  0  0  0  0
    1.6133   -0.2806    3.2066 H   0  0  0  0  0  0  0  0  0  0  0  0
    1.7709    0.8785    3.9151 H   0  0  0  0  0  0  0  0  0  0  0  0
    3.9744   -1.8511    6.1001 H   0  0  0  0  0  0  0  0  0  0  0  0
    5.2460   -1.2058    5.3060 H   0  0  0  0  0  0  0  0  0  0  0  0
  2  1  1  1
  1 33  1  0
  1 34  1  0
  1 35  1  0
  2  8  1  0
  2 26  1  0
  2  3  1  0
  3  4  1  0
  3 36  1  0
  3 37  1  0
  4  5  1  0
  4 38  1  0
  4 39  1  0
  5  6  1  0
  5 40  1  0
  5 41  1  0
  6 18  1  0
  6  7  1  1
  6  8  1  0
  7 42  1  0
  7 43  1  0
  7 44  1  0
  8  9  1  0
  8 45  1  6
  9 31  1  0
  9 10  1  1
  9 11  1  0
 10 46  1  0
 10 47  1  0
 10 48  1  0
 11 12  1  0
 11 49  1  0
 11 50  1  0
 12 28  1  0
 12 13  1  0
 12 51  1  6
 13 14  1  0
 14 28  1  0
 14 15  1  0
 14 52  1  1
 15 16  1  0
 15 53  1  0
 15 54  1  0
 16 17  2  0
 16 18  1  0
 18 19  1  6
 18 27  1  0
 19 20  1  0
 19 55  1  0
 19 56  1  0
 20 21  2  0
 20 22  1  0
 22 23  1  6
 22 24  1  0
 22 26  1  0
 23 57  1  0
 24 25  1  0
 24 58  1  0
 24 59  1  0
 25 60  1  0
 26 61  1  0
 26 62  1  0
 27 28  1  0
 27 63  1  0
 27 64  1  0
 28 29  1  1
 29 30  1  0
 29 65  1  0
 29 66  1  0
 30 31  1  0
 31 32  2  0
M  END
>  <i_m_ct_stereo_status>  (461) 
1

>  <s_m_source_file>  (461) 
/var/tmp/pbs.5076255.sched01/tmp1cu33jom/138ve8n868x.sdf

>  <i_m_source_file_index>  (461) 
41

>  <i_lp_mmshare_version>  (461) 
48012

>  <i_f3d_flags>  (461) 
0

>  <s_epik_input>  (461) 
W0NIMl0xQyg9TylbQ0BAXShbT0hdKShbQ0gyXVtPSF0pW0NIMl1bQ0BdKFtDSDNdKShbQ0gyXVtDSDJdW0NIMl0yKVtDQEhdKEMyKFtDQF0xMzQpW0NIM10pW0NAXTUoW0NIM10pW0NIMl1bQ0hdNltDQEBdKFtDSDJdNCkoW0NASF0oTzYpW0NIMl1DMz1PKVtDSDJdT0M1PU8=

>  <s_epik_cmdline>  (461) 
J2VwaWtfcHl0aG9uJywgJy1waHQnLCAnMi4wJywgJy1waCcsICc3LjAnLCAnLXRuJywgJzgnLCAnLW1hJywgJzIwMCcsICctaW1hZScsICc8aW5maWxlLm1hZT4nLCAnLW9tYWUnLCAnPG91dGZpbGUubWFlPic=

>  <r_lp_tautomer_probability>  (461) 
1

>  <r_epik_Ionization_Penalty>  (461) 
8.14173e-08

>  <r_epik_Ionization_Penalty_Charging>  (461) 
0

>  <r_epik_Ionization_Penalty_Neutral>  (461) 
8.14173e-08

>  <r_epik_State_Penalty>  (461) 
-0

>  <r_epik_Charging_Adjusted_Penalty>  (461) 
0

>  <i_epik_Tot_Q>  (461) 
0

>  <i_epik_Tot_abs_Q>  (461) 
0

>  <s_epik_Chemistry_Notes>  (461) 
This compound has an ester and may undergo hydrolysis at high or low pH.

>  <s_lp_Force_Field>  (461) 
OPLS3e

>  <r_lp_Energy>  (461) 
381.677

>  <b_lp_Chiralities_Consistent>  (461) 
1

>  <s_lp_Variant>  (461) 
117:0-3

>  <s_i_glide_gridfile>  (461) 
pfpi4k_grid

>  <i_i_glide_lignum>  (461) 
41

>  <i_i_glide_rotatable_bonds>  (461) 
3

>  <r_i_docking_score>  (461) 
-1.54828

>  <r_i_glide_ligand_efficiency>  (461) 
-0.0483838

>  <r_i_glide_ligand_efficiency_sa>  (461) 
-0.153609

>  <r_i_glide_ligand_efficiency_ln>  (461) 
-0.346703

>  <r_i_glide_gscore>  (461) 
-1.54828

>  <r_i_glide_lipo>  (461) 
-0.00422968

>  <r_i_glide_hbond>  (461) 
0

>  <r_i_glide_metal>  (461) 
-0

>  <r_i_glide_rewards>  (461) 
-0.364546

>  <r_i_glide_evdw>  (461) 
-19.4426

>  <r_i_glide_ecoul>  (461) 
-1.88392

>  <r_i_glide_erotb>  (461) 
0.100391

>  <r_i_glide_esite>  (461) 
-0.0251811

>  <r_i_glide_emodel>  (461) 
-15.983

>  <r_i_glide_energy>  (461) 
-21.3265

>  <r_i_glide_einternal>  (461) 
14.9925

>  <r_i_glide_intrahb_reward>  (461) 
-0

>  <i_i_glide_confnum>  (461) 
5

>  <i_i_glide_posenum>  (461) 
9

>  <r_i_glide_eff_state_penalty>  (461) 
0

>  <ligand_id>  (461) 
117

>  <original_smiles>  (461) 
CC12CCCC3(C)C1C1(C)CC4OC5CC(=O)C3(CC(=O)C(O)(CO)C2)CC54COC1=O

>  <smiles>  (461) 
[H]OC([H])([H])C1(O[H])C(=O)C([H])([H])C23C(=O)C([H])([H])C4([H])OC5([H])C([H])([H])C(C([H])([H])[H])(C(=O)OC([H])([H])C45C2([H])[H])C2([H])C(C([H])([H])[H])(C([H])([H])C([H])([H])C([H])([H])C23C([H])([H])[H])C1([H])[H]

$$$$
117:3:0
     RDKit          3D

 66 71  0  0  1  0  0  0  0  0999 V2000
    3.5264   -6.8101    4.7994 C   0  0  0  0  0  0  0  0  0  0  0  0
    2.9126   -5.4132    4.3929 C   0  0  1  0  0  0  0  0  0  0  0  0
    2.9931   -4.6733    5.7641 C   0  0  0  0  0  0  0  0  0  0  0  0
    4.5043   -4.2908    6.0769 C   0  0  0  0  0  0  0  0  0  0  0  0
    5.4029   -3.7735    4.8758 C   0  0  0  0  0  0  0  0  0  0  0  0
    5.1198   -4.5292    3.4953 C   0  0  1  0  0  0  0  0  0  0  0  0
    5.9723   -5.8202    3.7440 C   0  0  0  0  0  0  0  0  0  0  0  0
    3.5367   -4.2687    3.5136 C   0  0  2  0  0  0  0  0  0  0  0  0
    2.7703   -2.8118    3.0702 C   0  0  2  0  0  0  0  0  0  0  0  0
    1.2750   -2.7943    3.5680 C   0  0  0  0  0  0  0  0  0  0  0  0
    2.4790   -2.6165    1.4874 C   0  0  0  0  0  0  0  0  0  0  0  0
    3.5646   -2.1371    0.5047 C   0  0  2  0  0  0  0  0  0  0  0  0
    4.1683   -2.9335   -0.5498 O   0  0  0  0  0  0  0  0  0  0  0  0
    5.4635   -2.3272   -0.2579 C   0  0  2  0  0  0  0  0  0  0  0  0
    6.5891   -3.4569   -0.2509 C   0  0  0  0  0  0  0  0  0  0  0  0
    6.6515   -4.3659    1.0410 C   0  0  0  0  0  0  0  0  0  0  0  0
    7.6083   -5.0998    1.2709 O   0  0  0  0  0  0  0  0  0  0  0  0
    5.3957   -4.2339    1.9494 C   0  0  1  0  0  0  0  0  0  0  0  0
    4.3854   -5.1821    1.0115 C   0  0  0  0  0  0  0  0  0  0  0  0
    3.6856   -6.5300    1.5161 C   0  0  0  0  0  0  0  0  0  0  0  0
    4.3091   -7.5791    1.3929 O   0  0  0  0  0  0  0  0  0  0  0  0
    2.1561   -6.5835    2.0379 C   0  0  1  0  0  0  0  0  0  0  0  0
    1.4095   -5.8552    1.0816 O   0  0  0  0  0  0  0  0  0  0  0  0
    1.6028   -8.0310    1.8789 C   0  0  0  0  0  0  0  0  0  0  0  0
    0.1984   -8.1033    2.0789 O   0  0  0  0  0  0  0  0  0  0  0  0
    1.7393   -6.0001    3.5090 C   0  0  0  0  0  0  0  0  0  0  0  0
    5.5680   -2.6747    2.0788 C   0  0  0  0  0  0  0  0  0  0  0  0
    4.8991   -1.8319    1.0852 C   0  0  2  0  0  0  0  0  0  0  0  0
    4.7693   -0.4495    1.7189 C   0  0  0  0  0  0  0  0  0  0  0  0
    3.7648   -0.4079    2.7858 O   0  0  0  0  0  0  0  0  0  0  0  0
    3.3013   -1.4374    3.6503 C   0  0  0  0  0  0  0  0  0  0  0  0
    3.1845   -1.2226    4.8576 O   0  0  0  0  0  0  0  0  0  0  0  0
    2.7683   -7.4386    5.2654 H   0  0  0  0  0  0  0  0  0  0  0  0
    4.2649   -6.8052    5.5919 H   0  0  0  0  0  0  0  0  0  0  0  0
    3.9155   -7.4144    3.9871 H   0  0  0  0  0  0  0  0  0  0  0  0
    2.4617   -3.7332    5.8049 H   0  0  0  0  0  0  0  0  0  0  0  0
    2.5722   -5.2702    6.5744 H   0  0  0  0  0  0  0  0  0  0  0  0
    4.5073   -3.5239    6.8507 H   0  0  0  0  0  0  0  0  0  0  0  0
    5.0150   -5.1257    6.5556 H   0  0  0  0  0  0  0  0  0  0  0  0
    5.2226   -2.7080    4.8963 H   0  0  0  0  0  0  0  0  0  0  0  0
    6.4488   -3.8549    5.1742 H   0  0  0  0  0  0  0  0  0  0  0  0
    5.7927   -6.6638    3.0908 H   0  0  0  0  0  0  0  0  0  0  0  0
    5.9913   -6.1729    4.7684 H   0  0  0  0  0  0  0  0  0  0  0  0
    7.0256   -5.5817    3.6035 H   0  0  0  0  0  0  0  0  0  0  0  0
    3.0696   -4.4998    2.6260 H   0  0  0  0  0  0  0  0  0  0  0  0
    0.6131   -3.3061    2.8808 H   0  0  0  0  0  0  0  0  0  0  0  0
    0.8587   -1.7839    3.6274 H   0  0  0  0  0  0  0  0  0  0  0  0
    1.0608   -3.2483    4.5246 H   0  0  0  0  0  0  0  0  0  0  0  0
    1.9303   -3.4401    1.0583 H   0  0  0  0  0  0  0  0  0  0  0  0
    1.7300   -1.8239    1.4310 H   0  0  0  0  0  0  0  0  0  0  0  0
    3.1888   -1.2406    0.0041 H   0  0  0  0  0  0  0  0  0  0  0  0
    5.6730   -1.5026   -0.9413 H   0  0  0  0  0  0  0  0  0  0  0  0
    6.4878   -4.1053   -1.1215 H   0  0  0  0  0  0  0  0  0  0  0  0
    7.5730   -2.9910   -0.3314 H   0  0  0  0  0  0  0  0  0  0  0  0
    3.5430   -4.6292    0.6458 H   0  0  0  0  0  0  0  0  0  0  0  0
    4.8665   -5.4715    0.0777 H   0  0  0  0  0  0  0  0  0  0  0  0
    1.8223   -5.0133    0.9872 H   0  0  0  0  0  0  0  0  0  0  0  0
    1.8131   -8.4261    0.8844 H   0  0  0  0  0  0  0  0  0  0  0  0
    2.0751   -8.7073    2.5918 H   0  0  0  0  0  0  0  0  0  0  0  0
   -0.1266   -8.8539    1.5955 H   0  0  0  0  0  0  0  0  0  0  0  0
    1.2188   -6.7795    4.0637 H   0  0  0  0  0  0  0  0  0  0  0  0
    0.9397   -5.2855    3.3932 H   0  0  0  0  0  0  0  0  0  0  0  0
    5.4797   -2.2572    3.0443 H   0  0  0  0  0  0  0  0  0  0  0  0
    6.6171   -2.3454    2.0799 H   0  0  0  0  0  0  0  0  0  0  0  0
    5.7274   -0.0938    2.0969 H   0  0  0  0  0  0  0  0  0  0  0  0
    4.4649    0.2811    0.9703 H   0  0  0  0  0  0  0  0  0  0  0  0
  2  1  1  1
  1 33  1  0
  1 34  1  0
  1 35  1  0
  2  8  1  0
  2 26  1  0
  2  3  1  0
  3  4  1  0
  3 36  1  0
  3 37  1  0
  4  5  1  0
  4 38  1  0
  4 39  1  0
  5  6  1  0
  5 40  1  0
  5 41  1  0
  6 18  1  0
  6  7  1  1
  6  8  1  0
  7 42  1  0
  7 43  1  0
  7 44  1  0
  8  9  1  0
  8 45  1  6
  9 31  1  0
  9 10  1  1
  9 11  1  0
 10 46  1  0
 10 47  1  0
 10 48  1  0
 11 12  1  0
 11 49  1  0
 11 50  1  0
 12 28  1  0
 12 13  1  0
 12 51  1  6
 13 14  1  0
 14 28  1  0
 14 15  1  0
 14 52  1  6
 15 16  1  0
 15 53  1  0
 15 54  1  0
 16 17  2  0
 16 18  1  0
 18 19  1  6
 18 27  1  0
 19 20  1  0
 19 55  1  0
 19 56  1  0
 20 21  2  0
 20 22  1  0
 22 23  1  6
 22 24  1  0
 22 26  1  0
 23 57  1  0
 24 25  1  0
 24 58  1  0
 24 59  1  0
 25 60  1  0
 26 61  1  0
 26 62  1  0
 27 28  1  0
 27 63  1  0
 27 64  1  0
 28 29  1  1
 29 30  1  0
 29 65  1  0
 29 66  1  0
 30 31  1  0
 31 32  2  0
M  END
>  <i_m_ct_stereo_status>  (462) 
1

>  <s_m_source_file>  (462) 
/var/tmp/pbs.5076255.sched01/tmp1cu33jom/138ve8n868x.sdf

>  <i_m_source_file_index>  (462) 
42

>  <i_lp_mmshare_version>  (462) 
48012

>  <i_f3d_flags>  (462) 
0

>  <s_epik_input>  (462) 
W0NIMl0xQyg9TylbQ0BAXShbT0hdKShbQ0gyXVtPSF0pW0NIMl1bQ0BdKFtDSDNdKShbQ0gyXVtDSDJdW0NIMl0yKVtDQEhdKEMyKFtDQF0xMzQpW0NIM10pW0NAXTUoW0NIM10pW0NIMl1bQ0hdNltDQEBdKFtDSDJdNCkoW0NASF0oTzYpW0NIMl1DMz1PKVtDSDJdT0M1PU8=

>  <s_epik_cmdline>  (462) 
J2VwaWtfcHl0aG9uJywgJy1waHQnLCAnMi4wJywgJy1waCcsICc3LjAnLCAnLXRuJywgJzgnLCAnLW1hJywgJzIwMCcsICctaW1hZScsICc8aW5maWxlLm1hZT4nLCAnLW9tYWUnLCAnPG91dGZpbGUubWFlPic=

>  <r_lp_tautomer_probability>  (462) 
1

>  <r_epik_Ionization_Penalty>  (462) 
8.14173e-08

>  <r_epik_Ionization_Penalty_Charging>  (462) 
0

>  <r_epik_Ionization_Penalty_Neutral>  (462) 
8.14173e-08

>  <r_epik_State_Penalty>  (462) 
-0

>  <r_epik_Charging_Adjusted_Penalty>  (462) 
0

>  <i_epik_Tot_Q>  (462) 
0

>  <i_epik_Tot_abs_Q>  (462) 
0

>  <s_epik_Chemistry_Notes>  (462) 
This compound has an ester and may undergo hydrolysis at high or low pH.

>  <s_lp_Force_Field>  (462) 
OPLS3e

>  <r_lp_Energy>  (462) 
329.08

>  <b_lp_Chiralities_Consistent>  (462) 
1

>  <s_lp_Variant>  (462) 
117:0-4

>  <s_i_glide_gridfile>  (462) 
pfpi4k_grid

>  <i_i_glide_lignum>  (462) 
42

>  <i_i_glide_rotatable_bonds>  (462) 
3

>  <r_i_docking_score>  (462) 
-2.9187

>  <r_i_glide_ligand_efficiency>  (462) 
-0.0912094

>  <r_i_glide_ligand_efficiency_sa>  (462) 
-0.289572

>  <r_i_glide_ligand_efficiency_ln>  (462) 
-0.653576

>  <r_i_glide_gscore>  (462) 
-2.9187

>  <r_i_glide_lipo>  (462) 
-0.480716

>  <r_i_glide_hbond>  (462) 
0

>  <r_i_glide_metal>  (462) 
-0

>  <r_i_glide_rewards>  (462) 
-0.588447

>  <r_i_glide_evdw>  (462) 
-21.8428

>  <r_i_glide_ecoul>  (462) 
-5.71857

>  <r_i_glide_erotb>  (462) 
0.100391

>  <r_i_glide_esite>  (462) 
0

>  <r_i_glide_emodel>  (462) 
-26.3294

>  <r_i_glide_energy>  (462) 
-27.5614

>  <r_i_glide_einternal>  (462) 
11.3401

>  <r_i_glide_intrahb_reward>  (462) 
-0

>  <i_i_glide_confnum>  (462) 
5

>  <i_i_glide_posenum>  (462) 
4

>  <r_i_glide_eff_state_penalty>  (462) 
0

>  <ligand_id>  (462) 
117

>  <original_smiles>  (462) 
CC12CCCC3(C)C1C1(C)CC4OC5CC(=O)C3(CC(=O)C(O)(CO)C2)CC54COC1=O

>  <smiles>  (462) 
[H]OC([H])([H])C1(O[H])C(=O)C([H])([H])C23C(=O)C([H])([H])C4([H])OC5([H])C([H])([H])C(C([H])([H])[H])(C(=O)OC([H])([H])C45C2([H])[H])C2([H])C(C([H])([H])[H])(C([H])([H])C([H])([H])C([H])([H])C23C([H])([H])[H])C1([H])[H]

$$$$
117:3:1
     RDKit          3D

 66 71  0  0  1  0  0  0  0  0999 V2000
    3.5106   -6.8081    4.8239 C   0  0  0  0  0  0  0  0  0  0  0  0
    2.8983   -5.4121    4.4115 C   0  0  1  0  0  0  0  0  0  0  0  0
    2.9703   -4.6700    5.7826 C   0  0  0  0  0  0  0  0  0  0  0  0
    4.4794   -4.2866    6.1069 C   0  0  0  0  0  0  0  0  0  0  0  0
    5.3877   -3.7699    4.9121 C   0  0  0  0  0  0  0  0  0  0  0  0
    5.1128   -4.5275    3.5305 C   0  0  1  0  0  0  0  0  0  0  0  0
    5.9645   -5.8177    3.7864 C   0  0  0  0  0  0  0  0  0  0  0  0
    3.5295   -4.2674    3.5367 C   0  0  2  0  0  0  0  0  0  0  0  0
    2.7672   -2.8112    3.0837 C   0  0  2  0  0  0  0  0  0  0  0  0
    1.2690   -2.7930    3.5720 C   0  0  0  0  0  0  0  0  0  0  0  0
    2.4880   -2.6216    1.4983 C   0  0  0  0  0  0  0  0  0  0  0  0
    3.5806   -2.1414    0.5245 C   0  0  2  0  0  0  0  0  0  0  0  0
    4.1941   -2.9352   -0.5261 O   0  0  0  0  0  0  0  0  0  0  0  0
    5.4858   -2.3277   -0.2226 C   0  0  2  0  0  0  0  0  0  0  0  0
    6.6118   -3.4586   -0.2059 C   0  0  0  0  0  0  0  0  0  0  0  0
    6.6644   -4.3659    1.0873 C   0  0  0  0  0  0  0  0  0  0  0  0
    7.6206   -5.1030    1.3249 O   0  0  0  0  0  0  0  0  0  0  0  0
    5.4027   -4.2330    1.9869 C   0  0  1  0  0  0  0  0  0  0  0  0
    4.3978   -5.1798    1.0428 C   0  0  0  0  0  0  0  0  0  0  0  0
    3.6928   -6.5225    1.5437 C   0  0  0  0  0  0  0  0  0  0  0  0
    4.3164   -7.5749    1.4189 O   0  0  0  0  0  0  0  0  0  0  0  0
    2.1590   -6.5802    2.0481 C   0  0  1  0  0  0  0  0  0  0  0  0
    1.4157   -5.8541    1.0836 O   0  0  0  0  0  0  0  0  0  0  0  0
    1.6131   -8.0285    1.8834 C   0  0  0  0  0  0  0  0  0  0  0  0
    0.2049   -8.0995    2.0797 O   0  0  0  0  0  0  0  0  0  0  0  0
    1.7307   -5.9993    3.5174 C   0  0  0  0  0  0  0  0  0  0  0  0
    5.5699   -2.6740    2.1148 C   0  0  0  0  0  0  0  0  0  0  0  0
    4.9097   -1.8331    1.1158 C   0  0  2  0  0  0  0  0  0  0  0  0
    4.7753   -0.4510    1.7471 C   0  0  0  0  0  0  0  0  0  0  0  0
    3.7625   -0.4081    2.8058 O   0  0  0  0  0  0  0  0  0  0  0  0
    3.2922   -1.4356    3.6671 C   0  0  0  0  0  0  0  0  0  0  0  0
    3.1677   -1.2192    4.8740 O   0  0  0  0  0  0  0  0  0  0  0  0
    2.7482   -7.4344    5.2851 H   0  0  0  0  0  0  0  0  0  0  0  0
    4.2432   -6.8012    5.6223 H   0  0  0  0  0  0  0  0  0  0  0  0
    3.9053   -7.4125    4.0141 H   0  0  0  0  0  0  0  0  0  0  0  0
    2.4372   -3.7307    5.8196 H   0  0  0  0  0  0  0  0  0  0  0  0
    2.5433   -5.2673    6.5888 H   0  0  0  0  0  0  0  0  0  0  0  0
    4.4742   -3.5183    6.8796 H   0  0  0  0  0  0  0  0  0  0  0  0
    4.9862   -5.1220    6.5899 H   0  0  0  0  0  0  0  0  0  0  0  0
    5.2069   -2.7041    4.9303 H   0  0  0  0  0  0  0  0  0  0  0  0
    6.4326   -3.8493    5.2165 H   0  0  0  0  0  0  0  0  0  0  0  0
    5.7888   -6.6611    3.1316 H   0  0  0  0  0  0  0  0  0  0  0  0
    5.9747   -6.1691    4.8116 H   0  0  0  0  0  0  0  0  0  0  0  0
    7.0188   -5.5778    3.6531 H   0  0  0  0  0  0  0  0  0  0  0  0
    3.0671   -4.4972    2.6452 H   0  0  0  0  0  0  0  0  0  0  0  0
    0.6131   -3.3080    2.8821 H   0  0  0  0  0  0  0  0  0  0  0  0
    0.8509   -1.7828    3.6252 H   0  0  0  0  0  0  0  0  0  0  0  0
    1.0475   -3.2445    4.5286 H   0  0  0  0  0  0  0  0  0  0  0  0
    1.9473   -3.4537    1.0711 H   0  0  0  0  0  0  0  0  0  0  0  0
    1.7358   -1.8330    1.4327 H   0  0  0  0  0  0  0  0  0  0  0  0
    3.2079   -1.2457    0.0224 H   0  0  0  0  0  0  0  0  0  0  0  0
    5.7004   -1.5038   -0.9053 H   0  0  0  0  0  0  0  0  0  0  0  0
    6.5176   -4.1076   -1.0778 H   0  0  0  0  0  0  0  0  0  0  0  0
    7.5955   -2.9912   -0.2790 H   0  0  0  0  0  0  0  0  0  0  0  0
    3.5536   -4.6298    0.6739 H   0  0  0  0  0  0  0  0  0  0  0  0
    4.8860   -5.4720    0.1138 H   0  0  0  0  0  0  0  0  0  0  0  0
    1.6308   -6.2143    0.2363 H   0  0  0  0  0  0  0  0  0  0  0  0
    1.8229   -8.4230    0.8883 H   0  0  0  0  0  0  0  0  0  0  0  0
    2.0883   -8.7092    2.5919 H   0  0  0  0  0  0  0  0  0  0  0  0
   -0.1137   -8.8672    1.6237 H   0  0  0  0  0  0  0  0  0  0  0  0
    1.2070   -6.7787    4.0697 H   0  0  0  0  0  0  0  0  0  0  0  0
    0.9342   -5.2836    3.3945 H   0  0  0  0  0  0  0  0  0  0  0  0
    5.4786   -2.2553    3.0803 H   0  0  0  0  0  0  0  0  0  0  0  0
    6.6173   -2.3411    2.1149 H   0  0  0  0  0  0  0  0  0  0  0  0
    5.7302   -0.0967    2.1334 H   0  0  0  0  0  0  0  0  0  0  0  0
    4.4791    0.2788    0.9949 H   0  0  0  0  0  0  0  0  0  0  0  0
  2  1  1  1
  1 33  1  0
  1 34  1  0
  1 35  1  0
  2  8  1  0
  2 26  1  0
  2  3  1  0
  3  4  1  0
  3 36  1  0
  3 37  1  0
  4  5  1  0
  4 38  1  0
  4 39  1  0
  5  6  1  0
  5 40  1  0
  5 41  1  0
  6 18  1  0
  6  7  1  1
  6  8  1  0
  7 42  1  0
  7 43  1  0
  7 44  1  0
  8  9  1  0
  8 45  1  6
  9 31  1  0
  9 10  1  1
  9 11  1  0
 10 46  1  0
 10 47  1  0
 10 48  1  0
 11 12  1  0
 11 49  1  0
 11 50  1  0
 12 28  1  0
 12 13  1  0
 12 51  1  6
 13 14  1  0
 14 28  1  0
 14 15  1  0
 14 52  1  6
 15 16  1  0
 15 53  1  0
 15 54  1  0
 16 17  2  0
 16 18  1  0
 18 19  1  6
 18 27  1  0
 19 20  1  0
 19 55  1  0
 19 56  1  0
 20 21  2  0
 20 22  1  0
 22 23  1  6
 22 24  1  0
 22 26  1  0
 23 57  1  0
 24 25  1  0
 24 58  1  0
 24 59  1  0
 25 60  1  0
 26 61  1  0
 26 62  1  0
 27 28  1  0
 27 63  1  0
 27 64  1  0
 28 29  1  1
 29 30  1  0
 29 65  1  0
 29 66  1  0
 30 31  1  0
 31 32  2  0
M  END
>  <i_m_ct_stereo_status>  (463) 
1

>  <s_m_source_file>  (463) 
/var/tmp/pbs.5076255.sched01/tmp1cu33jom/138ve8n868x.sdf

>  <i_m_source_file_index>  (463) 
42

>  <i_lp_mmshare_version>  (463) 
48012

>  <i_f3d_flags>  (463) 
0

>  <s_epik_input>  (463) 
W0NIMl0xQyg9TylbQ0BAXShbT0hdKShbQ0gyXVtPSF0pW0NIMl1bQ0BdKFtDSDNdKShbQ0gyXVtDSDJdW0NIMl0yKVtDQEhdKEMyKFtDQF0xMzQpW0NIM10pW0NAXTUoW0NIM10pW0NIMl1bQ0hdNltDQEBdKFtDSDJdNCkoW0NASF0oTzYpW0NIMl1DMz1PKVtDSDJdT0M1PU8=

>  <s_epik_cmdline>  (463) 
J2VwaWtfcHl0aG9uJywgJy1waHQnLCAnMi4wJywgJy1waCcsICc3LjAnLCAnLXRuJywgJzgnLCAnLW1hJywgJzIwMCcsICctaW1hZScsICc8aW5maWxlLm1hZT4nLCAnLW9tYWUnLCAnPG91dGZpbGUubWFlPic=

>  <r_lp_tautomer_probability>  (463) 
1

>  <r_epik_Ionization_Penalty>  (463) 
8.14173e-08

>  <r_epik_Ionization_Penalty_Charging>  (463) 
0

>  <r_epik_Ionization_Penalty_Neutral>  (463) 
8.14173e-08

>  <r_epik_State_Penalty>  (463) 
-0

>  <r_epik_Charging_Adjusted_Penalty>  (463) 
0

>  <i_epik_Tot_Q>  (463) 
0

>  <i_epik_Tot_abs_Q>  (463) 
0

>  <s_epik_Chemistry_Notes>  (463) 
This compound has an ester and may undergo hydrolysis at high or low pH.

>  <s_lp_Force_Field>  (463) 
OPLS3e

>  <r_lp_Energy>  (463) 
329.08

>  <b_lp_Chiralities_Consistent>  (463) 
1

>  <s_lp_Variant>  (463) 
117:0-4

>  <s_i_glide_gridfile>  (463) 
pfpi4k_grid

>  <i_i_glide_lignum>  (463) 
42

>  <i_i_glide_rotatable_bonds>  (463) 
3

>  <r_i_docking_score>  (463) 
-2.76544

>  <r_i_glide_ligand_efficiency>  (463) 
-0.08642

>  <r_i_glide_ligand_efficiency_sa>  (463) 
-0.274366

>  <r_i_glide_ligand_efficiency_ln>  (463) 
-0.619257

>  <r_i_glide_gscore>  (463) 
-2.76544

>  <r_i_glide_lipo>  (463) 
-0.479486

>  <r_i_glide_hbond>  (463) 
0

>  <r_i_glide_metal>  (463) 
-0

>  <r_i_glide_rewards>  (463) 
-0.585136

>  <r_i_glide_evdw>  (463) 
-21.7774

>  <r_i_glide_ecoul>  (463) 
-4.74892

>  <r_i_glide_erotb>  (463) 
0.100391

>  <r_i_glide_esite>  (463) 
0

>  <r_i_glide_emodel>  (463) 
-25.2387

>  <r_i_glide_energy>  (463) 
-26.5263

>  <r_i_glide_einternal>  (463) 
11.1865

>  <r_i_glide_intrahb_reward>  (463) 
-0

>  <i_i_glide_confnum>  (463) 
5

>  <i_i_glide_posenum>  (463) 
10

>  <r_i_glide_eff_state_penalty>  (463) 
0

>  <ligand_id>  (463) 
117

>  <original_smiles>  (463) 
CC12CCCC3(C)C1C1(C)CC4OC5CC(=O)C3(CC(=O)C(O)(CO)C2)CC54COC1=O

>  <smiles>  (463) 
[H]OC([H])([H])C1(O[H])C(=O)C([H])([H])C23C(=O)C([H])([H])C4([H])OC5([H])C([H])([H])C(C([H])([H])[H])(C(=O)OC([H])([H])C45C2([H])[H])C2([H])C(C([H])([H])[H])(C([H])([H])C([H])([H])C([H])([H])C23C([H])([H])[H])C1([H])[H]

$$$$
117:3:2
     RDKit          3D

 66 71  0  0  1  0  0  0  0  0999 V2000
    6.2858   -2.7660   -1.5307 C   0  0  0  0  0  0  0  0  0  0  0  0
    5.6871   -3.7926   -0.4913 C   0  0  1  0  0  0  0  0  0  0  0  0
    7.0055   -4.3078    0.1526 C   0  0  0  0  0  0  0  0  0  0  0  0
    7.5855   -3.1645    1.0664 C   0  0  0  0  0  0  0  0  0  0  0  0
    6.5576   -2.3248    1.9517 C   0  0  0  0  0  0  0  0  0  0  0  0
    5.2025   -1.9985    1.2404 C   0  0  1  0  0  0  0  0  0  0  0  0
    5.7118   -0.7632    0.4189 C   0  0  0  0  0  0  0  0  0  0  0  0
    4.9150   -3.5391    0.8586 C   0  0  2  0  0  0  0  0  0  0  0  0
    4.2515   -4.7022    1.9067 C   0  0  2  0  0  0  0  0  0  0  0  0
    4.3951   -6.1471    1.2772 C   0  0  0  0  0  0  0  0  0  0  0  0
    2.6336   -4.6868    2.0552 C   0  0  0  0  0  0  0  0  0  0  0  0
    1.8965   -3.7025    2.9912 C   0  0  2  0  0  0  0  0  0  0  0  0
    1.0150   -2.6016    2.5933 O   0  0  0  0  0  0  0  0  0  0  0  0
    1.5742   -1.7809    3.6646 C   0  0  2  0  0  0  0  0  0  0  0  0
    1.8651   -0.3396    3.0667 C   0  0  0  0  0  0  0  0  0  0  0  0
    3.1510   -0.2036    2.1841 C   0  0  0  0  0  0  0  0  0  0  0  0
    3.5136    0.8859    1.7721 O   0  0  0  0  0  0  0  0  0  0  0  0
    3.7894   -1.5631    1.7585 C   0  0  1  0  0  0  0  0  0  0  0  0
    2.7524   -1.8850    0.5254 C   0  0  0  0  0  0  0  0  0  0  0  0
    3.2149   -2.0495   -1.0073 C   0  0  0  0  0  0  0  0  0  0  0  0
    3.4386   -1.0631   -1.7076 O   0  0  0  0  0  0  0  0  0  0  0  0
    3.2722   -3.4737   -1.7063 C   0  0  1  0  0  0  0  0  0  0  0  0
    2.1638   -4.2073   -1.2145 O   0  0  0  0  0  0  0  0  0  0  0  0
    3.0644   -3.3190   -3.2553 C   0  0  0  0  0  0  0  0  0  0  0  0
    1.8678   -2.6583   -3.6057 O   0  0  0  0  0  0  0  0  0  0  0  0
    4.5911   -4.3997   -1.4551 C   0  0  0  0  0  0  0  0  0  0  0  0
    3.8869   -2.0608    3.2442 C   0  0  0  0  0  0  0  0  0  0  0  0
    2.7372   -2.7789    3.7879 C   0  0  2  0  0  0  0  0  0  0  0  0
    3.2767   -3.6024    4.9543 C   0  0  0  0  0  0  0  0  0  0  0  0
    4.0887   -4.7465    4.5186 O   0  0  0  0  0  0  0  0  0  0  0  0
    4.8772   -4.9246    3.3437 C   0  0  0  0  0  0  0  0  0  0  0  0
    6.0182   -5.3697    3.4256 O   0  0  0  0  0  0  0  0  0  0  0  0
    6.5928   -3.2809   -2.4374 H   0  0  0  0  0  0  0  0  0  0  0  0
    7.2114   -2.2793   -1.2620 H   0  0  0  0  0  0  0  0  0  0  0  0
    5.6227   -1.9928   -1.8858 H   0  0  0  0  0  0  0  0  0  0  0  0
    6.8837   -5.1687    0.7960 H   0  0  0  0  0  0  0  0  0  0  0  0
    7.7738   -4.5838   -0.5654 H   0  0  0  0  0  0  0  0  0  0  0  0
    8.3134   -3.6916    1.6715 H   0  0  0  0  0  0  0  0  0  0  0  0
    8.2173   -2.4870    0.5072 H   0  0  0  0  0  0  0  0  0  0  0  0
    6.4277   -2.9610    2.7951 H   0  0  0  0  0  0  0  0  0  0  0  0
    6.9210   -1.3802    2.3524 H   0  0  0  0  0  0  0  0  0  0  0  0
    5.1043   -0.3989   -0.3885 H   0  0  0  0  0  0  0  0  0  0  0  0
    6.7343   -0.8226    0.0751 H   0  0  0  0  0  0  0  0  0  0  0  0
    5.7762    0.1021    1.0764 H   0  0  0  0  0  0  0  0  0  0  0  0
    3.9647   -3.7282    0.5222 H   0  0  0  0  0  0  0  0  0  0  0  0
    3.5840   -6.3811    0.5871 H   0  0  0  0  0  0  0  0  0  0  0  0
    4.3390   -6.9376    2.0311 H   0  0  0  0  0  0  0  0  0  0  0  0
    5.3056   -6.3504    0.7279 H   0  0  0  0  0  0  0  0  0  0  0  0
    2.1319   -4.7548    1.1037 H   0  0  0  0  0  0  0  0  0  0  0  0
    2.3865   -5.6665    2.4677 H   0  0  0  0  0  0  0  0  0  0  0  0
    1.2933   -4.2886    3.6736 H   0  0  0  0  0  0  0  0  0  0  0  0
    0.9162   -1.7883    4.5259 H   0  0  0  0  0  0  0  0  0  0  0  0
    1.0204    0.0114    2.4715 H   0  0  0  0  0  0  0  0  0  0  0  0
    1.9800    0.3801    3.8794 H   0  0  0  0  0  0  0  0  0  0  0  0
    2.1611   -2.7627    0.6990 H   0  0  0  0  0  0  0  0  0  0  0  0
    1.9891   -1.1408    0.5632 H   0  0  0  0  0  0  0  0  0  0  0  0
    2.1673   -5.0181   -1.7302 H   0  0  0  0  0  0  0  0  0  0  0  0
    3.9136   -2.7831   -3.6991 H   0  0  0  0  0  0  0  0  0  0  0  0
    3.0045   -4.2560   -3.7924 H   0  0  0  0  0  0  0  0  0  0  0  0
    1.6020   -2.0924   -2.8797 H   0  0  0  0  0  0  0  0  0  0  0  0
    5.0266   -4.6523   -2.4177 H   0  0  0  0  0  0  0  0  0  0  0  0
    4.2975   -5.3703   -1.0922 H   0  0  0  0  0  0  0  0  0  0  0  0
    4.7806   -2.5237    3.5612 H   0  0  0  0  0  0  0  0  0  0  0  0
    4.1164   -1.2534    3.9578 H   0  0  0  0  0  0  0  0  0  0  0  0
    3.8383   -2.9803    5.6593 H   0  0  0  0  0  0  0  0  0  0  0  0
    2.4473   -4.0098    5.5289 H   0  0  0  0  0  0  0  0  0  0  0  0
  2  1  1  6
  1 33  1  0
  1 34  1  0
  1 35  1  0
  2  8  1  0
  2 26  1  0
  2  3  1  0
  3  4  1  0
  3 36  1  0
  3 37  1  0
  4  5  1  0
  4 38  1  0
  4 39  1  0
  5  6  1  0
  5 40  1  0
  5 41  1  0
  6 18  1  0
  6  7  1  6
  6  8  1  0
  7 42  1  0
  7 43  1  0
  7 44  1  0
  8  9  1  0
  8 45  1  6
  9 31  1  0
  9 10  1  6
  9 11  1  0
 10 46  1  0
 10 47  1  0
 10 48  1  0
 11 12  1  0
 11 49  1  0
 11 50  1  0
 12 28  1  0
 12 13  1  0
 12 51  1  1
 13 14  1  0
 14 28  1  0
 14 15  1  0
 14 52  1  1
 15 16  1  0
 15 53  1  0
 15 54  1  0
 16 17  2  0
 16 18  1  0
 18 19  1  6
 18 27  1  0
 19 20  1  0
 19 55  1  0
 19 56  1  0
 20 21  2  0
 20 22  1  0
 22 23  1  1
 22 24  1  0
 22 26  1  0
 23 57  1  0
 24 25  1  0
 24 58  1  0
 24 59  1  0
 25 60  1  0
 26 61  1  0
 26 62  1  0
 27 28  1  0
 27 63  1  0
 27 64  1  0
 28 29  1  1
 29 30  1  0
 29 65  1  0
 29 66  1  0
 30 31  1  0
 31 32  2  0
M  END
>  <i_m_ct_stereo_status>  (464) 
1

>  <s_m_source_file>  (464) 
/var/tmp/pbs.5076255.sched01/tmp1cu33jom/138ve8n868x.sdf

>  <i_m_source_file_index>  (464) 
42

>  <i_lp_mmshare_version>  (464) 
48012

>  <i_f3d_flags>  (464) 
0

>  <s_epik_input>  (464) 
W0NIMl0xQyg9TylbQ0BAXShbT0hdKShbQ0gyXVtPSF0pW0NIMl1bQ0BdKFtDSDNdKShbQ0gyXVtDSDJdW0NIMl0yKVtDQEhdKEMyKFtDQF0xMzQpW0NIM10pW0NAXTUoW0NIM10pW0NIMl1bQ0hdNltDQEBdKFtDSDJdNCkoW0NASF0oTzYpW0NIMl1DMz1PKVtDSDJdT0M1PU8=

>  <s_epik_cmdline>  (464) 
J2VwaWtfcHl0aG9uJywgJy1waHQnLCAnMi4wJywgJy1waCcsICc3LjAnLCAnLXRuJywgJzgnLCAnLW1hJywgJzIwMCcsICctaW1hZScsICc8aW5maWxlLm1hZT4nLCAnLW9tYWUnLCAnPG91dGZpbGUubWFlPic=

>  <r_lp_tautomer_probability>  (464) 
1

>  <r_epik_Ionization_Penalty>  (464) 
8.14173e-08

>  <r_epik_Ionization_Penalty_Charging>  (464) 
0

>  <r_epik_Ionization_Penalty_Neutral>  (464) 
8.14173e-08

>  <r_epik_State_Penalty>  (464) 
-0

>  <r_epik_Charging_Adjusted_Penalty>  (464) 
0

>  <i_epik_Tot_Q>  (464) 
0

>  <i_epik_Tot_abs_Q>  (464) 
0

>  <s_epik_Chemistry_Notes>  (464) 
This compound has an ester and may undergo hydrolysis at high or low pH.

>  <s_lp_Force_Field>  (464) 
OPLS3e

>  <r_lp_Energy>  (464) 
329.08

>  <b_lp_Chiralities_Consistent>  (464) 
1

>  <s_lp_Variant>  (464) 
117:0-4

>  <s_i_glide_gridfile>  (464) 
pfpi4k_grid

>  <i_i_glide_lignum>  (464) 
42

>  <i_i_glide_rotatable_bonds>  (464) 
3

>  <r_i_docking_score>  (464) 
-1.35481

>  <r_i_glide_ligand_efficiency>  (464) 
-0.0423377

>  <r_i_glide_ligand_efficiency_sa>  (464) 
-0.134414

>  <r_i_glide_ligand_efficiency_ln>  (464) 
-0.303378

>  <r_i_glide_gscore>  (464) 
-1.35481

>  <r_i_glide_lipo>  (464) 
-0.739956

>  <r_i_glide_hbond>  (464) 
0

>  <r_i_glide_metal>  (464) 
-0

>  <r_i_glide_rewards>  (464) 
-0.37033

>  <r_i_glide_evdw>  (464) 
1.1195

>  <r_i_glide_ecoul>  (464) 
-2.02781

>  <r_i_glide_erotb>  (464) 
0.100391

>  <r_i_glide_esite>  (464) 
-0.0967167

>  <r_i_glide_emodel>  (464) 
1.8919

>  <r_i_glide_energy>  (464) 
-0.908311

>  <r_i_glide_einternal>  (464) 
7.26443

>  <r_i_glide_intrahb_reward>  (464) 
-0

>  <i_i_glide_confnum>  (464) 
5

>  <i_i_glide_posenum>  (464) 
35

>  <r_i_glide_eff_state_penalty>  (464) 
0

>  <ligand_id>  (464) 
117

>  <original_smiles>  (464) 
CC12CCCC3(C)C1C1(C)CC4OC5CC(=O)C3(CC(=O)C(O)(CO)C2)CC54COC1=O

>  <smiles>  (464) 
[H]OC([H])([H])C1(O[H])C(=O)C([H])([H])C23C(=O)C([H])([H])C4([H])OC5([H])C([H])([H])C(C([H])([H])[H])(C(=O)OC([H])([H])C45C2([H])[H])C2([H])C(C([H])([H])[H])(C([H])([H])C([H])([H])C([H])([H])C23C([H])([H])[H])C1([H])[H]

$$$$
118:0:0
     RDKit          3D

 43 47  0  0  1  0  0  0  0  0999 V2000
    6.6530   -2.7005   -1.4904 C   0  0  0  0  0  0  0  0  0  0  0  0
    5.9804   -3.2210   -0.4437 C   0  0  0  0  0  0  0  0  0  0  0  0
    6.5673   -4.1671    0.5103 C   0  0  0  0  0  0  0  0  0  0  0  0
    7.7066   -4.6079    0.4292 O   0  0  0  0  0  0  0  0  0  0  0  0
    5.4917   -4.4250    1.5549 C   0  0  1  0  0  0  0  0  0  0  0  0
    4.7824   -3.0653    1.5845 C   0  0  1  0  0  0  0  0  0  0  0  0
    5.5692   -2.0508    2.1911 O   0  0  0  0  0  0  0  0  0  0  0  0
    4.6128   -2.8233    0.0707 C   0  0  2  0  0  0  0  0  0  0  0  0
    3.5300   -3.7920   -0.5052 C   0  0  0  0  0  0  0  0  0  0  0  0
    3.2639   -5.0628    0.3619 C   0  0  2  0  0  0  0  0  0  0  0  0
    2.2959   -4.7647    1.2365 F   0  0  0  0  0  0  0  0  0  0  0  0
    4.5282   -5.5306    1.1083 C   0  0  2  0  0  0  0  0  0  0  0  0
    4.5071   -6.0584    2.5530 C   0  0  2  0  0  0  0  0  0  0  0  0
    5.7774   -5.2418    2.8429 C   0  0  1  0  0  0  0  0  0  0  0  0
    7.0499   -6.0615    3.0602 C   0  0  0  0  0  0  0  0  0  0  0  0
    7.0637   -7.3374    2.2015 C   0  0  0  0  0  0  0  0  0  0  0  0
    5.8629   -8.2848    2.4624 C   0  0  1  0  0  0  0  0  0  0  0  0
    5.6960   -9.2768    1.2975 C   0  0  0  0  0  0  0  0  0  0  0  0
    6.2818   -9.0582    3.5668 O   0  0  0  0  0  0  0  0  0  0  0  0
    4.5334   -7.5591    2.8334 C   0  0  1  0  0  0  0  0  0  0  0  0
    3.6016   -8.1496    3.8805 C   0  0  0  0  0  0  0  0  0  0  0  0
    3.3105   -8.2507    2.4901 O   0  0  0  0  0  0  0  0  0  0  0  0
    6.1945   -1.9539   -2.1209 H   0  0  0  0  0  0  0  0  0  0  0  0
    7.6590   -3.0175   -1.7237 H   0  0  0  0  0  0  0  0  0  0  0  0
    3.8257   -3.0875    2.1058 H   0  0  0  0  0  0  0  0  0  0  0  0
    5.0871   -1.2399    2.1653 H   0  0  0  0  0  0  0  0  0  0  0  0
    4.3852   -1.7820   -0.1776 H   0  0  0  0  0  0  0  0  0  0  0  0
    2.5908   -3.2568   -0.6471 H   0  0  0  0  0  0  0  0  0  0  0  0
    3.8343   -4.1089   -1.5024 H   0  0  0  0  0  0  0  0  0  0  0  0
    2.8498   -5.8623   -0.2517 H   0  0  0  0  0  0  0  0  0  0  0  0
    5.0726   -6.2496    0.5007 H   0  0  0  0  0  0  0  0  0  0  0  0
    3.6882   -5.5881    3.0939 H   0  0  0  0  0  0  0  0  0  0  0  0
    5.5957   -4.5790    3.6851 H   0  0  0  0  0  0  0  0  0  0  0  0
    7.9388   -5.4608    2.8706 H   0  0  0  0  0  0  0  0  0  0  0  0
    7.1168   -6.3472    4.1089 H   0  0  0  0  0  0  0  0  0  0  0  0
    7.0787   -7.0535    1.1509 H   0  0  0  0  0  0  0  0  0  0  0  0
    8.0059   -7.8634    2.3622 H   0  0  0  0  0  0  0  0  0  0  0  0
    5.3954   -8.7553    0.3898 H   0  0  0  0  0  0  0  0  0  0  0  0
    4.9371  -10.0324    1.5137 H   0  0  0  0  0  0  0  0  0  0  0  0
    6.6335   -9.8019    1.0958 H   0  0  0  0  0  0  0  0  0  0  0  0
    5.5703   -9.6356    3.7958 H   0  0  0  0  0  0  0  0  0  0  0  0
    3.8237   -9.1067    4.3547 H   0  0  0  0  0  0  0  0  0  0  0  0
    2.9659   -7.4732    4.4491 H   0  0  0  0  0  0  0  0  0  0  0  0
  1  2  2  0
  1 23  1  0
  1 24  1  0
  2  8  1  0
  2  3  1  0
  3  4  2  0
  5  3  1  6
  5 12  1  0
  5 14  1  0
  5  6  1  0
  6  7  1  0
  6  8  1  0
  6 25  1  1
  7 26  1  0
  8  9  1  0
  8 27  1  1
  9 10  1  0
  9 28  1  0
  9 29  1  0
 10 11  1  0
 10 12  1  0
 10 30  1  6
 12 13  1  0
 12 31  1  6
 13 20  1  0
 13 14  1  0
 13 32  1  1
 14 15  1  0
 14 33  1  1
 15 16  1  0
 15 34  1  0
 15 35  1  0
 16 17  1  0
 16 36  1  0
 16 37  1  0
 17 18  1  0
 17 19  1  1
 17 20  1  0
 18 38  1  0
 18 39  1  0
 18 40  1  0
 19 41  1  0
 20 22  1  6
 20 21  1  0
 21 22  1  0
 21 42  1  0
 21 43  1  0
M  END
>  <i_m_ct_stereo_status>  (465) 
1

>  <s_m_source_file>  (465) 
/var/tmp/pbs.5076255.sched01/tmp1cu33jom/138ve8n868x.sdf

>  <i_m_source_file_index>  (465) 
43

>  <i_lp_mmshare_version>  (465) 
48012

>  <i_f3d_flags>  (465) 
0

>  <s_epik_input>  (465) 
Tz1DMUMoPVtDSDJdKVtDQEhdKFtDQEBIXTJbT0hdKVtDSDJdW0NASF0oRilbQ0BASF0oW0NAQF0xMjMpW0NASF00W0NAXTUoW0NIMl1PNSlbQ0BdKFtDSDNdKShbT0hdKVtDSDJdW0NIMl1bQ0BASF0zNA==

>  <s_epik_cmdline>  (465) 
J2VwaWtfcHl0aG9uJywgJy1waHQnLCAnMi4wJywgJy1waCcsICc3LjAnLCAnLXRuJywgJzgnLCAnLW1hJywgJzIwMCcsICctaW1hZScsICc8aW5maWxlLm1hZT4nLCAnLW9tYWUnLCAnPG91dGZpbGUubWFlPic=

>  <r_lp_tautomer_probability>  (465) 
1

>  <r_epik_Ionization_Penalty>  (465) 
2.80925e-07

>  <r_epik_Ionization_Penalty_Charging>  (465) 
0

>  <r_epik_Ionization_Penalty_Neutral>  (465) 
2.80925e-07

>  <r_epik_State_Penalty>  (465) 
-0

>  <r_epik_Charging_Adjusted_Penalty>  (465) 
0

>  <i_epik_Tot_Q>  (465) 
0

>  <i_epik_Tot_abs_Q>  (465) 
0

>  <s_lp_Force_Field>  (465) 
OPLS3e

>  <r_lp_Energy>  (465) 
42.8249

>  <b_lp_Chiralities_Consistent>  (465) 
1

>  <s_lp_Variant>  (465) 
118:0-1

>  <s_i_glide_gridfile>  (465) 
pfpi4k_grid

>  <i_i_glide_lignum>  (465) 
43

>  <i_i_glide_rotatable_bonds>  (465) 
2

>  <r_i_docking_score>  (465) 
-3.15339

>  <r_i_glide_ligand_efficiency>  (465) 
-0.143336

>  <r_i_glide_ligand_efficiency_sa>  (465) 
-0.401633

>  <r_i_glide_ligand_efficiency_ln>  (465) 
-0.770803

>  <r_i_glide_gscore>  (465) 
-3.15339

>  <r_i_glide_lipo>  (465) 
-0.277904

>  <r_i_glide_hbond>  (465) 
0

>  <r_i_glide_metal>  (465) 
-0

>  <r_i_glide_rewards>  (465) 
-1.4616

>  <r_i_glide_evdw>  (465) 
-21.4584

>  <r_i_glide_ecoul>  (465) 
-2.046

>  <r_i_glide_erotb>  (465) 
0

>  <r_i_glide_esite>  (465) 
-0.03406

>  <r_i_glide_emodel>  (465) 
-27.9014

>  <r_i_glide_energy>  (465) 
-23.5044

>  <r_i_glide_einternal>  (465) 
0.315955

>  <r_i_glide_intrahb_reward>  (465) 
-0

>  <i_i_glide_confnum>  (465) 
1

>  <i_i_glide_posenum>  (465) 
23

>  <r_i_glide_eff_state_penalty>  (465) 
0

>  <ligand_id>  (465) 
118

>  <original_smiles>  (465) 
C=C1C(=O)C23C(O)C1CC(F)C2C1C3CCC(C)(O)C12CO2

>  <smiles>  (465) 
[H]OC1([H])C2([H])C(=C([H])[H])C(=O)C13C1([H])C([H])([H])C([H])([H])C(O[H])(C([H])([H])[H])C4(OC4([H])[H])C1([H])C3([H])C([H])(F)C2([H])[H]

$$$$
