0:0:0
     RDKit          3D

 27 28  0  0  1  0  0  0  0  0999 V2000
  -10.6709   -4.8314   -8.1107 C   0  0  0  0  0  0  0  0  0  0  0  0
   -9.7059   -5.9737   -8.2720 C   0  0  0  0  0  0  0  0  0  0  0  0
   -8.6718   -5.8265   -7.5448 N   0  0  0  0  0  0  0  0  0  0  0  0
   -7.7238   -6.8631   -7.5505 N   0  0  0  0  0  0  0  0  0  0  0  0
   -6.9869   -6.7945   -6.4912 C   0  0  0  0  0  0  0  0  0  0  0  0
   -7.0768   -5.6274   -5.0837 S   0  0  0  0  0  0  0  0  0  0  0  0
   -5.7740   -6.4981   -4.3255 C   0  0  0  0  0  0  0  0  0  0  0  0
   -5.2849   -7.4810   -5.0788 C   0  0  0  0  0  0  0  0  0  0  0  0
   -5.9290   -7.6665   -6.2763 N   0  0  0  0  0  0  0  0  0  0  0  0
   -5.5250   -8.6679   -7.2524 C   0  0  0  0  0  0  0  0  0  0  0  0
  -10.0574   -7.0747   -9.2501 C   0  0  0  0  0  0  0  0  0  0  0  0
  -11.3971   -7.3756   -9.5927 C   0  0  0  0  0  0  0  0  0  0  0  0
  -11.6167   -8.4274  -10.5041 C   0  0  0  0  0  0  0  0  0  0  0  0
  -10.6027   -9.1351  -11.0245 N   0  0  0  0  0  0  0  0  0  0  0  0
   -9.3803   -8.7785  -10.6501 C   0  0  0  0  0  0  0  0  0  0  0  0
   -9.0618   -7.7851   -9.8298 N   0  0  0  0  0  0  0  0  0  0  0  0
  -11.5050   -4.9170   -8.7953 H   0  0  0  0  0  0  0  0  0  0  0  0
  -10.1449   -3.9033   -8.2884 H   0  0  0  0  0  0  0  0  0  0  0  0
  -11.0210   -4.7690   -7.0852 H   0  0  0  0  0  0  0  0  0  0  0  0
   -5.4397   -6.2423   -3.3420 H   0  0  0  0  0  0  0  0  0  0  0  0
   -4.4727   -8.1447   -4.8261 H   0  0  0  0  0  0  0  0  0  0  0  0
   -4.6838   -9.2527   -6.8948 H   0  0  0  0  0  0  0  0  0  0  0  0
   -5.2498   -8.1793   -8.1843 H   0  0  0  0  0  0  0  0  0  0  0  0
   -6.3607   -9.3343   -7.4488 H   0  0  0  0  0  0  0  0  0  0  0  0
  -12.2431   -6.8418   -9.1706 H   0  0  0  0  0  0  0  0  0  0  0  0
  -12.6064   -8.7181  -10.8237 H   0  0  0  0  0  0  0  0  0  0  0  0
   -8.5685   -9.3573  -11.0541 H   0  0  0  0  0  0  0  0  0  0  0  0
  1  2  1  0
  1 17  1  0
  1 18  1  0
  1 19  1  0
  2  3  2  3
  2 11  1  0
  3  4  1  0
  4  5  2  3
  5  9  1  0
  5  6  1  0
  6  7  1  0
  7  8  2  0
  7 20  1  0
  8  9  1  0
  8 21  1  0
  9 10  1  0
 10 22  1  0
 10 23  1  0
 10 24  1  0
 11 16  1  0
 11 12  2  0
 12 13  1  0
 12 25  1  0
 13 14  2  0
 13 26  1  0
 14 15  1  0
 15 16  2  0
 15 27  1  0
M  END
>  <i_m_ct_stereo_status>  (1) 
1

>  <s_m_source_file>  (1) 
/var/tmp/pbs.5076255.sched01/tmp0qfm3vo4/0bcu552to.sdf

>  <i_m_source_file_index>  (1) 
1

>  <i_lp_mmshare_version>  (1) 
48012

>  <i_f3d_flags>  (1) 
0

>  <s_epik_input>  (1) 
bjFbY0hdbltjSF1bY0hdYzFDKFxbQ0gzXSk9Ti9OPWMyXHNbY0hdW2NIXW4yW0NIM10=

>  <s_epik_cmdline>  (1) 
J2VwaWtfcHl0aG9uJywgJy1waHQnLCAnMi4wJywgJy1waCcsICc3LjAnLCAnLXRuJywgJzgnLCAnLW1hJywgJzIwMCcsICctaW1hZScsICc8aW5maWxlLm1hZT4nLCAnLW9tYWUnLCAnPG91dGZpbGUubWFlPic=

>  <r_lp_tautomer_probability>  (1) 
1

>  <r_epik_Ionization_Penalty>  (1) 
1.81721e-05

>  <r_epik_Ionization_Penalty_Charging>  (1) 
1.69444e-05

>  <r_epik_Ionization_Penalty_Neutral>  (1) 
1.22775e-06

>  <r_epik_State_Penalty>  (1) 
-0

>  <r_epik_Charging_Adjusted_Penalty>  (1) 
1.69444e-05

>  <i_epik_Tot_Q>  (1) 
0

>  <i_epik_Tot_abs_Q>  (1) 
0

>  <s_epik_Chemistry_Notes>  (1) 
This compound contains an electron-poor aromatic ring that is susceptible to covalent hydrolysis at low pH, typically resulting in measured values for nitrogen ring protonation that are around two units higher than predicted values. This compound has an imine and may undergo hydrolysis.

>  <s_lp_Force_Field>  (1) 
OPLS3e

>  <r_lp_Energy>  (1) 
40.4498

>  <b_lp_Chiralities_Consistent>  (1) 
1

>  <s_lp_Variant>  (1) 
0:0-1

>  <s_i_glide_gridfile>  (1) 
pfpi4k_grid

>  <i_i_glide_lignum>  (1) 
1

>  <i_i_glide_rotatable_bonds>  (1) 
2

>  <r_i_docking_score>  (1) 
-4.66019

>  <r_i_glide_ligand_efficiency>  (1) 
-0.291262

>  <r_i_glide_ligand_efficiency_sa>  (1) 
-0.733934

>  <r_i_glide_ligand_efficiency_ln>  (1) 
-1.23528

>  <r_i_glide_gscore>  (1) 
-4.66019

>  <r_i_glide_lipo>  (1) 
-1.35885

>  <r_i_glide_hbond>  (1) 
0

>  <r_i_glide_metal>  (1) 
-0

>  <r_i_glide_rewards>  (1) 
-2.37648

>  <r_i_glide_evdw>  (1) 
-23.8044

>  <r_i_glide_ecoul>  (1) 
-0.331549

>  <r_i_glide_erotb>  (1) 
0.315091

>  <r_i_glide_esite>  (1) 
0

>  <r_i_glide_emodel>  (1) 
-31.5668

>  <r_i_glide_energy>  (1) 
-24.136

>  <r_i_glide_einternal>  (1) 
0.136055

>  <r_i_glide_intrahb_reward>  (1) 
-0

>  <i_i_glide_confnum>  (1) 
1

>  <i_i_glide_posenum>  (1) 
14

>  <r_i_glide_eff_state_penalty>  (1) 
0

>  <ligand_id>  (1) 
0

>  <original_smiles>  (1) 
CC(=NN=c1sccn1C)c1ccncn1

>  <smiles>  (1) 
[H]c1nc([H])c([H])c(C(=NN=c2sc([H])c([H])n2C([H])([H])[H])C([H])([H])[H])n1

$$$$
0:0:1
     RDKit          3D

 27 28  0  0  1  0  0  0  0  0999 V2000
    2.7960   -3.6612    2.9289 C   0  0  0  0  0  0  0  0  0  0  0  0
    1.5778   -4.4531    3.3588 C   0  0  0  0  0  0  0  0  0  0  0  0
    1.3616   -5.4852    2.6326 N   0  0  0  0  0  0  0  0  0  0  0  0
    0.2272   -6.2888    2.9085 N   0  0  0  0  0  0  0  0  0  0  0  0
    0.5283   -7.5470    2.8252 C   0  0  0  0  0  0  0  0  0  0  0  0
    2.1381   -8.3503    2.4282 S   0  0  0  0  0  0  0  0  0  0  0  0
    1.4049   -9.9260    2.6386 C   0  0  0  0  0  0  0  0  0  0  0  0
    0.1136   -9.8341    2.9488 C   0  0  0  0  0  0  0  0  0  0  0  0
   -0.3994   -8.5579    3.0496 N   0  0  0  0  0  0  0  0  0  0  0  0
   -1.7832   -8.2801    3.3893 C   0  0  0  0  0  0  0  0  0  0  0  0
    0.8152   -3.9417    4.5577 C   0  0  0  0  0  0  0  0  0  0  0  0
    0.6701   -2.5551    4.7986 C   0  0  0  0  0  0  0  0  0  0  0  0
   -0.0689   -2.1699    5.9335 C   0  0  0  0  0  0  0  0  0  0  0  0
   -0.6334   -3.0700    6.7573 N   0  0  0  0  0  0  0  0  0  0  0  0
   -0.4283   -4.3516    6.4576 C   0  0  0  0  0  0  0  0  0  0  0  0
    0.2564   -4.8252    5.4201 N   0  0  0  0  0  0  0  0  0  0  0  0
    2.9929   -2.7913    3.5506 H   0  0  0  0  0  0  0  0  0  0  0  0
    2.6870   -3.3446    1.8949 H   0  0  0  0  0  0  0  0  0  0  0  0
    3.6680   -4.3067    2.9517 H   0  0  0  0  0  0  0  0  0  0  0  0
    1.9739  -10.8404    2.5122 H   0  0  0  0  0  0  0  0  0  0  0  0
   -0.5561  -10.6560    3.1262 H   0  0  0  0  0  0  0  0  0  0  0  0
   -2.3535   -9.1963    3.5389 H   0  0  0  0  0  0  0  0  0  0  0  0
   -2.2530   -7.7037    2.5917 H   0  0  0  0  0  0  0  0  0  0  0  0
   -1.8311   -7.6938    4.3075 H   0  0  0  0  0  0  0  0  0  0  0  0
    1.0989   -1.8139    4.1370 H   0  0  0  0  0  0  0  0  0  0  0  0
   -0.2193   -1.1342    6.2023 H   0  0  0  0  0  0  0  0  0  0  0  0
   -0.8900   -5.0732    7.1054 H   0  0  0  0  0  0  0  0  0  0  0  0
  1  2  1  0
  1 17  1  0
  1 18  1  0
  1 19  1  0
  2  3  2  3
  2 11  1  0
  3  4  1  0
  4  5  2  3
  5  9  1  0
  5  6  1  0
  6  7  1  0
  7  8  2  0
  7 20  1  0
  8  9  1  0
  8 21  1  0
  9 10  1  0
 10 22  1  0
 10 23  1  0
 10 24  1  0
 11 16  1  0
 11 12  2  0
 12 13  1  0
 12 25  1  0
 13 14  2  0
 13 26  1  0
 14 15  1  0
 15 16  2  0
 15 27  1  0
M  END
>  <i_m_ct_stereo_status>  (2) 
1

>  <s_m_source_file>  (2) 
/var/tmp/pbs.5076255.sched01/tmp0qfm3vo4/0bcu552to.sdf

>  <i_m_source_file_index>  (2) 
1

>  <i_lp_mmshare_version>  (2) 
48012

>  <i_f3d_flags>  (2) 
0

>  <s_epik_input>  (2) 
bjFbY0hdbltjSF1bY0hdYzFDKFxbQ0gzXSk9Ti9OPWMyXHNbY0hdW2NIXW4yW0NIM10=

>  <s_epik_cmdline>  (2) 
J2VwaWtfcHl0aG9uJywgJy1waHQnLCAnMi4wJywgJy1waCcsICc3LjAnLCAnLXRuJywgJzgnLCAnLW1hJywgJzIwMCcsICctaW1hZScsICc8aW5maWxlLm1hZT4nLCAnLW9tYWUnLCAnPG91dGZpbGUubWFlPic=

>  <r_lp_tautomer_probability>  (2) 
1

>  <r_epik_Ionization_Penalty>  (2) 
1.81721e-05

>  <r_epik_Ionization_Penalty_Charging>  (2) 
1.69444e-05

>  <r_epik_Ionization_Penalty_Neutral>  (2) 
1.22775e-06

>  <r_epik_State_Penalty>  (2) 
-0

>  <r_epik_Charging_Adjusted_Penalty>  (2) 
1.69444e-05

>  <i_epik_Tot_Q>  (2) 
0

>  <i_epik_Tot_abs_Q>  (2) 
0

>  <s_epik_Chemistry_Notes>  (2) 
This compound contains an electron-poor aromatic ring that is susceptible to covalent hydrolysis at low pH, typically resulting in measured values for nitrogen ring protonation that are around two units higher than predicted values. This compound has an imine and may undergo hydrolysis.

>  <s_lp_Force_Field>  (2) 
OPLS3e

>  <r_lp_Energy>  (2) 
40.4498

>  <b_lp_Chiralities_Consistent>  (2) 
1

>  <s_lp_Variant>  (2) 
0:0-1

>  <s_i_glide_gridfile>  (2) 
pfpi4k_grid

>  <i_i_glide_lignum>  (2) 
1

>  <i_i_glide_rotatable_bonds>  (2) 
2

>  <r_i_docking_score>  (2) 
-3.38646

>  <r_i_glide_ligand_efficiency>  (2) 
-0.211654

>  <r_i_glide_ligand_efficiency_sa>  (2) 
-0.533334

>  <r_i_glide_ligand_efficiency_ln>  (2) 
-0.897649

>  <r_i_glide_gscore>  (2) 
-3.38646

>  <r_i_glide_lipo>  (2) 
-0.133539

>  <r_i_glide_hbond>  (2) 
0

>  <r_i_glide_metal>  (2) 
-0

>  <r_i_glide_rewards>  (2) 
-1.81845

>  <r_i_glide_evdw>  (2) 
-19.2367

>  <r_i_glide_ecoul>  (2) 
-3.99581

>  <r_i_glide_erotb>  (2) 
0.315091

>  <r_i_glide_esite>  (2) 
-0.188356

>  <r_i_glide_emodel>  (2) 
-28.6275

>  <r_i_glide_energy>  (2) 
-23.2325

>  <r_i_glide_einternal>  (2) 
0.391044

>  <r_i_glide_intrahb_reward>  (2) 
-0

>  <i_i_glide_confnum>  (2) 
2

>  <i_i_glide_posenum>  (2) 
32

>  <r_i_glide_eff_state_penalty>  (2) 
0

>  <ligand_id>  (2) 
0

>  <original_smiles>  (2) 
CC(=NN=c1sccn1C)c1ccncn1

>  <smiles>  (2) 
[H]c1nc([H])c([H])c(C(=NN=c2sc([H])c([H])n2C([H])([H])[H])C([H])([H])[H])n1

$$$$
0:0:2
     RDKit          3D

 27 28  0  0  1  0  0  0  0  0999 V2000
    2.6394   -3.8833    2.8905 C   0  0  0  0  0  0  0  0  0  0  0  0
    1.4752   -4.7750    3.2797 C   0  0  0  0  0  0  0  0  0  0  0  0
    1.3040   -5.7703    2.4978 N   0  0  0  0  0  0  0  0  0  0  0  0
    0.2274   -6.6531    2.7368 N   0  0  0  0  0  0  0  0  0  0  0  0
    0.6501   -7.8790    2.7690 C   0  0  0  0  0  0  0  0  0  0  0  0
    2.3639   -8.5424    2.5991 S   0  0  0  0  0  0  0  0  0  0  0  0
    1.7645  -10.1640    2.8740 C   0  0  0  0  0  0  0  0  0  0  0  0
    0.4426  -10.1808    3.0333 C   0  0  0  0  0  0  0  0  0  0  0  0
   -0.1978   -8.9607    2.9683 N   0  0  0  0  0  0  0  0  0  0  0  0
   -1.6311   -8.7960    3.1222 C   0  0  0  0  0  0  0  0  0  0  0  0
    0.7002   -4.3818    4.5136 C   0  0  0  0  0  0  0  0  0  0  0  0
    0.1549   -5.3173    5.4235 C   0  0  0  0  0  0  0  0  0  0  0  0
   -0.5608   -4.8165    6.5252 C   0  0  0  0  0  0  0  0  0  0  0  0
   -0.7275   -3.4959    6.7190 N   0  0  0  0  0  0  0  0  0  0  0  0
   -0.1646   -2.6939    5.8182 C   0  0  0  0  0  0  0  0  0  0  0  0
    0.5258   -3.0591    4.7426 N   0  0  0  0  0  0  0  0  0  0  0  0
    2.7875   -3.0449    3.5675 H   0  0  0  0  0  0  0  0  0  0  0  0
    2.4866   -3.5043    1.8843 H   0  0  0  0  0  0  0  0  0  0  0  0
    3.5487   -4.4758    2.8581 H   0  0  0  0  0  0  0  0  0  0  0  0
    2.4251  -11.0245    2.8839 H   0  0  0  0  0  0  0  0  0  0  0  0
   -0.1647  -11.0553    3.2031 H   0  0  0  0  0  0  0  0  0  0  0  0
   -2.1268   -9.7517    3.2761 H   0  0  0  0  0  0  0  0  0  0  0  0
   -2.0501   -8.3262    2.2314 H   0  0  0  0  0  0  0  0  0  0  0  0
   -1.8414   -8.1558    3.9797 H   0  0  0  0  0  0  0  0  0  0  0  0
    0.2673   -6.3803    5.2751 H   0  0  0  0  0  0  0  0  0  0  0  0
   -1.0089   -5.4632    7.2658 H   0  0  0  0  0  0  0  0  0  0  0  0
   -0.2907   -1.6383    5.9874 H   0  0  0  0  0  0  0  0  0  0  0  0
  1  2  1  0
  1 17  1  0
  1 18  1  0
  1 19  1  0
  2  3  2  3
  2 11  1  0
  3  4  1  0
  4  5  2  3
  5  9  1  0
  5  6  1  0
  6  7  1  0
  7  8  2  0
  7 20  1  0
  8  9  1  0
  8 21  1  0
  9 10  1  0
 10 22  1  0
 10 23  1  0
 10 24  1  0
 11 16  1  0
 11 12  2  0
 12 13  1  0
 12 25  1  0
 13 14  2  0
 13 26  1  0
 14 15  1  0
 15 16  2  0
 15 27  1  0
M  END
>  <i_m_ct_stereo_status>  (3) 
1

>  <s_m_source_file>  (3) 
/var/tmp/pbs.5076255.sched01/tmp0qfm3vo4/0bcu552to.sdf

>  <i_m_source_file_index>  (3) 
1

>  <i_lp_mmshare_version>  (3) 
48012

>  <i_f3d_flags>  (3) 
0

>  <s_epik_input>  (3) 
bjFbY0hdbltjSF1bY0hdYzFDKFxbQ0gzXSk9Ti9OPWMyXHNbY0hdW2NIXW4yW0NIM10=

>  <s_epik_cmdline>  (3) 
J2VwaWtfcHl0aG9uJywgJy1waHQnLCAnMi4wJywgJy1waCcsICc3LjAnLCAnLXRuJywgJzgnLCAnLW1hJywgJzIwMCcsICctaW1hZScsICc8aW5maWxlLm1hZT4nLCAnLW9tYWUnLCAnPG91dGZpbGUubWFlPic=

>  <r_lp_tautomer_probability>  (3) 
1

>  <r_epik_Ionization_Penalty>  (3) 
1.81721e-05

>  <r_epik_Ionization_Penalty_Charging>  (3) 
1.69444e-05

>  <r_epik_Ionization_Penalty_Neutral>  (3) 
1.22775e-06

>  <r_epik_State_Penalty>  (3) 
-0

>  <r_epik_Charging_Adjusted_Penalty>  (3) 
1.69444e-05

>  <i_epik_Tot_Q>  (3) 
0

>  <i_epik_Tot_abs_Q>  (3) 
0

>  <s_epik_Chemistry_Notes>  (3) 
This compound contains an electron-poor aromatic ring that is susceptible to covalent hydrolysis at low pH, typically resulting in measured values for nitrogen ring protonation that are around two units higher than predicted values. This compound has an imine and may undergo hydrolysis.

>  <s_lp_Force_Field>  (3) 
OPLS3e

>  <r_lp_Energy>  (3) 
40.4498

>  <b_lp_Chiralities_Consistent>  (3) 
1

>  <s_lp_Variant>  (3) 
0:0-1

>  <s_i_glide_gridfile>  (3) 
pfpi4k_grid

>  <i_i_glide_lignum>  (3) 
1

>  <i_i_glide_rotatable_bonds>  (3) 
2

>  <r_i_docking_score>  (3) 
-3.27265

>  <r_i_glide_ligand_efficiency>  (3) 
-0.204541

>  <r_i_glide_ligand_efficiency_sa>  (3) 
-0.51541

>  <r_i_glide_ligand_efficiency_ln>  (3) 
-0.867482

>  <r_i_glide_gscore>  (3) 
-3.27265

>  <r_i_glide_lipo>  (3) 
-0.133854

>  <r_i_glide_hbond>  (3) 
0

>  <r_i_glide_metal>  (3) 
-0

>  <r_i_glide_rewards>  (3) 
-1.81845

>  <r_i_glide_evdw>  (3) 
-20.4208

>  <r_i_glide_ecoul>  (3) 
-2.81717

>  <r_i_glide_erotb>  (3) 
0.315091

>  <r_i_glide_esite>  (3) 
-0.191824

>  <r_i_glide_emodel>  (3) 
-28.3148

>  <r_i_glide_energy>  (3) 
-23.2379

>  <r_i_glide_einternal>  (3) 
0.621376

>  <r_i_glide_intrahb_reward>  (3) 
-0

>  <i_i_glide_confnum>  (3) 
2

>  <i_i_glide_posenum>  (3) 
20

>  <r_i_glide_eff_state_penalty>  (3) 
0

>  <ligand_id>  (3) 
0

>  <original_smiles>  (3) 
CC(=NN=c1sccn1C)c1ccncn1

>  <smiles>  (3) 
[H]c1nc([H])c([H])c(C(=NN=c2sc([H])c([H])n2C([H])([H])[H])C([H])([H])[H])n1

$$$$
0:1:0
     RDKit          3D

 27 28  0  0  1  0  0  0  0  0999 V2000
   -7.4217   -9.2207   -8.9042 C   0  0  0  0  0  0  0  0  0  0  0  0
   -6.5737   -9.3069   -7.6264 C   0  0  0  0  0  0  0  0  0  0  0  0
   -6.5985   -8.4066   -6.7219 N   0  0  0  0  0  0  0  0  0  0  0  0
   -7.4714   -7.3114   -6.9420 N   0  0  0  0  0  0  0  0  0  0  0  0
   -7.2462   -6.3647   -6.0903 C   0  0  0  0  0  0  0  0  0  0  0  0
   -6.0060   -6.2553   -4.7293 S   0  0  0  0  0  0  0  0  0  0  0  0
   -6.6050   -4.6610   -4.3239 C   0  0  0  0  0  0  0  0  0  0  0  0
   -7.6024   -4.2833   -5.1207 C   0  0  0  0  0  0  0  0  0  0  0  0
   -7.9794   -5.1821   -6.0918 N   0  0  0  0  0  0  0  0  0  0  0  0
   -9.0439   -4.9253   -7.0485 C   0  0  0  0  0  0  0  0  0  0  0  0
   -5.6810  -10.4917   -7.4575 C   0  0  0  0  0  0  0  0  0  0  0  0
   -4.7359  -10.5468   -6.4069 C   0  0  0  0  0  0  0  0  0  0  0  0
   -3.9319  -11.6943   -6.3106 C   0  0  0  0  0  0  0  0  0  0  0  0
   -4.0458  -12.7106   -7.1908 N   0  0  0  0  0  0  0  0  0  0  0  0
   -4.9793  -12.5785   -8.1266 C   0  0  0  0  0  0  0  0  0  0  0  0
   -5.7839  -11.5348   -8.3129 N   0  0  0  0  0  0  0  0  0  0  0  0
   -7.2748  -10.0614   -9.5809 H   0  0  0  0  0  0  0  0  0  0  0  0
   -7.1734   -8.3137   -9.4560 H   0  0  0  0  0  0  0  0  0  0  0  0
   -8.4822   -9.1844   -8.6501 H   0  0  0  0  0  0  0  0  0  0  0  0
   -6.1868   -4.0868   -3.5100 H   0  0  0  0  0  0  0  0  0  0  0  0
   -8.1420   -3.3507   -5.0771 H   0  0  0  0  0  0  0  0  0  0  0  0
   -9.4896   -3.9447   -6.8893 H   0  0  0  0  0  0  0  0  0  0  0  0
   -9.8242   -5.6810   -6.9560 H   0  0  0  0  0  0  0  0  0  0  0  0
   -8.6482   -4.9682   -8.0632 H   0  0  0  0  0  0  0  0  0  0  0  0
   -4.6220   -9.7425   -5.6943 H   0  0  0  0  0  0  0  0  0  0  0  0
   -3.1881  -11.7957   -5.5307 H   0  0  0  0  0  0  0  0  0  0  0  0
   -5.0755  -13.3872   -8.8348 H   0  0  0  0  0  0  0  0  0  0  0  0
  1  2  1  0
  1 17  1  0
  1 18  1  0
  1 19  1  0
  2  3  2  3
  2 11  1  0
  3  4  1  0
  4  5  2  3
  5  9  1  0
  5  6  1  0
  6  7  1  0
  7  8  2  0
  7 20  1  0
  8  9  1  0
  8 21  1  0
  9 10  1  0
 10 22  1  0
 10 23  1  0
 10 24  1  0
 11 16  1  0
 11 12  2  0
 12 13  1  0
 12 25  1  0
 13 14  2  0
 13 26  1  0
 14 15  1  0
 15 16  2  0
 15 27  1  0
M  END
>  <i_m_ct_stereo_status>  (4) 
1

>  <s_m_source_file>  (4) 
/var/tmp/pbs.5076255.sched01/tmp0qfm3vo4/0bcu552to.sdf

>  <i_m_source_file_index>  (4) 
2

>  <i_lp_mmshare_version>  (4) 
48012

>  <i_f3d_flags>  (4) 
0

>  <s_epik_input>  (4) 
bjFbY0hdbltjSF1bY0hdYzFDKFxbQ0gzXSk9Ti9OPWMyXHNbY0hdW2NIXW4yW0NIM10=

>  <s_epik_cmdline>  (4) 
J2VwaWtfcHl0aG9uJywgJy1waHQnLCAnMi4wJywgJy1waCcsICc3LjAnLCAnLXRuJywgJzgnLCAnLW1hJywgJzIwMCcsICctaW1hZScsICc8aW5maWxlLm1hZT4nLCAnLW9tYWUnLCAnPG91dGZpbGUubWFlPic=

>  <r_lp_tautomer_probability>  (4) 
1

>  <r_epik_Ionization_Penalty>  (4) 
1.81721e-05

>  <r_epik_Ionization_Penalty_Charging>  (4) 
1.69444e-05

>  <r_epik_Ionization_Penalty_Neutral>  (4) 
1.22775e-06

>  <r_epik_State_Penalty>  (4) 
-0

>  <r_epik_Charging_Adjusted_Penalty>  (4) 
1.69444e-05

>  <i_epik_Tot_Q>  (4) 
0

>  <i_epik_Tot_abs_Q>  (4) 
0

>  <s_epik_Chemistry_Notes>  (4) 
This compound contains an electron-poor aromatic ring that is susceptible to covalent hydrolysis at low pH, typically resulting in measured values for nitrogen ring protonation that are around two units higher than predicted values. This compound has an imine and may undergo hydrolysis.

>  <s_lp_Force_Field>  (4) 
OPLS3e

>  <r_lp_Energy>  (4) 
33.4989

>  <b_lp_Chiralities_Consistent>  (4) 
1

>  <s_lp_Variant>  (4) 
0:0-2

>  <s_i_glide_gridfile>  (4) 
pfpi4k_grid

>  <i_i_glide_lignum>  (4) 
2

>  <i_i_glide_rotatable_bonds>  (4) 
2

>  <r_i_docking_score>  (4) 
-5.83798

>  <r_i_glide_ligand_efficiency>  (4) 
-0.364873

>  <r_i_glide_ligand_efficiency_sa>  (4) 
-0.919424

>  <r_i_glide_ligand_efficiency_ln>  (4) 
-1.54747

>  <r_i_glide_gscore>  (4) 
-5.83798

>  <r_i_glide_lipo>  (4) 
-1.81571

>  <r_i_glide_hbond>  (4) 
0

>  <r_i_glide_metal>  (4) 
-0

>  <r_i_glide_rewards>  (4) 
-2.59523

>  <r_i_glide_evdw>  (4) 
-30.7145

>  <r_i_glide_ecoul>  (4) 
-1.28644

>  <r_i_glide_erotb>  (4) 
0.315091

>  <r_i_glide_esite>  (4) 
-0.0134352

>  <r_i_glide_emodel>  (4) 
-43.4136

>  <r_i_glide_energy>  (4) 
-32.0009

>  <r_i_glide_einternal>  (4) 
0.0182916

>  <r_i_glide_intrahb_reward>  (4) 
-0

>  <i_i_glide_confnum>  (4) 
2

>  <i_i_glide_posenum>  (4) 
38

>  <r_i_glide_eff_state_penalty>  (4) 
0

>  <ligand_id>  (4) 
0

>  <original_smiles>  (4) 
CC(=NN=c1sccn1C)c1ccncn1

>  <smiles>  (4) 
[H]c1nc([H])c([H])c(C(=NN=c2sc([H])c([H])n2C([H])([H])[H])C([H])([H])[H])n1

$$$$
0:1:1
     RDKit          3D

 27 28  0  0  1  0  0  0  0  0999 V2000
   -8.6441   -6.3777   -9.8321 C   0  0  0  0  0  0  0  0  0  0  0  0
   -8.7753   -7.6604   -9.0147 C   0  0  0  0  0  0  0  0  0  0  0  0
   -8.5392   -7.7313   -7.7665 N   0  0  0  0  0  0  0  0  0  0  0  0
   -8.1728   -6.5184   -7.1260 N   0  0  0  0  0  0  0  0  0  0  0  0
   -7.1421   -6.6911   -6.3615 C   0  0  0  0  0  0  0  0  0  0  0  0
   -6.1346   -8.2061   -6.0693 S   0  0  0  0  0  0  0  0  0  0  0  0
   -5.0793   -7.2933   -5.0147 C   0  0  0  0  0  0  0  0  0  0  0  0
   -5.4670   -6.0240   -4.9004 C   0  0  0  0  0  0  0  0  0  0  0  0
   -6.5915   -5.6621   -5.6034 N   0  0  0  0  0  0  0  0  0  0  0  0
   -7.1178   -4.3079   -5.6230 C   0  0  0  0  0  0  0  0  0  0  0  0
   -9.1684   -8.8760   -9.7493 C   0  0  0  0  0  0  0  0  0  0  0  0
  -10.4982   -9.0922  -10.1640 C   0  0  0  0  0  0  0  0  0  0  0  0
  -10.7753  -10.3212  -10.7907 C   0  0  0  0  0  0  0  0  0  0  0  0
   -9.8186  -11.2513  -10.9854 N   0  0  0  0  0  0  0  0  0  0  0  0
   -8.5984  -10.9491  -10.5477 C   0  0  0  0  0  0  0  0  0  0  0  0
   -8.2231   -9.8174   -9.9527 N   0  0  0  0  0  0  0  0  0  0  0  0
   -8.8710   -6.5517  -10.8854 H   0  0  0  0  0  0  0  0  0  0  0  0
   -7.6239   -5.9962   -9.7536 H   0  0  0  0  0  0  0  0  0  0  0  0
   -9.3130   -5.6086   -9.4406 H   0  0  0  0  0  0  0  0  0  0  0  0
   -4.2321   -7.7609   -4.5303 H   0  0  0  0  0  0  0  0  0  0  0  0
   -4.9861   -5.2540   -4.3219 H   0  0  0  0  0  0  0  0  0  0  0  0
   -6.5320   -3.6426   -4.9906 H   0  0  0  0  0  0  0  0  0  0  0  0
   -8.1485   -4.3024   -5.2678 H   0  0  0  0  0  0  0  0  0  0  0  0
   -7.1111   -3.9085   -6.6382 H   0  0  0  0  0  0  0  0  0  0  0  0
  -11.2811   -8.3756   -9.9631 H   0  0  0  0  0  0  0  0  0  0  0  0
  -11.7736  -10.5833  -11.1220 H   0  0  0  0  0  0  0  0  0  0  0  0
   -7.8285  -11.6868  -10.7142 H   0  0  0  0  0  0  0  0  0  0  0  0
  1  2  1  0
  1 17  1  0
  1 18  1  0
  1 19  1  0
  2  3  2  3
  2 11  1  0
  3  4  1  0
  4  5  2  3
  5  9  1  0
  5  6  1  0
  6  7  1  0
  7  8  2  0
  7 20  1  0
  8  9  1  0
  8 21  1  0
  9 10  1  0
 10 22  1  0
 10 23  1  0
 10 24  1  0
 11 16  1  0
 11 12  2  0
 12 13  1  0
 12 25  1  0
 13 14  2  0
 13 26  1  0
 14 15  1  0
 15 16  2  0
 15 27  1  0
M  END
>  <i_m_ct_stereo_status>  (5) 
1

>  <s_m_source_file>  (5) 
/var/tmp/pbs.5076255.sched01/tmp0qfm3vo4/0bcu552to.sdf

>  <i_m_source_file_index>  (5) 
2

>  <i_lp_mmshare_version>  (5) 
48012

>  <i_f3d_flags>  (5) 
0

>  <s_epik_input>  (5) 
bjFbY0hdbltjSF1bY0hdYzFDKFxbQ0gzXSk9Ti9OPWMyXHNbY0hdW2NIXW4yW0NIM10=

>  <s_epik_cmdline>  (5) 
J2VwaWtfcHl0aG9uJywgJy1waHQnLCAnMi4wJywgJy1waCcsICc3LjAnLCAnLXRuJywgJzgnLCAnLW1hJywgJzIwMCcsICctaW1hZScsICc8aW5maWxlLm1hZT4nLCAnLW9tYWUnLCAnPG91dGZpbGUubWFlPic=

>  <r_lp_tautomer_probability>  (5) 
1

>  <r_epik_Ionization_Penalty>  (5) 
1.81721e-05

>  <r_epik_Ionization_Penalty_Charging>  (5) 
1.69444e-05

>  <r_epik_Ionization_Penalty_Neutral>  (5) 
1.22775e-06

>  <r_epik_State_Penalty>  (5) 
-0

>  <r_epik_Charging_Adjusted_Penalty>  (5) 
1.69444e-05

>  <i_epik_Tot_Q>  (5) 
0

>  <i_epik_Tot_abs_Q>  (5) 
0

>  <s_epik_Chemistry_Notes>  (5) 
This compound contains an electron-poor aromatic ring that is susceptible to covalent hydrolysis at low pH, typically resulting in measured values for nitrogen ring protonation that are around two units higher than predicted values. This compound has an imine and may undergo hydrolysis.

>  <s_lp_Force_Field>  (5) 
OPLS3e

>  <r_lp_Energy>  (5) 
33.4989

>  <b_lp_Chiralities_Consistent>  (5) 
1

>  <s_lp_Variant>  (5) 
0:0-2

>  <s_i_glide_gridfile>  (5) 
pfpi4k_grid

>  <i_i_glide_lignum>  (5) 
2

>  <i_i_glide_rotatable_bonds>  (5) 
2

>  <r_i_docking_score>  (5) 
-4.78136

>  <r_i_glide_ligand_efficiency>  (5) 
-0.298835

>  <r_i_glide_ligand_efficiency_sa>  (5) 
-0.753017

>  <r_i_glide_ligand_efficiency_ln>  (5) 
-1.26739

>  <r_i_glide_gscore>  (5) 
-4.78136

>  <r_i_glide_lipo>  (5) 
-1.53176

>  <r_i_glide_hbond>  (5) 
0

>  <r_i_glide_metal>  (5) 
-0

>  <r_i_glide_rewards>  (5) 
-2.38201

>  <r_i_glide_evdw>  (5) 
-24.9337

>  <r_i_glide_ecoul>  (5) 
0.426729

>  <r_i_glide_erotb>  (5) 
0.315091

>  <r_i_glide_esite>  (5) 
0

>  <r_i_glide_emodel>  (5) 
-32.3556

>  <r_i_glide_energy>  (5) 
-24.507

>  <r_i_glide_einternal>  (5) 
2.84285

>  <r_i_glide_intrahb_reward>  (5) 
-0

>  <i_i_glide_confnum>  (5) 
2

>  <i_i_glide_posenum>  (5) 
6

>  <r_i_glide_eff_state_penalty>  (5) 
0

>  <ligand_id>  (5) 
0

>  <original_smiles>  (5) 
CC(=NN=c1sccn1C)c1ccncn1

>  <smiles>  (5) 
[H]c1nc([H])c([H])c(C(=NN=c2sc([H])c([H])n2C([H])([H])[H])C([H])([H])[H])n1

$$$$
0:1:2
     RDKit          3D

 27 28  0  0  1  0  0  0  0  0999 V2000
    2.2840   -5.1528    3.0805 C   0  0  0  0  0  0  0  0  0  0  0  0
    2.2142   -5.4370    1.5837 C   0  0  0  0  0  0  0  0  0  0  0  0
    1.3405   -6.1986    1.0437 N   0  0  0  0  0  0  0  0  0  0  0  0
    0.3650   -6.7916    1.9084 N   0  0  0  0  0  0  0  0  0  0  0  0
    0.7032   -7.9927    2.2707 C   0  0  0  0  0  0  0  0  0  0  0  0
    2.2233   -8.9615    1.8724 S   0  0  0  0  0  0  0  0  0  0  0  0
    1.6499  -10.2633    2.8859 C   0  0  0  0  0  0  0  0  0  0  0  0
    0.4673   -9.9918    3.4344 C   0  0  0  0  0  0  0  0  0  0  0  0
   -0.0825   -8.7691    3.1146 N   0  0  0  0  0  0  0  0  0  0  0  0
   -1.3551   -8.2972    3.6461 C   0  0  0  0  0  0  0  0  0  0  0  0
    3.2203   -4.7560    0.7445 C   0  0  0  0  0  0  0  0  0  0  0  0
    4.6000   -4.9375    0.9527 C   0  0  0  0  0  0  0  0  0  0  0  0
    5.4628   -4.3018    0.0370 C   0  0  0  0  0  0  0  0  0  0  0  0
    4.9958   -3.5618   -0.9860 N   0  0  0  0  0  0  0  0  0  0  0  0
    3.6710   -3.4572   -1.0922 C   0  0  0  0  0  0  0  0  0  0  0  0
    2.7662   -4.0000   -0.2779 N   0  0  0  0  0  0  0  0  0  0  0  0
    3.1065   -4.4764    3.3259 H   0  0  0  0  0  0  0  0  0  0  0  0
    2.4221   -6.0824    3.6358 H   0  0  0  0  0  0  0  0  0  0  0  0
    1.3454   -4.7072    3.4190 H   0  0  0  0  0  0  0  0  0  0  0  0
    2.2287  -11.1714    3.0059 H   0  0  0  0  0  0  0  0  0  0  0  0
   -0.0992  -10.6398    4.0868 H   0  0  0  0  0  0  0  0  0  0  0  0
   -1.8128   -9.0452    4.2884 H   0  0  0  0  0  0  0  0  0  0  0  0
   -2.0383   -8.0791    2.8266 H   0  0  0  0  0  0  0  0  0  0  0  0
   -1.2134   -7.3840    4.2241 H   0  0  0  0  0  0  0  0  0  0  0  0
    4.9818   -5.5666    1.7448 H   0  0  0  0  0  0  0  0  0  0  0  0
    6.5384   -4.3988    0.1091 H   0  0  0  0  0  0  0  0  0  0  0  0
    3.2899   -2.8742   -1.9182 H   0  0  0  0  0  0  0  0  0  0  0  0
  1  2  1  0
  1 17  1  0
  1 18  1  0
  1 19  1  0
  2  3  2  3
  2 11  1  0
  3  4  1  0
  4  5  2  3
  5  9  1  0
  5  6  1  0
  6  7  1  0
  7  8  2  0
  7 20  1  0
  8  9  1  0
  8 21  1  0
  9 10  1  0
 10 22  1  0
 10 23  1  0
 10 24  1  0
 11 16  1  0
 11 12  2  0
 12 13  1  0
 12 25  1  0
 13 14  2  0
 13 26  1  0
 14 15  1  0
 15 16  2  0
 15 27  1  0
M  END
>  <i_m_ct_stereo_status>  (6) 
1

>  <s_m_source_file>  (6) 
/var/tmp/pbs.5076255.sched01/tmp0qfm3vo4/0bcu552to.sdf

>  <i_m_source_file_index>  (6) 
2

>  <i_lp_mmshare_version>  (6) 
48012

>  <i_f3d_flags>  (6) 
0

>  <s_epik_input>  (6) 
bjFbY0hdbltjSF1bY0hdYzFDKFxbQ0gzXSk9Ti9OPWMyXHNbY0hdW2NIXW4yW0NIM10=

>  <s_epik_cmdline>  (6) 
J2VwaWtfcHl0aG9uJywgJy1waHQnLCAnMi4wJywgJy1waCcsICc3LjAnLCAnLXRuJywgJzgnLCAnLW1hJywgJzIwMCcsICctaW1hZScsICc8aW5maWxlLm1hZT4nLCAnLW9tYWUnLCAnPG91dGZpbGUubWFlPic=

>  <r_lp_tautomer_probability>  (6) 
1

>  <r_epik_Ionization_Penalty>  (6) 
1.81721e-05

>  <r_epik_Ionization_Penalty_Charging>  (6) 
1.69444e-05

>  <r_epik_Ionization_Penalty_Neutral>  (6) 
1.22775e-06

>  <r_epik_State_Penalty>  (6) 
-0

>  <r_epik_Charging_Adjusted_Penalty>  (6) 
1.69444e-05

>  <i_epik_Tot_Q>  (6) 
0

>  <i_epik_Tot_abs_Q>  (6) 
0

>  <s_epik_Chemistry_Notes>  (6) 
This compound contains an electron-poor aromatic ring that is susceptible to covalent hydrolysis at low pH, typically resulting in measured values for nitrogen ring protonation that are around two units higher than predicted values. This compound has an imine and may undergo hydrolysis.

>  <s_lp_Force_Field>  (6) 
OPLS3e

>  <r_lp_Energy>  (6) 
33.4989

>  <b_lp_Chiralities_Consistent>  (6) 
1

>  <s_lp_Variant>  (6) 
0:0-2

>  <s_i_glide_gridfile>  (6) 
pfpi4k_grid

>  <i_i_glide_lignum>  (6) 
2

>  <i_i_glide_rotatable_bonds>  (6) 
2

>  <r_i_docking_score>  (6) 
-3.74609

>  <r_i_glide_ligand_efficiency>  (6) 
-0.234131

>  <r_i_glide_ligand_efficiency_sa>  (6) 
-0.589972

>  <r_i_glide_ligand_efficiency_ln>  (6) 
-0.992976

>  <r_i_glide_gscore>  (6) 
-3.74609

>  <r_i_glide_lipo>  (6) 
-0.234305

>  <r_i_glide_hbond>  (6) 
0

>  <r_i_glide_metal>  (6) 
-0

>  <r_i_glide_rewards>  (6) 
-1.85107

>  <r_i_glide_evdw>  (6) 
-23.3258

>  <r_i_glide_ecoul>  (6) 
-3.75867

>  <r_i_glide_erotb>  (6) 
0.315091

>  <r_i_glide_esite>  (6) 
-0.245716

>  <r_i_glide_emodel>  (6) 
-32.2657

>  <r_i_glide_energy>  (6) 
-27.0845

>  <r_i_glide_einternal>  (6) 
3.89112

>  <r_i_glide_intrahb_reward>  (6) 
-0

>  <i_i_glide_confnum>  (6) 
1

>  <i_i_glide_posenum>  (6) 
36

>  <r_i_glide_eff_state_penalty>  (6) 
0

>  <ligand_id>  (6) 
0

>  <original_smiles>  (6) 
CC(=NN=c1sccn1C)c1ccncn1

>  <smiles>  (6) 
[H]c1nc([H])c([H])c(C(=NN=c2sc([H])c([H])n2C([H])([H])[H])C([H])([H])[H])n1

$$$$
0:2:0
     RDKit          3D

 27 28  0  0  1  0  0  0  0  0999 V2000
   -1.2966   -9.3282    2.4704 C   0  0  0  0  0  0  0  0  0  0  0  0
   -0.4972   -8.0622    2.7240 C   0  0  0  0  0  0  0  0  0  0  0  0
   -0.1142   -7.4598    1.6615 N   0  0  0  0  0  0  0  0  0  0  0  0
    0.6619   -6.2637    1.7538 N   0  0  0  0  0  0  0  0  0  0  0  0
    1.9569   -6.4142    1.7201 C   0  0  0  0  0  0  0  0  0  0  0  0
    3.0349   -4.9412    1.7516 S   0  0  0  0  0  0  0  0  0  0  0  0
    4.4549   -5.9576    1.7659 C   0  0  0  0  0  0  0  0  0  0  0  0
    4.1315   -7.2460    1.7181 C   0  0  0  0  0  0  0  0  0  0  0  0
    2.7850   -7.5603    1.6792 N   0  0  0  0  0  0  0  0  0  0  0  0
    2.4108   -8.9774    1.6284 C   0  0  0  0  0  0  0  0  0  0  0  0
   -0.2271   -7.6889    4.1590 C   0  0  0  0  0  0  0  0  0  0  0  0
    0.0757   -8.6639    5.1340 C   0  0  0  0  0  0  0  0  0  0  0  0
    0.3419   -8.2140    6.4417 C   0  0  0  0  0  0  0  0  0  0  0  0
    0.3238   -6.9065    6.7511 N   0  0  0  0  0  0  0  0  0  0  0  0
    0.0523   -6.0636    5.7621 C   0  0  0  0  0  0  0  0  0  0  0  0
   -0.2490   -6.3808    4.5061 N   0  0  0  0  0  0  0  0  0  0  0  0
   -1.5995   -9.8460    3.3750 H   0  0  0  0  0  0  0  0  0  0  0  0
   -0.7026  -10.0169    1.8781 H   0  0  0  0  0  0  0  0  0  0  0  0
   -2.1791   -9.0916    1.8831 H   0  0  0  0  0  0  0  0  0  0  0  0
    5.4530   -5.5355    1.8130 H   0  0  0  0  0  0  0  0  0  0  0  0
    4.8279   -8.0716    1.7167 H   0  0  0  0  0  0  0  0  0  0  0  0
    3.2716   -9.6473    1.5972 H   0  0  0  0  0  0  0  0  0  0  0  0
    1.8131   -9.2022    0.7494 H   0  0  0  0  0  0  0  0  0  0  0  0
    1.8509   -9.2911    2.5062 H   0  0  0  0  0  0  0  0  0  0  0  0
    0.0985   -9.7236    4.8983 H   0  0  0  0  0  0  0  0  0  0  0  0
    0.5394   -8.8912    7.2593 H   0  0  0  0  0  0  0  0  0  0  0  0
    0.0437   -5.0164    6.0191 H   0  0  0  0  0  0  0  0  0  0  0  0
  1  2  1  0
  1 17  1  0
  1 18  1  0
  1 19  1  0
  2  3  2  3
  2 11  1  0
  3  4  1  0
  4  5  2  3
  5  9  1  0
  5  6  1  0
  6  7  1  0
  7  8  2  0
  7 20  1  0
  8  9  1  0
  8 21  1  0
  9 10  1  0
 10 22  1  0
 10 23  1  0
 10 24  1  0
 11 16  1  0
 11 12  2  0
 12 13  1  0
 12 25  1  0
 13 14  2  0
 13 26  1  0
 14 15  1  0
 15 16  2  0
 15 27  1  0
M  END
>  <i_m_ct_stereo_status>  (7) 
1

>  <s_m_source_file>  (7) 
/var/tmp/pbs.5076255.sched01/tmp0qfm3vo4/0bcu552to.sdf

>  <i_m_source_file_index>  (7) 
3

>  <i_lp_mmshare_version>  (7) 
48012

>  <i_f3d_flags>  (7) 
0

>  <s_epik_input>  (7) 
bjFbY0hdbltjSF1bY0hdYzFDKFxbQ0gzXSk9Ti9OPWMyXHNbY0hdW2NIXW4yW0NIM10=

>  <s_epik_cmdline>  (7) 
J2VwaWtfcHl0aG9uJywgJy1waHQnLCAnMi4wJywgJy1waCcsICc3LjAnLCAnLXRuJywgJzgnLCAnLW1hJywgJzIwMCcsICctaW1hZScsICc8aW5maWxlLm1hZT4nLCAnLW9tYWUnLCAnPG91dGZpbGUubWFlPic=

>  <r_lp_tautomer_probability>  (7) 
1

>  <r_epik_Ionization_Penalty>  (7) 
1.81721e-05

>  <r_epik_Ionization_Penalty_Charging>  (7) 
1.69444e-05

>  <r_epik_Ionization_Penalty_Neutral>  (7) 
1.22775e-06

>  <r_epik_State_Penalty>  (7) 
-0

>  <r_epik_Charging_Adjusted_Penalty>  (7) 
1.69444e-05

>  <i_epik_Tot_Q>  (7) 
0

>  <i_epik_Tot_abs_Q>  (7) 
0

>  <s_epik_Chemistry_Notes>  (7) 
This compound contains an electron-poor aromatic ring that is susceptible to covalent hydrolysis at low pH, typically resulting in measured values for nitrogen ring protonation that are around two units higher than predicted values. This compound has an imine and may undergo hydrolysis.

>  <s_lp_Force_Field>  (7) 
OPLS3e

>  <r_lp_Energy>  (7) 
42.6662

>  <b_lp_Chiralities_Consistent>  (7) 
1

>  <s_lp_Variant>  (7) 
0:0-3

>  <s_i_glide_gridfile>  (7) 
pfpi4k_grid

>  <i_i_glide_lignum>  (7) 
3

>  <i_i_glide_rotatable_bonds>  (7) 
2

>  <r_i_docking_score>  (7) 
-3.74028

>  <r_i_glide_ligand_efficiency>  (7) 
-0.233767

>  <r_i_glide_ligand_efficiency_sa>  (7) 
-0.589057

>  <r_i_glide_ligand_efficiency_ln>  (7) 
-0.991435

>  <r_i_glide_gscore>  (7) 
-3.74028

>  <r_i_glide_lipo>  (7) 
-0.331815

>  <r_i_glide_hbond>  (7) 
0

>  <r_i_glide_metal>  (7) 
-0

>  <r_i_glide_rewards>  (7) 
-1.81969

>  <r_i_glide_evdw>  (7) 
-20.9396

>  <r_i_glide_ecoul>  (7) 
-4.05547

>  <r_i_glide_erotb>  (7) 
0.315091

>  <r_i_glide_esite>  (7) 
-0.248563

>  <r_i_glide_emodel>  (7) 
-30.5453

>  <r_i_glide_energy>  (7) 
-24.9951

>  <r_i_glide_einternal>  (7) 
2.5052

>  <r_i_glide_intrahb_reward>  (7) 
-0

>  <i_i_glide_confnum>  (7) 
1

>  <i_i_glide_posenum>  (7) 
13

>  <r_i_glide_eff_state_penalty>  (7) 
0

>  <ligand_id>  (7) 
0

>  <original_smiles>  (7) 
CC(=NN=c1sccn1C)c1ccncn1

>  <smiles>  (7) 
[H]c1nc([H])c([H])c(C(=NN=c2sc([H])c([H])n2C([H])([H])[H])C([H])([H])[H])n1

$$$$
0:2:1
     RDKit          3D

 27 28  0  0  1  0  0  0  0  0999 V2000
    5.6673   -7.8643    1.2590 C   0  0  0  0  0  0  0  0  0  0  0  0
    4.3410   -7.1110    1.2149 C   0  0  0  0  0  0  0  0  0  0  0  0
    3.3727   -7.8300    1.6504 N   0  0  0  0  0  0  0  0  0  0  0  0
    2.0728   -7.2643    1.6904 N   0  0  0  0  0  0  0  0  0  0  0  0
    1.1335   -8.0383    2.1365 C   0  0  0  0  0  0  0  0  0  0  0  0
   -0.5932   -7.4452    2.1885 S   0  0  0  0  0  0  0  0  0  0  0  0
   -1.1101   -8.9517    2.8843 C   0  0  0  0  0  0  0  0  0  0  0  0
   -0.0923   -9.7955    3.0375 C   0  0  0  0  0  0  0  0  0  0  0  0
    1.1546   -9.3575    2.6372 N   0  0  0  0  0  0  0  0  0  0  0  0
    2.3056  -10.2522    2.7787 C   0  0  0  0  0  0  0  0  0  0  0  0
    4.3391   -5.6790    0.6782 C   0  0  0  0  0  0  0  0  0  0  0  0
    5.5346   -4.9402    0.4849 C   0  0  0  0  0  0  0  0  0  0  0  0
    5.4326   -3.6297   -0.0182 C   0  0  0  0  0  0  0  0  0  0  0  0
    4.2522   -3.0677   -0.3100 N   0  0  0  0  0  0  0  0  0  0  0  0
    3.1788   -3.8211   -0.0971 C   0  0  0  0  0  0  0  0  0  0  0  0
    3.1664   -5.0644    0.3788 N   0  0  0  0  0  0  0  0  0  0  0  0
    6.5308   -7.3209    0.8831 H   0  0  0  0  0  0  0  0  0  0  0  0
    5.5772   -8.7733    0.6663 H   0  0  0  0  0  0  0  0  0  0  0  0
    5.8711   -8.1727    2.2838 H   0  0  0  0  0  0  0  0  0  0  0  0
   -2.1426   -9.1242    3.1519 H   0  0  0  0  0  0  0  0  0  0  0  0
   -0.1649  -10.7870    3.4566 H   0  0  0  0  0  0  0  0  0  0  0  0
    2.0247  -11.2160    3.2062 H   0  0  0  0  0  0  0  0  0  0  0  0
    3.0626   -9.8276    3.4379 H   0  0  0  0  0  0  0  0  0  0  0  0
    2.7711  -10.4623    1.8156 H   0  0  0  0  0  0  0  0  0  0  0  0
    6.5164   -5.3176    0.7125 H   0  0  0  0  0  0  0  0  0  0  0  0
    6.3102   -3.0217   -0.1850 H   0  0  0  0  0  0  0  0  0  0  0  0
    2.2259   -3.3680   -0.3172 H   0  0  0  0  0  0  0  0  0  0  0  0
  1  2  1  0
  1 17  1  0
  1 18  1  0
  1 19  1  0
  2  3  2  3
  2 11  1  0
  3  4  1  0
  4  5  2  3
  5  9  1  0
  5  6  1  0
  6  7  1  0
  7  8  2  0
  7 20  1  0
  8  9  1  0
  8 21  1  0
  9 10  1  0
 10 22  1  0
 10 23  1  0
 10 24  1  0
 11 16  1  0
 11 12  2  0
 12 13  1  0
 12 25  1  0
 13 14  2  0
 13 26  1  0
 14 15  1  0
 15 16  2  0
 15 27  1  0
M  END
>  <i_m_ct_stereo_status>  (8) 
1

>  <s_m_source_file>  (8) 
/var/tmp/pbs.5076255.sched01/tmp0qfm3vo4/0bcu552to.sdf

>  <i_m_source_file_index>  (8) 
3

>  <i_lp_mmshare_version>  (8) 
48012

>  <i_f3d_flags>  (8) 
0

>  <s_epik_input>  (8) 
bjFbY0hdbltjSF1bY0hdYzFDKFxbQ0gzXSk9Ti9OPWMyXHNbY0hdW2NIXW4yW0NIM10=

>  <s_epik_cmdline>  (8) 
J2VwaWtfcHl0aG9uJywgJy1waHQnLCAnMi4wJywgJy1waCcsICc3LjAnLCAnLXRuJywgJzgnLCAnLW1hJywgJzIwMCcsICctaW1hZScsICc8aW5maWxlLm1hZT4nLCAnLW9tYWUnLCAnPG91dGZpbGUubWFlPic=

>  <r_lp_tautomer_probability>  (8) 
1

>  <r_epik_Ionization_Penalty>  (8) 
1.81721e-05

>  <r_epik_Ionization_Penalty_Charging>  (8) 
1.69444e-05

>  <r_epik_Ionization_Penalty_Neutral>  (8) 
1.22775e-06

>  <r_epik_State_Penalty>  (8) 
-0

>  <r_epik_Charging_Adjusted_Penalty>  (8) 
1.69444e-05

>  <i_epik_Tot_Q>  (8) 
0

>  <i_epik_Tot_abs_Q>  (8) 
0

>  <s_epik_Chemistry_Notes>  (8) 
This compound contains an electron-poor aromatic ring that is susceptible to covalent hydrolysis at low pH, typically resulting in measured values for nitrogen ring protonation that are around two units higher than predicted values. This compound has an imine and may undergo hydrolysis.

>  <s_lp_Force_Field>  (8) 
OPLS3e

>  <r_lp_Energy>  (8) 
42.6662

>  <b_lp_Chiralities_Consistent>  (8) 
1

>  <s_lp_Variant>  (8) 
0:0-3

>  <s_i_glide_gridfile>  (8) 
pfpi4k_grid

>  <i_i_glide_lignum>  (8) 
3

>  <i_i_glide_rotatable_bonds>  (8) 
2

>  <r_i_docking_score>  (8) 
-3.35694

>  <r_i_glide_ligand_efficiency>  (8) 
-0.209809

>  <r_i_glide_ligand_efficiency_sa>  (8) 
-0.528685

>  <r_i_glide_ligand_efficiency_ln>  (8) 
-0.889825

>  <r_i_glide_gscore>  (8) 
-3.35694

>  <r_i_glide_lipo>  (8) 
-0.338772

>  <r_i_glide_hbond>  (8) 
0

>  <r_i_glide_metal>  (8) 
-0

>  <r_i_glide_rewards>  (8) 
-2.02401

>  <r_i_glide_evdw>  (8) 
-24.6043

>  <r_i_glide_ecoul>  (8) 
-0.33825

>  <r_i_glide_erotb>  (8) 
0.315091

>  <r_i_glide_esite>  (8) 
-0.0282986

>  <r_i_glide_emodel>  (8) 
-30.9213

>  <r_i_glide_energy>  (8) 
-24.9426

>  <r_i_glide_einternal>  (8) 
0.343916

>  <r_i_glide_intrahb_reward>  (8) 
-0

>  <i_i_glide_confnum>  (8) 
1

>  <i_i_glide_posenum>  (8) 
12

>  <r_i_glide_eff_state_penalty>  (8) 
0

>  <ligand_id>  (8) 
0

>  <original_smiles>  (8) 
CC(=NN=c1sccn1C)c1ccncn1

>  <smiles>  (8) 
[H]c1nc([H])c([H])c(C(=NN=c2sc([H])c([H])n2C([H])([H])[H])C([H])([H])[H])n1

$$$$
0:2:2
     RDKit          3D

 27 28  0  0  1  0  0  0  0  0999 V2000
    4.4173   -5.2639    0.3727 C   0  0  0  0  0  0  0  0  0  0  0  0
    3.0363   -5.1807    0.9934 C   0  0  0  0  0  0  0  0  0  0  0  0
    2.3554   -6.2569    0.8908 N   0  0  0  0  0  0  0  0  0  0  0  0
    1.0268   -6.2786    1.3969 N   0  0  0  0  0  0  0  0  0  0  0  0
    0.6877   -7.4020    1.9595 C   0  0  0  0  0  0  0  0  0  0  0  0
   -0.9943   -7.6141    2.6450 S   0  0  0  0  0  0  0  0  0  0  0  0
   -0.5975   -9.2270    3.1665 C   0  0  0  0  0  0  0  0  0  0  0  0
    0.6502   -9.5588    2.8459 C   0  0  0  0  0  0  0  0  0  0  0  0
    1.3996   -8.6066    2.1826 N   0  0  0  0  0  0  0  0  0  0  0  0
    2.7765   -8.9476    1.8030 C   0  0  0  0  0  0  0  0  0  0  0  0
    2.6694   -3.8785    1.6574 C   0  0  0  0  0  0  0  0  0  0  0  0
    2.9911   -2.6334    1.0697 C   0  0  0  0  0  0  0  0  0  0  0  0
    2.5858   -1.4671    1.7540 C   0  0  0  0  0  0  0  0  0  0  0  0
    1.9254   -1.5311    2.9223 N   0  0  0  0  0  0  0  0  0  0  0  0
    1.6711   -2.7457    3.3966 C   0  0  0  0  0  0  0  0  0  0  0  0
    2.0129   -3.9066    2.8410 N   0  0  0  0  0  0  0  0  0  0  0  0
    4.9996   -4.3470    0.4837 H   0  0  0  0  0  0  0  0  0  0  0  0
    4.3304   -5.5159   -0.6830 H   0  0  0  0  0  0  0  0  0  0  0  0
    4.9542   -6.0856    0.8360 H   0  0  0  0  0  0  0  0  0  0  0  0
   -1.3167   -9.8494    3.6796 H   0  0  0  0  0  0  0  0  0  0  0  0
    1.1195  -10.5086    3.0523 H   0  0  0  0  0  0  0  0  0  0  0  0
    3.0532   -9.9584    2.1045 H   0  0  0  0  0  0  0  0  0  0  0  0
    3.5002   -8.2821    2.2699 H   0  0  0  0  0  0  0  0  0  0  0  0
    2.9310   -8.9204    0.7278 H   0  0  0  0  0  0  0  0  0  0  0  0
    3.5025   -2.5605    0.1195 H   0  0  0  0  0  0  0  0  0  0  0  0
    2.7886   -0.4722    1.3793 H   0  0  0  0  0  0  0  0  0  0  0  0
    1.1328   -2.7799    4.3287 H   0  0  0  0  0  0  0  0  0  0  0  0
  1  2  1  0
  1 17  1  0
  1 18  1  0
  1 19  1  0
  2  3  2  3
  2 11  1  0
  3  4  1  0
  4  5  2  3
  5  9  1  0
  5  6  1  0
  6  7  1  0
  7  8  2  0
  7 20  1  0
  8  9  1  0
  8 21  1  0
  9 10  1  0
 10 22  1  0
 10 23  1  0
 10 24  1  0
 11 16  1  0
 11 12  2  0
 12 13  1  0
 12 25  1  0
 13 14  2  0
 13 26  1  0
 14 15  1  0
 15 16  2  0
 15 27  1  0
M  END
>  <i_m_ct_stereo_status>  (9) 
1

>  <s_m_source_file>  (9) 
/var/tmp/pbs.5076255.sched01/tmp0qfm3vo4/0bcu552to.sdf

>  <i_m_source_file_index>  (9) 
3

>  <i_lp_mmshare_version>  (9) 
48012

>  <i_f3d_flags>  (9) 
0

>  <s_epik_input>  (9) 
bjFbY0hdbltjSF1bY0hdYzFDKFxbQ0gzXSk9Ti9OPWMyXHNbY0hdW2NIXW4yW0NIM10=

>  <s_epik_cmdline>  (9) 
J2VwaWtfcHl0aG9uJywgJy1waHQnLCAnMi4wJywgJy1waCcsICc3LjAnLCAnLXRuJywgJzgnLCAnLW1hJywgJzIwMCcsICctaW1hZScsICc8aW5maWxlLm1hZT4nLCAnLW9tYWUnLCAnPG91dGZpbGUubWFlPic=

>  <r_lp_tautomer_probability>  (9) 
1

>  <r_epik_Ionization_Penalty>  (9) 
1.81721e-05

>  <r_epik_Ionization_Penalty_Charging>  (9) 
1.69444e-05

>  <r_epik_Ionization_Penalty_Neutral>  (9) 
1.22775e-06

>  <r_epik_State_Penalty>  (9) 
-0

>  <r_epik_Charging_Adjusted_Penalty>  (9) 
1.69444e-05

>  <i_epik_Tot_Q>  (9) 
0

>  <i_epik_Tot_abs_Q>  (9) 
0

>  <s_epik_Chemistry_Notes>  (9) 
This compound contains an electron-poor aromatic ring that is susceptible to covalent hydrolysis at low pH, typically resulting in measured values for nitrogen ring protonation that are around two units higher than predicted values. This compound has an imine and may undergo hydrolysis.

>  <s_lp_Force_Field>  (9) 
OPLS3e

>  <r_lp_Energy>  (9) 
42.6662

>  <b_lp_Chiralities_Consistent>  (9) 
1

>  <s_lp_Variant>  (9) 
0:0-3

>  <s_i_glide_gridfile>  (9) 
pfpi4k_grid

>  <i_i_glide_lignum>  (9) 
3

>  <i_i_glide_rotatable_bonds>  (9) 
2

>  <r_i_docking_score>  (9) 
-3.32014

>  <r_i_glide_ligand_efficiency>  (9) 
-0.207509

>  <r_i_glide_ligand_efficiency_sa>  (9) 
-0.52289

>  <r_i_glide_ligand_efficiency_ln>  (9) 
-0.88007

>  <r_i_glide_gscore>  (9) 
-3.32014

>  <r_i_glide_lipo>  (9) 
-0.0576941

>  <r_i_glide_hbond>  (9) 
0

>  <r_i_glide_metal>  (9) 
-0

>  <r_i_glide_rewards>  (9) 
-1.85991

>  <r_i_glide_evdw>  (9) 
-21.5587

>  <r_i_glide_ecoul>  (9) 
-3.31723

>  <r_i_glide_erotb>  (9) 
0.315091

>  <r_i_glide_esite>  (9) 
-0.142115

>  <r_i_glide_emodel>  (9) 
-30.8898

>  <r_i_glide_energy>  (9) 
-24.8759

>  <r_i_glide_einternal>  (9) 
0.548424

>  <r_i_glide_intrahb_reward>  (9) 
-0

>  <i_i_glide_confnum>  (9) 
2

>  <i_i_glide_posenum>  (9) 
23

>  <r_i_glide_eff_state_penalty>  (9) 
0

>  <ligand_id>  (9) 
0

>  <original_smiles>  (9) 
CC(=NN=c1sccn1C)c1ccncn1

>  <smiles>  (9) 
[H]c1nc([H])c([H])c(C(=NN=c2sc([H])c([H])n2C([H])([H])[H])C([H])([H])[H])n1

$$$$
0:3:0
     RDKit          3D

 27 28  0  0  1  0  0  0  0  0999 V2000
   -9.6226   -7.4365   -9.4628 C   0  0  0  0  0  0  0  0  0  0  0  0
   -8.5942   -8.2981   -8.7098 C   0  0  0  0  0  0  0  0  0  0  0  0
   -7.9312   -7.8495   -7.7121 N   0  0  0  0  0  0  0  0  0  0  0  0
   -8.1985   -6.5047   -7.3371 N   0  0  0  0  0  0  0  0  0  0  0  0
   -7.5610   -6.0862   -6.2898 C   0  0  0  0  0  0  0  0  0  0  0  0
   -7.8503   -4.3947   -5.6627 S   0  0  0  0  0  0  0  0  0  0  0  0
   -6.6729   -4.6494   -4.4071 C   0  0  0  0  0  0  0  0  0  0  0  0
   -6.1594   -5.8770   -4.4516 C   0  0  0  0  0  0  0  0  0  0  0  0
   -6.6065   -6.7104   -5.4544 N   0  0  0  0  0  0  0  0  0  0  0  0
   -6.0665   -8.0724   -5.5400 C   0  0  0  0  0  0  0  0  0  0  0  0
   -8.3582   -9.6933   -9.1921 C   0  0  0  0  0  0  0  0  0  0  0  0
   -9.2446  -10.3931  -10.0452 C   0  0  0  0  0  0  0  0  0  0  0  0
   -8.8922  -11.7098  -10.3986 C   0  0  0  0  0  0  0  0  0  0  0  0
   -7.7720  -12.2975   -9.9408 N   0  0  0  0  0  0  0  0  0  0  0  0
   -7.0150  -11.5707   -9.1222 C   0  0  0  0  0  0  0  0  0  0  0  0
   -7.2416  -10.3175   -8.7439 N   0  0  0  0  0  0  0  0  0  0  0  0
  -10.0807   -7.9252  -10.3193 H   0  0  0  0  0  0  0  0  0  0  0  0
   -9.1426   -6.5382   -9.8508 H   0  0  0  0  0  0  0  0  0  0  0  0
  -10.4229   -7.1276   -8.7870 H   0  0  0  0  0  0  0  0  0  0  0  0
   -6.4377   -3.8658   -3.7000 H   0  0  0  0  0  0  0  0  0  0  0  0
   -5.4242   -6.2719   -3.7696 H   0  0  0  0  0  0  0  0  0  0  0  0
   -5.3343   -8.2784   -4.7558 H   0  0  0  0  0  0  0  0  0  0  0  0
   -5.5587   -8.2484   -6.4873 H   0  0  0  0  0  0  0  0  0  0  0  0
   -6.8491   -8.8233   -5.4360 H   0  0  0  0  0  0  0  0  0  0  0  0
  -10.1785   -9.9915  -10.4080 H   0  0  0  0  0  0  0  0  0  0  0  0
   -9.5319  -12.2960  -11.0461 H   0  0  0  0  0  0  0  0  0  0  0  0
   -6.1056  -12.0235   -8.7599 H   0  0  0  0  0  0  0  0  0  0  0  0
  1  2  1  0
  1 17  1  0
  1 18  1  0
  1 19  1  0
  2  3  2  3
  2 11  1  0
  3  4  1  0
  4  5  2  3
  5  9  1  0
  5  6  1  0
  6  7  1  0
  7  8  2  0
  7 20  1  0
  8  9  1  0
  8 21  1  0
  9 10  1  0
 10 22  1  0
 10 23  1  0
 10 24  1  0
 11 16  1  0
 11 12  2  0
 12 13  1  0
 12 25  1  0
 13 14  2  0
 13 26  1  0
 14 15  1  0
 15 16  2  0
 15 27  1  0
M  END
>  <i_m_ct_stereo_status>  (10) 
1

>  <s_m_source_file>  (10) 
/var/tmp/pbs.5076255.sched01/tmp0qfm3vo4/0bcu552to.sdf

>  <i_m_source_file_index>  (10) 
4

>  <i_lp_mmshare_version>  (10) 
48012

>  <i_f3d_flags>  (10) 
0

>  <s_epik_input>  (10) 
bjFbY0hdbltjSF1bY0hdYzFDKFxbQ0gzXSk9Ti9OPWMyXHNbY0hdW2NIXW4yW0NIM10=

>  <s_epik_cmdline>  (10) 
J2VwaWtfcHl0aG9uJywgJy1waHQnLCAnMi4wJywgJy1waCcsICc3LjAnLCAnLXRuJywgJzgnLCAnLW1hJywgJzIwMCcsICctaW1hZScsICc8aW5maWxlLm1hZT4nLCAnLW9tYWUnLCAnPG91dGZpbGUubWFlPic=

>  <r_lp_tautomer_probability>  (10) 
1

>  <r_epik_Ionization_Penalty>  (10) 
1.81721e-05

>  <r_epik_Ionization_Penalty_Charging>  (10) 
1.69444e-05

>  <r_epik_Ionization_Penalty_Neutral>  (10) 
1.22775e-06

>  <r_epik_State_Penalty>  (10) 
-0

>  <r_epik_Charging_Adjusted_Penalty>  (10) 
1.69444e-05

>  <i_epik_Tot_Q>  (10) 
0

>  <i_epik_Tot_abs_Q>  (10) 
0

>  <s_epik_Chemistry_Notes>  (10) 
This compound contains an electron-poor aromatic ring that is susceptible to covalent hydrolysis at low pH, typically resulting in measured values for nitrogen ring protonation that are around two units higher than predicted values. This compound has an imine and may undergo hydrolysis.

>  <s_lp_Force_Field>  (10) 
OPLS3e

>  <r_lp_Energy>  (10) 
35.2718

>  <b_lp_Chiralities_Consistent>  (10) 
1

>  <s_lp_Variant>  (10) 
0:0-4

>  <s_i_glide_gridfile>  (10) 
pfpi4k_grid

>  <i_i_glide_lignum>  (10) 
4

>  <i_i_glide_rotatable_bonds>  (10) 
2

>  <r_i_docking_score>  (10) 
-5.08821

>  <r_i_glide_ligand_efficiency>  (10) 
-0.318013

>  <r_i_glide_ligand_efficiency_sa>  (10) 
-0.801343

>  <r_i_glide_ligand_efficiency_ln>  (10) 
-1.34873

>  <r_i_glide_gscore>  (10) 
-5.08821

>  <r_i_glide_lipo>  (10) 
-1.65222

>  <r_i_glide_hbond>  (10) 
0

>  <r_i_glide_metal>  (10) 
-0

>  <r_i_glide_rewards>  (10) 
-2.36605

>  <r_i_glide_evdw>  (10) 
-25.9994

>  <r_i_glide_ecoul>  (10) 
-0.56708

>  <r_i_glide_erotb>  (10) 
0.315091

>  <r_i_glide_esite>  (10) 
0

>  <r_i_glide_emodel>  (10) 
-35.1592

>  <r_i_glide_energy>  (10) 
-26.5665

>  <r_i_glide_einternal>  (10) 
0.78463

>  <r_i_glide_intrahb_reward>  (10) 
-0

>  <i_i_glide_confnum>  (10) 
1

>  <i_i_glide_posenum>  (10) 
11

>  <r_i_glide_eff_state_penalty>  (10) 
0

>  <ligand_id>  (10) 
0

>  <original_smiles>  (10) 
CC(=NN=c1sccn1C)c1ccncn1

>  <smiles>  (10) 
[H]c1nc([H])c([H])c(C(=NN=c2sc([H])c([H])n2C([H])([H])[H])C([H])([H])[H])n1

$$$$
0:3:1
     RDKit          3D

 27 28  0  0  1  0  0  0  0  0999 V2000
  -11.2042   -6.9009   -8.1916 C   0  0  0  0  0  0  0  0  0  0  0  0
   -9.9039   -7.6845   -8.4070 C   0  0  0  0  0  0  0  0  0  0  0  0
   -8.7478   -7.2495   -8.0793 N   0  0  0  0  0  0  0  0  0  0  0  0
   -8.7129   -5.9523   -7.5067 N   0  0  0  0  0  0  0  0  0  0  0  0
   -7.9073   -5.8154   -6.4991 C   0  0  0  0  0  0  0  0  0  0  0  0
   -7.8599   -4.2456   -5.6019 S   0  0  0  0  0  0  0  0  0  0  0  0
   -6.5731   -4.8239   -4.5866 C   0  0  0  0  0  0  0  0  0  0  0  0
   -6.2870   -6.0982   -4.8480 C   0  0  0  0  0  0  0  0  0  0  0  0
   -6.9887   -6.6915   -5.8813 N   0  0  0  0  0  0  0  0  0  0  0  0
   -6.7405   -8.0956   -6.2012 C   0  0  0  0  0  0  0  0  0  0  0  0
  -10.0213   -9.0058   -9.0695 C   0  0  0  0  0  0  0  0  0  0  0  0
  -11.1078   -9.8811   -8.8470 C   0  0  0  0  0  0  0  0  0  0  0  0
  -11.0528  -11.1358   -9.4858 C   0  0  0  0  0  0  0  0  0  0  0  0
  -10.0078  -11.4984  -10.2584 N   0  0  0  0  0  0  0  0  0  0  0  0
   -9.0374  -10.6040  -10.4021 C   0  0  0  0  0  0  0  0  0  0  0  0
   -8.9962   -9.3895   -9.8626 N   0  0  0  0  0  0  0  0  0  0  0  0
  -12.0828   -7.4343   -8.5591 H   0  0  0  0  0  0  0  0  0  0  0  0
  -11.1603   -5.9466   -8.7144 H   0  0  0  0  0  0  0  0  0  0  0  0
  -11.3578   -6.6841   -7.1324 H   0  0  0  0  0  0  0  0  0  0  0  0
   -6.1293   -4.1832   -3.8364 H   0  0  0  0  0  0  0  0  0  0  0  0
   -5.5647   -6.7035   -4.3201 H   0  0  0  0  0  0  0  0  0  0  0  0
   -5.9876   -8.5285   -5.5415 H   0  0  0  0  0  0  0  0  0  0  0  0
   -6.3756   -8.2089   -7.2220 H   0  0  0  0  0  0  0  0  0  0  0  0
   -7.6418   -8.6974   -6.0871 H   0  0  0  0  0  0  0  0  0  0  0  0
  -11.9283   -9.6243   -8.1896 H   0  0  0  0  0  0  0  0  0  0  0  0
  -11.8392  -11.8714   -9.3681 H   0  0  0  0  0  0  0  0  0  0  0  0
   -8.1941  -10.8724  -11.0211 H   0  0  0  0  0  0  0  0  0  0  0  0
  1  2  1  0
  1 17  1  0
  1 18  1  0
  1 19  1  0
  2  3  2  3
  2 11  1  0
  3  4  1  0
  4  5  2  3
  5  9  1  0
  5  6  1  0
  6  7  1  0
  7  8  2  0
  7 20  1  0
  8  9  1  0
  8 21  1  0
  9 10  1  0
 10 22  1  0
 10 23  1  0
 10 24  1  0
 11 16  1  0
 11 12  2  0
 12 13  1  0
 12 25  1  0
 13 14  2  0
 13 26  1  0
 14 15  1  0
 15 16  2  0
 15 27  1  0
M  END
>  <i_m_ct_stereo_status>  (11) 
1

>  <s_m_source_file>  (11) 
/var/tmp/pbs.5076255.sched01/tmp0qfm3vo4/0bcu552to.sdf

>  <i_m_source_file_index>  (11) 
4

>  <i_lp_mmshare_version>  (11) 
48012

>  <i_f3d_flags>  (11) 
0

>  <s_epik_input>  (11) 
bjFbY0hdbltjSF1bY0hdYzFDKFxbQ0gzXSk9Ti9OPWMyXHNbY0hdW2NIXW4yW0NIM10=

>  <s_epik_cmdline>  (11) 
J2VwaWtfcHl0aG9uJywgJy1waHQnLCAnMi4wJywgJy1waCcsICc3LjAnLCAnLXRuJywgJzgnLCAnLW1hJywgJzIwMCcsICctaW1hZScsICc8aW5maWxlLm1hZT4nLCAnLW9tYWUnLCAnPG91dGZpbGUubWFlPic=

>  <r_lp_tautomer_probability>  (11) 
1

>  <r_epik_Ionization_Penalty>  (11) 
1.81721e-05

>  <r_epik_Ionization_Penalty_Charging>  (11) 
1.69444e-05

>  <r_epik_Ionization_Penalty_Neutral>  (11) 
1.22775e-06

>  <r_epik_State_Penalty>  (11) 
-0

>  <r_epik_Charging_Adjusted_Penalty>  (11) 
1.69444e-05

>  <i_epik_Tot_Q>  (11) 
0

>  <i_epik_Tot_abs_Q>  (11) 
0

>  <s_epik_Chemistry_Notes>  (11) 
This compound contains an electron-poor aromatic ring that is susceptible to covalent hydrolysis at low pH, typically resulting in measured values for nitrogen ring protonation that are around two units higher than predicted values. This compound has an imine and may undergo hydrolysis.

>  <s_lp_Force_Field>  (11) 
OPLS3e

>  <r_lp_Energy>  (11) 
35.2718

>  <b_lp_Chiralities_Consistent>  (11) 
1

>  <s_lp_Variant>  (11) 
0:0-4

>  <s_i_glide_gridfile>  (11) 
pfpi4k_grid

>  <i_i_glide_lignum>  (11) 
4

>  <i_i_glide_rotatable_bonds>  (11) 
2

>  <r_i_docking_score>  (11) 
-4.93322

>  <r_i_glide_ligand_efficiency>  (11) 
-0.308326

>  <r_i_glide_ligand_efficiency_sa>  (11) 
-0.776934

>  <r_i_glide_ligand_efficiency_ln>  (11) 
-1.30765

>  <r_i_glide_gscore>  (11) 
-4.93322

>  <r_i_glide_lipo>  (11) 
-1.49632

>  <r_i_glide_hbond>  (11) 
0

>  <r_i_glide_metal>  (11) 
-0

>  <r_i_glide_rewards>  (11) 
-2.29118

>  <r_i_glide_evdw>  (11) 
-25.7538

>  <r_i_glide_ecoul>  (11) 
-1.15414

>  <r_i_glide_erotb>  (11) 
0.315091

>  <r_i_glide_esite>  (11) 
0

>  <r_i_glide_emodel>  (11) 
-35.1722

>  <r_i_glide_energy>  (11) 
-26.9079

>  <r_i_glide_einternal>  (11) 
0.834764

>  <r_i_glide_intrahb_reward>  (11) 
-0

>  <i_i_glide_confnum>  (11) 
2

>  <i_i_glide_posenum>  (11) 
2

>  <r_i_glide_eff_state_penalty>  (11) 
0

>  <ligand_id>  (11) 
0

>  <original_smiles>  (11) 
CC(=NN=c1sccn1C)c1ccncn1

>  <smiles>  (11) 
[H]c1nc([H])c([H])c(C(=NN=c2sc([H])c([H])n2C([H])([H])[H])C([H])([H])[H])n1

$$$$
0:3:2
     RDKit          3D

 27 28  0  0  1  0  0  0  0  0999 V2000
    2.3550   -3.5429   -0.9294 C   0  0  0  0  0  0  0  0  0  0  0  0
    3.5288   -3.9690   -0.0497 C   0  0  0  0  0  0  0  0  0  0  0  0
    3.4412   -4.8041    0.9104 N   0  0  0  0  0  0  0  0  0  0  0  0
    2.1379   -5.3100    1.1687 N   0  0  0  0  0  0  0  0  0  0  0  0
    2.0768   -6.5587    1.5121 C   0  0  0  0  0  0  0  0  0  0  0  0
    0.4606   -7.3343    1.8619 S   0  0  0  0  0  0  0  0  0  0  0  0
    1.2524   -8.8497    2.2004 C   0  0  0  0  0  0  0  0  0  0  0  0
    2.5723   -8.7652    2.0531 C   0  0  0  0  0  0  0  0  0  0  0  0
    3.0810   -7.5367    1.6817 N   0  0  0  0  0  0  0  0  0  0  0  0
    4.5278   -7.3833    1.5101 C   0  0  0  0  0  0  0  0  0  0  0  0
    4.8231   -3.3325   -0.3482 C   0  0  0  0  0  0  0  0  0  0  0  0
    5.3985   -3.4107   -1.6297 C   0  0  0  0  0  0  0  0  0  0  0  0
    6.6847   -2.8544   -1.7761 C   0  0  0  0  0  0  0  0  0  0  0  0
    7.3271   -2.2615   -0.7517 N   0  0  0  0  0  0  0  0  0  0  0  0
    6.6959   -2.2492    0.4234 C   0  0  0  0  0  0  0  0  0  0  0  0
    5.4865   -2.7431    0.6704 N   0  0  0  0  0  0  0  0  0  0  0  0
    2.6585   -2.8298   -1.6977 H   0  0  0  0  0  0  0  0  0  0  0  0
    1.6015   -3.0566   -0.3181 H   0  0  0  0  0  0  0  0  0  0  0  0
    1.8876   -4.4049   -1.4073 H   0  0  0  0  0  0  0  0  0  0  0  0
    0.6838   -9.7313    2.4634 H   0  0  0  0  0  0  0  0  0  0  0  0
    3.2716   -9.5776    2.1851 H   0  0  0  0  0  0  0  0  0  0  0  0
    5.0623   -8.3120    1.7070 H   0  0  0  0  0  0  0  0  0  0  0  0
    4.9310   -6.6391    2.1950 H   0  0  0  0  0  0  0  0  0  0  0  0
    4.7814   -7.0854    0.4939 H   0  0  0  0  0  0  0  0  0  0  0  0
    4.9025   -3.9248   -2.4436 H   0  0  0  0  0  0  0  0  0  0  0  0
    7.2056   -2.8829   -2.7173 H   0  0  0  0  0  0  0  0  0  0  0  0
    7.2004   -1.7812    1.2540 H   0  0  0  0  0  0  0  0  0  0  0  0
  1  2  1  0
  1 17  1  0
  1 18  1  0
  1 19  1  0
  2  3  2  3
  2 11  1  0
  3  4  1  0
  4  5  2  3
  5  9  1  0
  5  6  1  0
  6  7  1  0
  7  8  2  0
  7 20  1  0
  8  9  1  0
  8 21  1  0
  9 10  1  0
 10 22  1  0
 10 23  1  0
 10 24  1  0
 11 16  1  0
 11 12  2  0
 12 13  1  0
 12 25  1  0
 13 14  2  0
 13 26  1  0
 14 15  1  0
 15 16  2  0
 15 27  1  0
M  END
>  <i_m_ct_stereo_status>  (12) 
1

>  <s_m_source_file>  (12) 
/var/tmp/pbs.5076255.sched01/tmp0qfm3vo4/0bcu552to.sdf

>  <i_m_source_file_index>  (12) 
4

>  <i_lp_mmshare_version>  (12) 
48012

>  <i_f3d_flags>  (12) 
0

>  <s_epik_input>  (12) 
bjFbY0hdbltjSF1bY0hdYzFDKFxbQ0gzXSk9Ti9OPWMyXHNbY0hdW2NIXW4yW0NIM10=

>  <s_epik_cmdline>  (12) 
J2VwaWtfcHl0aG9uJywgJy1waHQnLCAnMi4wJywgJy1waCcsICc3LjAnLCAnLXRuJywgJzgnLCAnLW1hJywgJzIwMCcsICctaW1hZScsICc8aW5maWxlLm1hZT4nLCAnLW9tYWUnLCAnPG91dGZpbGUubWFlPic=

>  <r_lp_tautomer_probability>  (12) 
1

>  <r_epik_Ionization_Penalty>  (12) 
1.81721e-05

>  <r_epik_Ionization_Penalty_Charging>  (12) 
1.69444e-05

>  <r_epik_Ionization_Penalty_Neutral>  (12) 
1.22775e-06

>  <r_epik_State_Penalty>  (12) 
-0

>  <r_epik_Charging_Adjusted_Penalty>  (12) 
1.69444e-05

>  <i_epik_Tot_Q>  (12) 
0

>  <i_epik_Tot_abs_Q>  (12) 
0

>  <s_epik_Chemistry_Notes>  (12) 
This compound contains an electron-poor aromatic ring that is susceptible to covalent hydrolysis at low pH, typically resulting in measured values for nitrogen ring protonation that are around two units higher than predicted values. This compound has an imine and may undergo hydrolysis.

>  <s_lp_Force_Field>  (12) 
OPLS3e

>  <r_lp_Energy>  (12) 
35.2718

>  <b_lp_Chiralities_Consistent>  (12) 
1

>  <s_lp_Variant>  (12) 
0:0-4

>  <s_i_glide_gridfile>  (12) 
pfpi4k_grid

>  <i_i_glide_lignum>  (12) 
4

>  <i_i_glide_rotatable_bonds>  (12) 
2

>  <r_i_docking_score>  (12) 
-3.79239

>  <r_i_glide_ligand_efficiency>  (12) 
-0.237024

>  <r_i_glide_ligand_efficiency_sa>  (12) 
-0.597264

>  <r_i_glide_ligand_efficiency_ln>  (12) 
-1.00525

>  <r_i_glide_gscore>  (12) 
-3.79239

>  <r_i_glide_lipo>  (12) 
-0.225843

>  <r_i_glide_hbond>  (12) 
-0.16

>  <r_i_glide_metal>  (12) 
-0

>  <r_i_glide_rewards>  (12) 
-1.9719

>  <r_i_glide_evdw>  (12) 
-21.8734

>  <r_i_glide_ecoul>  (12) 
-3.97934

>  <r_i_glide_erotb>  (12) 
0.315091

>  <r_i_glide_esite>  (12) 
-0.0591615

>  <r_i_glide_emodel>  (12) 
-31.7181

>  <r_i_glide_energy>  (12) 
-25.8528

>  <r_i_glide_einternal>  (12) 
1.62903

>  <r_i_glide_intrahb_reward>  (12) 
-0

>  <i_i_glide_confnum>  (12) 
1

>  <i_i_glide_posenum>  (12) 
23

>  <r_i_glide_eff_state_penalty>  (12) 
0

>  <ligand_id>  (12) 
0

>  <original_smiles>  (12) 
CC(=NN=c1sccn1C)c1ccncn1

>  <smiles>  (12) 
[H]c1nc([H])c([H])c(C(=NN=c2sc([H])c([H])n2C([H])([H])[H])C([H])([H])[H])n1

$$$$
1:0:0
     RDKit          3D

 67 72  0  0  1  0  0  0  0  0999 V2000
    2.5543   -9.2595    1.5733 C   0  0  0  0  0  0  0  0  0  0  0  0
    3.4806   -8.0825    1.9405 C   0  0  2  0  0  0  0  0  0  0  0  0
    4.7419   -8.0674    1.0680 C   0  0  0  0  0  0  0  0  0  0  0  0
    5.8191   -6.9941    1.3736 C   0  0  2  0  0  0  0  0  0  0  0  0
    6.8686   -7.4250    2.2284 O   0  0  0  0  0  0  0  0  0  0  0  0
    6.9250   -7.4999    3.5781 C   0  0  0  0  0  0  0  0  0  0  0  0
    7.8996   -8.0192    4.1239 O   0  0  0  0  0  0  0  0  0  0  0  0
    5.8546   -6.8427    4.4741 C   0  0  1  0  0  0  0  0  0  0  0  0
    6.3668   -5.5614    5.1302 C   0  0  0  0  0  0  0  0  0  0  0  0
    4.3650   -6.8020    4.0474 C   0  0  1  0  0  0  0  0  0  0  0  0
    3.8500   -5.6603    3.3360 O   0  0  0  0  0  0  0  0  0  0  0  0
    4.5817   -4.9016    2.3600 C   0  0  2  0  0  0  0  0  0  0  0  0
    5.3933   -5.5118    1.2947 C   0  0  1  0  0  0  0  0  0  0  0  0
    6.4585   -4.3957    1.0340 C   0  0  2  0  0  0  0  0  0  0  0  0
    7.9266   -4.8736    1.1613 C   0  0  0  0  0  0  0  0  0  0  0  0
    6.2680   -3.3771    2.0175 O   0  0  0  0  0  0  0  0  0  0  0  0
    5.1131   -3.5720    2.7993 C   0  0  1  0  0  0  0  0  0  0  0  0
    3.8552   -3.5924    2.0061 C   0  0  2  0  0  0  0  0  0  0  0  0
    2.7762   -3.3667    2.9084 O   0  0  0  0  0  0  0  0  0  0  0  0
    3.6468   -2.9260    0.6153 C   0  0  2  0  0  0  0  0  0  0  0  0
    3.0235   -1.5304    0.9368 C   0  0  0  0  0  0  0  0  0  0  0  0
    2.6766   -3.8197   -0.1949 C   0  0  0  0  0  0  0  0  0  0  0  0
    2.2213   -4.8624    0.2697 O   0  0  0  0  0  0  0  0  0  0  0  0
    2.2530   -3.3615   -1.5900 C   0  0  0  0  0  0  0  0  0  0  0  0
    3.0328   -2.1673   -2.0947 C   0  0  0  0  0  0  0  0  0  0  0  0
    4.5360   -2.2561   -1.8118 C   0  0  0  0  0  0  0  0  0  0  0  0
    5.1147   -3.1656   -2.9352 C   0  0  0  0  0  0  0  0  0  0  0  0
    5.0313   -0.8456   -2.0702 C   0  0  0  0  0  0  0  0  0  0  0  0
    4.9176   -2.6765   -0.3093 C   0  0  2  0  0  0  0  0  0  0  0  0
    6.1310   -3.6827   -0.2993 C   0  0  1  0  0  0  0  0  0  0  0  0
    7.2753   -2.9530   -0.7356 O   0  0  0  0  0  0  0  0  0  0  0  0
    3.8891   -8.1137    3.4121 C   0  0  0  0  0  0  0  0  0  0  0  0
    3.8498   -9.1498    4.0749 O   0  0  0  0  0  0  0  0  0  0  0  0
    1.6392   -9.2534    2.1679 H   0  0  0  0  0  0  0  0  0  0  0  0
    3.0375  -10.2305    1.7033 H   0  0  0  0  0  0  0  0  0  0  0  0
    2.2506   -9.2046    0.5288 H   0  0  0  0  0  0  0  0  0  0  0  0
    2.9211   -7.1613    1.7663 H   0  0  0  0  0  0  0  0  0  0  0  0
    5.2090   -9.0512    1.0865 H   0  0  0  0  0  0  0  0  0  0  0  0
    4.4185   -7.9288    0.0392 H   0  0  0  0  0  0  0  0  0  0  0  0
    6.3955   -7.0418    0.4750 H   0  0  0  0  0  0  0  0  0  0  0  0
    5.8348   -7.5584    5.2980 H   0  0  0  0  0  0  0  0  0  0  0  0
    7.1279   -5.7831    5.8831 H   0  0  0  0  0  0  0  0  0  0  0  0
    5.5637   -5.0079    5.6173 H   0  0  0  0  0  0  0  0  0  0  0  0
    6.8287   -4.9274    4.3882 H   0  0  0  0  0  0  0  0  0  0  0  0
    3.8191   -6.7818    4.9871 H   0  0  0  0  0  0  0  0  0  0  0  0
    4.7226   -5.5386    0.4372 H   0  0  0  0  0  0  0  0  0  0  0  0
    8.1748   -5.6418    0.4327 H   0  0  0  0  0  0  0  0  0  0  0  0
    8.1268   -5.2749    2.1527 H   0  0  0  0  0  0  0  0  0  0  0  0
    8.6336   -4.0581    1.0450 H   0  0  0  0  0  0  0  0  0  0  0  0
    5.1249   -3.2693    3.8487 H   0  0  0  0  0  0  0  0  0  0  0  0
    1.9883   -3.6563    2.4839 H   0  0  0  0  0  0  0  0  0  0  0  0
    3.3555   -1.1274    1.8911 H   0  0  0  0  0  0  0  0  0  0  0  0
    1.9368   -1.5820    0.9654 H   0  0  0  0  0  0  0  0  0  0  0  0
    3.2839   -0.7488    0.2266 H   0  0  0  0  0  0  0  0  0  0  0  0
    2.4332   -4.1386   -2.3060 H   0  0  0  0  0  0  0  0  0  0  0  0
    1.1868   -3.1660   -1.6181 H   0  0  0  0  0  0  0  0  0  0  0  0
    2.8531   -2.0880   -3.1664 H   0  0  0  0  0  0  0  0  0  0  0  0
    2.6413   -1.2327   -1.7180 H   0  0  0  0  0  0  0  0  0  0  0  0
    6.2035   -3.1752   -2.9781 H   0  0  0  0  0  0  0  0  0  0  0  0
    4.7953   -2.8312   -3.9206 H   0  0  0  0  0  0  0  0  0  0  0  0
    4.7717   -4.1968   -2.8345 H   0  0  0  0  0  0  0  0  0  0  0  0
    6.1008   -0.8372   -1.9276 H   0  0  0  0  0  0  0  0  0  0  0  0
    4.6101   -0.1223   -1.3750 H   0  0  0  0  0  0  0  0  0  0  0  0
    4.8119   -0.4962   -3.0802 H   0  0  0  0  0  0  0  0  0  0  0  0
    5.3595   -1.7928    0.1540 H   0  0  0  0  0  0  0  0  0  0  0  0
    5.9730   -4.4891   -1.0104 H   0  0  0  0  0  0  0  0  0  0  0  0
    7.9762   -3.5547   -0.9237 H   0  0  0  0  0  0  0  0  0  0  0  0
  1  2  1  0
  1 34  1  0
  1 35  1  0
  1 36  1  0
  2 32  1  0
  2  3  1  0
  2 37  1  1
  3  4  1  0
  3 38  1  0
  3 39  1  0
  4 13  1  0
  4  5  1  0
  4 40  1  6
  5  6  1  0
  6  7  2  0
  6  8  1  0
  8  9  1  0
  8 10  1  0
  8 41  1  1
  9 42  1  0
  9 43  1  0
  9 44  1  0
 10 11  1  0
 10 32  1  0
 10 45  1  1
 12 11  1  1
 12 17  1  0
 12 18  1  0
 12 13  1  0
 13 14  1  0
 13 46  1  6
 14 30  1  0
 14 15  1  6
 14 16  1  0
 15 47  1  0
 15 48  1  0
 15 49  1  0
 16 17  1  0
 17 18  1  0
 17 50  1  1
 18 19  1  1
 18 20  1  0
 19 51  1  0
 20 29  1  0
 20 21  1  1
 20 22  1  0
 21 52  1  0
 21 53  1  0
 21 54  1  0
 22 23  2  0
 22 24  1  0
 24 25  1  0
 24 55  1  0
 24 56  1  0
 25 26  1  0
 25 57  1  0
 25 58  1  0
 26 27  1  0
 26 28  1  0
 26 29  1  0
 27 59  1  0
 27 60  1  0
 27 61  1  0
 28 62  1  0
 28 63  1  0
 28 64  1  0
 29 30  1  0
 29 65  1  1
 30 31  1  0
 30 66  1  6
 31 67  1  0
 32 33  2  0
M  END
>  <i_m_ct_stereo_status>  (13) 
1

>  <s_m_source_file>  (13) 
/var/tmp/pbs.5076255.sched01/tmp0qfm3vo4/0bcu552to.sdf

>  <i_m_source_file_index>  (13) 
5

>  <i_lp_mmshare_version>  (13) 
48012

>  <i_f3d_flags>  (13) 
2

>  <s_epik_input>  (13) 
TzFDKD1PKVtDQEBIXShbQ0gzXSlbQ0BASF0oTzIpQyg9TylbQ0BIXShbQ0gzXSlbQ0gyXVtDQEhdMVtDQEhdKFtDQF0yMzQpW0NAQF01KFtDSDNdKU9bQ0BASF0zW0NAXTQoW09IXSlbQ0BdNihbQ0gzXSlbQ0BIXShbQ0BIXTVbT0hdKUMoW0NIM10pKFtDSDNdKVtDSDJdW0NIMl1DNj1P

>  <s_epik_cmdline>  (13) 
J2VwaWtfcHl0aG9uJywgJy1waHQnLCAnMi4wJywgJy1waCcsICc3LjAnLCAnLXRuJywgJzgnLCAnLW1hJywgJzIwMCcsICctaW1hZScsICc8aW5maWxlLm1hZT4nLCAnLW9tYWUnLCAnPG91dGZpbGUubWFlPic=

>  <r_lp_tautomer_probability>  (13) 
1

>  <r_epik_Ionization_Penalty>  (13) 
2.23262e-06

>  <r_epik_Ionization_Penalty_Charging>  (13) 
0

>  <r_epik_Ionization_Penalty_Neutral>  (13) 
2.23262e-06

>  <r_epik_State_Penalty>  (13) 
-0

>  <r_epik_Charging_Adjusted_Penalty>  (13) 
0

>  <i_epik_Tot_Q>  (13) 
0

>  <i_epik_Tot_abs_Q>  (13) 
0

>  <s_epik_Chemistry_Notes>  (13) 
This compound has an ester and may undergo hydrolysis at high or low pH.

>  <s_lp_Force_Field>  (13) 
OPLS3e

>  <r_lp_Energy>  (13) 
97.033

>  <b_lp_Chiralities_Consistent>  (13) 
0

>  <s_lp_Variant>  (13) 
1:0-1

>  <s_i_glide_gridfile>  (13) 
pfpi4k_grid

>  <i_i_glide_lignum>  (13) 
5

>  <i_i_glide_rotatable_bonds>  (13) 
2

>  <r_i_docking_score>  (13) 
-3.07188

>  <r_i_glide_ligand_efficiency>  (13) 
-0.0930873

>  <r_i_glide_ligand_efficiency_sa>  (13) 
-0.298581

>  <r_i_glide_ligand_efficiency_ln>  (13) 
-0.683171

>  <r_i_glide_gscore>  (13) 
-3.07188

>  <r_i_glide_lipo>  (13) 
-0.917505

>  <r_i_glide_hbond>  (13) 
-0.013739

>  <r_i_glide_metal>  (13) 
-0

>  <r_i_glide_rewards>  (13) 
-0.259035

>  <r_i_glide_evdw>  (13) 
-28.2692

>  <r_i_glide_ecoul>  (13) 
-2.88931

>  <r_i_glide_erotb>  (13) 
0

>  <r_i_glide_esite>  (13) 
-0.0347465

>  <r_i_glide_emodel>  (13) 
-35.5283

>  <r_i_glide_energy>  (13) 
-31.1585

>  <r_i_glide_einternal>  (13) 
0.558556

>  <r_i_glide_intrahb_reward>  (13) 
-0

>  <i_i_glide_confnum>  (13) 
1

>  <i_i_glide_posenum>  (13) 
26

>  <r_i_glide_eff_state_penalty>  (13) 
0

>  <ligand_id>  (13) 
1

>  <original_smiles>  (13) 
CC1CC2OC(=O)C(C)C(OC34C2C2(C)OC3C4(O)C3(C)C(=O)CCC(C)(C)C3C2O)C1=O

>  <smiles>  (13) 
[H]OC1([H])C2([H])C(C([H])([H])[H])(C(=O)C([H])([H])C([H])([H])C2(C([H])([H])[H])C([H])([H])[H])C2(O[H])C3([H])OC1(C([H])([H])[H])C1([H])C4([H])OC(=O)C([H])(C([H])([H])[H])C([H])(OC312)C(=O)C([H])(C([H])([H])[H])C4([H])[H]

$$$$
1:0:1
     RDKit          3D

 67 72  0  0  1  0  0  0  0  0999 V2000
    2.3699   -9.2556    1.9048 C   0  0  0  0  0  0  0  0  0  0  0  0
    3.3827   -8.1363    2.1973 C   0  0  2  0  0  0  0  0  0  0  0  0
    4.5881   -8.2082    1.2503 C   0  0  0  0  0  0  0  0  0  0  0  0
    5.7343   -7.1819    1.4648 C   0  0  2  0  0  0  0  0  0  0  0  0
    6.8052   -7.6541    2.2760 O   0  0  0  0  0  0  0  0  0  0  0  0
    6.9389   -7.7015    3.6192 C   0  0  0  0  0  0  0  0  0  0  0  0
    7.9092   -8.2594    4.1264 O   0  0  0  0  0  0  0  0  0  0  0  0
    5.9585   -6.9634    4.5547 C   0  0  1  0  0  0  0  0  0  0  0  0
    6.5744   -5.6901    5.1529 C   0  0  0  0  0  0  0  0  0  0  0  0
    4.4491   -6.8597    4.2218 C   0  0  1  0  0  0  0  0  0  0  0  0
    3.9607   -5.7096    3.5236 O   0  0  0  0  0  0  0  0  0  0  0  0
    4.6569   -5.0050    2.4956 C   0  0  2  0  0  0  0  0  0  0  0  0
    5.3799   -5.6798    1.3884 C   0  0  1  0  0  0  0  0  0  0  0  0
    6.4859   -4.6322    1.0631 C   0  0  2  0  0  0  0  0  0  0  0  0
    7.9344   -5.1812    1.1120 C   0  0  0  0  0  0  0  0  0  0  0  0
    6.4240   -3.6022    2.0615 O   0  0  0  0  0  0  0  0  0  0  0  0
    5.2790   -3.6975    2.8751 C   0  0  1  0  0  0  0  0  0  0  0  0
    3.9786   -3.6761    2.1668 C   0  0  2  0  0  0  0  0  0  0  0  0
    2.9959   -3.3742    3.1310 O   0  0  0  0  0  0  0  0  0  0  0  0
    3.7270   -3.0209    0.7580 C   0  0  2  0  0  0  0  0  0  0  0  0
    3.1755   -1.5803    1.0719 C   0  0  0  0  0  0  0  0  0  0  0  0
    2.6805   -3.8748    0.0260 C   0  0  0  0  0  0  0  0  0  0  0  0
    2.2259   -4.9226    0.5188 O   0  0  0  0  0  0  0  0  0  0  0  0
    2.2004   -3.4461   -1.3604 C   0  0  0  0  0  0  0  0  0  0  0  0
    3.0140   -2.2803   -1.9250 C   0  0  0  0  0  0  0  0  0  0  0  0
    4.5417   -2.4341   -1.7183 C   0  0  0  0  0  0  0  0  0  0  0  0
    5.0029   -3.3919   -2.8575 C   0  0  0  0  0  0  0  0  0  0  0  0
    5.1281   -1.0582   -2.0376 C   0  0  0  0  0  0  0  0  0  0  0  0
    4.9575   -2.8480   -0.2283 C   0  0  2  0  0  0  0  0  0  0  0  0
    6.1183   -3.9143   -0.2518 C   0  0  1  0  0  0  0  0  0  0  0  0
    7.2742   -3.2489   -0.7504 O   0  0  0  0  0  0  0  0  0  0  0  0
    3.8684   -8.1536    3.6414 C   0  0  0  0  0  0  0  0  0  0  0  0
    3.8063   -9.1734    4.3266 O   0  0  0  0  0  0  0  0  0  0  0  0
    1.4933   -9.1981    2.5509 H   0  0  0  0  0  0  0  0  0  0  0  0
    2.8063  -10.2543    2.0137 H   0  0  0  0  0  0  0  0  0  0  0  0
    2.0070   -9.1823    0.8810 H   0  0  0  0  0  0  0  0  0  0  0  0
    2.8690   -7.1850    2.0397 H   0  0  0  0  0  0  0  0  0  0  0  0
    5.0093   -9.2165    1.2735 H   0  0  0  0  0  0  0  0  0  0  0  0
    4.2170   -8.0782    0.2401 H   0  0  0  0  0  0  0  0  0  0  0  0
    6.2210   -7.2731    0.4989 H   0  0  0  0  0  0  0  0  0  0  0  0
    5.9499   -7.6528    5.4026 H   0  0  0  0  0  0  0  0  0  0  0  0
    7.3557   -5.9414    5.8727 H   0  0  0  0  0  0  0  0  0  0  0  0
    5.8232   -5.1004    5.6732 H   0  0  0  0  0  0  0  0  0  0  0  0
    7.0293   -5.0713    4.3844 H   0  0  0  0  0  0  0  0  0  0  0  0
    3.9597   -6.8020    5.1958 H   0  0  0  0  0  0  0  0  0  0  0  0
    4.6645   -5.6800    0.5744 H   0  0  0  0  0  0  0  0  0  0  0  0
    8.1074   -5.9800    0.3863 H   0  0  0  0  0  0  0  0  0  0  0  0
    8.1686   -5.5734    2.0999 H   0  0  0  0  0  0  0  0  0  0  0  0
    8.6775   -4.4082    0.9462 H   0  0  0  0  0  0  0  0  0  0  0  0
    5.3635   -3.3886    3.9184 H   0  0  0  0  0  0  0  0  0  0  0  0
    2.8705   -2.4364    3.1656 H   0  0  0  0  0  0  0  0  0  0  0  0
    3.5813   -1.1622    1.9971 H   0  0  0  0  0  0  0  0  0  0  0  0
    2.0940   -1.5730    1.1428 H   0  0  0  0  0  0  0  0  0  0  0  0
    3.4454   -0.8486    0.3251 H   0  0  0  0  0  0  0  0  0  0  0  0
    2.2897   -4.2551   -2.0544 H   0  0  0  0  0  0  0  0  0  0  0  0
    1.1444   -3.1795   -1.3406 H   0  0  0  0  0  0  0  0  0  0  0  0
    2.7832   -2.2227   -2.9851 H   0  0  0  0  0  0  0  0  0  0  0  0
    2.6524   -1.3308   -1.5439 H   0  0  0  0  0  0  0  0  0  0  0  0
    6.0879   -3.4552   -2.9621 H   0  0  0  0  0  0  0  0  0  0  0  0
    4.6428   -3.0702   -3.8375 H   0  0  0  0  0  0  0  0  0  0  0  0
    4.6256   -4.4026   -2.7136 H   0  0  0  0  0  0  0  0  0  0  0  0
    6.2107   -1.1176   -1.9739 H   0  0  0  0  0  0  0  0  0  0  0  0
    4.8052   -0.2849   -1.3459 H   0  0  0  0  0  0  0  0  0  0  0  0
    4.8661   -0.7246   -3.0430 H   0  0  0  0  0  0  0  0  0  0  0  0
    5.4604   -1.9805    0.1924 H   0  0  0  0  0  0  0  0  0  0  0  0
    5.8661   -4.7109   -0.9472 H   0  0  0  0  0  0  0  0  0  0  0  0
    7.9664   -3.8840   -0.8806 H   0  0  0  0  0  0  0  0  0  0  0  0
  1  2  1  0
  1 34  1  0
  1 35  1  0
  1 36  1  0
  2 32  1  0
  2  3  1  0
  2 37  1  6
  3  4  1  0
  3 38  1  0
  3 39  1  0
  4 13  1  0
  4  5  1  0
  4 40  1  6
  5  6  1  0
  6  7  2  0
  6  8  1  0
  8  9  1  0
  8 10  1  0
  8 41  1  1
  9 42  1  0
  9 43  1  0
  9 44  1  0
 10 11  1  0
 10 32  1  0
 10 45  1  1
 12 11  1  1
 12 17  1  0
 12 18  1  0
 12 13  1  0
 13 14  1  0
 13 46  1  6
 14 30  1  0
 14 15  1  6
 14 16  1  0
 15 47  1  0
 15 48  1  0
 15 49  1  0
 16 17  1  0
 17 18  1  0
 17 50  1  1
 18 19  1  1
 18 20  1  0
 19 51  1  0
 20 29  1  0
 20 21  1  1
 20 22  1  0
 21 52  1  0
 21 53  1  0
 21 54  1  0
 22 23  2  0
 22 24  1  0
 24 25  1  0
 24 55  1  0
 24 56  1  0
 25 26  1  0
 25 57  1  0
 25 58  1  0
 26 27  1  0
 26 28  1  0
 26 29  1  0
 27 59  1  0
 27 60  1  0
 27 61  1  0
 28 62  1  0
 28 63  1  0
 28 64  1  0
 29 30  1  0
 29 65  1  1
 30 31  1  0
 30 66  1  6
 31 67  1  0
 32 33  2  0
M  END
>  <i_m_ct_stereo_status>  (14) 
1

>  <s_m_source_file>  (14) 
/var/tmp/pbs.5076255.sched01/tmp0qfm3vo4/0bcu552to.sdf

>  <i_m_source_file_index>  (14) 
5

>  <i_lp_mmshare_version>  (14) 
48012

>  <i_f3d_flags>  (14) 
2

>  <s_epik_input>  (14) 
TzFDKD1PKVtDQEBIXShbQ0gzXSlbQ0BASF0oTzIpQyg9TylbQ0BIXShbQ0gzXSlbQ0gyXVtDQEhdMVtDQEhdKFtDQF0yMzQpW0NAQF01KFtDSDNdKU9bQ0BASF0zW0NAXTQoW09IXSlbQ0BdNihbQ0gzXSlbQ0BIXShbQ0BIXTVbT0hdKUMoW0NIM10pKFtDSDNdKVtDSDJdW0NIMl1DNj1P

>  <s_epik_cmdline>  (14) 
J2VwaWtfcHl0aG9uJywgJy1waHQnLCAnMi4wJywgJy1waCcsICc3LjAnLCAnLXRuJywgJzgnLCAnLW1hJywgJzIwMCcsICctaW1hZScsICc8aW5maWxlLm1hZT4nLCAnLW9tYWUnLCAnPG91dGZpbGUubWFlPic=

>  <r_lp_tautomer_probability>  (14) 
1

>  <r_epik_Ionization_Penalty>  (14) 
2.23262e-06

>  <r_epik_Ionization_Penalty_Charging>  (14) 
0

>  <r_epik_Ionization_Penalty_Neutral>  (14) 
2.23262e-06

>  <r_epik_State_Penalty>  (14) 
-0

>  <r_epik_Charging_Adjusted_Penalty>  (14) 
0

>  <i_epik_Tot_Q>  (14) 
0

>  <i_epik_Tot_abs_Q>  (14) 
0

>  <s_epik_Chemistry_Notes>  (14) 
This compound has an ester and may undergo hydrolysis at high or low pH.

>  <s_lp_Force_Field>  (14) 
OPLS3e

>  <r_lp_Energy>  (14) 
97.033

>  <b_lp_Chiralities_Consistent>  (14) 
0

>  <s_lp_Variant>  (14) 
1:0-1

>  <s_i_glide_gridfile>  (14) 
pfpi4k_grid

>  <i_i_glide_lignum>  (14) 
5

>  <i_i_glide_rotatable_bonds>  (14) 
2

>  <r_i_docking_score>  (14) 
-2.80669

>  <r_i_glide_ligand_efficiency>  (14) 
-0.0850512

>  <r_i_glide_ligand_efficiency_sa>  (14) 
-0.272805

>  <r_i_glide_ligand_efficiency_ln>  (14) 
-0.624193

>  <r_i_glide_gscore>  (14) 
-2.80669

>  <r_i_glide_lipo>  (14) 
-0.781893

>  <r_i_glide_hbond>  (14) 
-0.0181279

>  <r_i_glide_metal>  (14) 
-0

>  <r_i_glide_rewards>  (14) 
-0.26374

>  <r_i_glide_evdw>  (14) 
-28.2539

>  <r_i_glide_ecoul>  (14) 
-1.97547

>  <r_i_glide_erotb>  (14) 
0

>  <r_i_glide_esite>  (14) 
-0.0339148

>  <r_i_glide_emodel>  (14) 
-34.2977

>  <r_i_glide_energy>  (14) 
-30.2293

>  <r_i_glide_einternal>  (14) 
0.348669

>  <r_i_glide_intrahb_reward>  (14) 
-0

>  <i_i_glide_confnum>  (14) 
2

>  <i_i_glide_posenum>  (14) 
27

>  <r_i_glide_eff_state_penalty>  (14) 
0

>  <ligand_id>  (14) 
1

>  <original_smiles>  (14) 
CC1CC2OC(=O)C(C)C(OC34C2C2(C)OC3C4(O)C3(C)C(=O)CCC(C)(C)C3C2O)C1=O

>  <smiles>  (14) 
[H]OC1([H])C2([H])C(C([H])([H])[H])(C(=O)C([H])([H])C([H])([H])C2(C([H])([H])[H])C([H])([H])[H])C2(O[H])C3([H])OC1(C([H])([H])[H])C1([H])C4([H])OC(=O)C([H])(C([H])([H])[H])C([H])(OC312)C(=O)C([H])(C([H])([H])[H])C4([H])[H]

$$$$
1:0:2
     RDKit          3D

 67 72  0  0  1  0  0  0  0  0999 V2000
   -0.1193   -2.1931    5.2009 C   0  0  0  0  0  0  0  0  0  0  0  0
    1.1199   -3.0354    4.8235 C   0  0  2  0  0  0  0  0  0  0  0  0
    0.7616   -4.0932    3.7877 C   0  0  0  0  0  0  0  0  0  0  0  0
    1.8169   -5.1067    3.2935 C   0  0  2  0  0  0  0  0  0  0  0  0
    1.8259   -6.3476    3.9911 O   0  0  0  0  0  0  0  0  0  0  0  0
    2.3632   -6.6693    5.1871 C   0  0  0  0  0  0  0  0  0  0  0  0
    2.1314   -7.7720    5.6956 O   0  0  0  0  0  0  0  0  0  0  0  0
    3.3600   -5.7424    5.9025 C   0  0  1  0  0  0  0  0  0  0  0  0
    4.8071   -6.2377    5.7753 C   0  0  0  0  0  0  0  0  0  0  0  0
    3.1909   -4.2055    5.8703 C   0  0  1  0  0  0  0  0  0  0  0  0
    3.8616   -3.4667    4.8645 O   0  0  0  0  0  0  0  0  0  0  0  0
    4.0840   -3.8890    3.5032 C   0  0  2  0  0  0  0  0  0  0  0  0
    3.0803   -4.5323    2.6582 C   0  0  1  0  0  0  0  0  0  0  0  0
    3.9908   -5.3984    1.7308 C   0  0  2  0  0  0  0  0  0  0  0  0
    3.6155   -6.8926    1.6972 C   0  0  0  0  0  0  0  0  0  0  0  0
    5.3159   -5.3589    2.2606 O   0  0  0  0  0  0  0  0  0  0  0  0
    5.4882   -4.3197    3.2211 C   0  0  1  0  0  0  0  0  0  0  0  0
    5.0373   -2.9653    2.7853 C   0  0  2  0  0  0  0  0  0  0  0  0
    5.3819   -1.9429    3.6789 O   0  0  0  0  0  0  0  0  0  0  0  0
    5.0726   -2.3933    1.3491 C   0  0  2  0  0  0  0  0  0  0  0  0
    6.4471   -1.6946    1.1121 C   0  0  0  0  0  0  0  0  0  0  0  0
    3.9410   -1.3725    1.2618 C   0  0  0  0  0  0  0  0  0  0  0  0
    3.1930   -1.0938    2.2131 O   0  0  0  0  0  0  0  0  0  0  0  0
    3.7671   -0.6525   -0.0312 C   0  0  0  0  0  0  0  0  0  0  0  0
    4.6036   -1.1580   -1.1907 C   0  0  0  0  0  0  0  0  0  0  0  0
    4.6488   -2.7028   -1.2543 C   0  0  0  0  0  0  0  0  0  0  0  0
    3.3057   -3.0786   -1.9407 C   0  0  0  0  0  0  0  0  0  0  0  0
    5.7562   -3.0775   -2.2640 C   0  0  0  0  0  0  0  0  0  0  0  0
    4.9194   -3.4153    0.1606 C   0  0  2  0  0  0  0  0  0  0  0  0
    4.0576   -4.7099    0.3451 C   0  0  1  0  0  0  0  0  0  0  0  0
    4.6345   -5.6602   -0.5251 O   0  0  0  0  0  0  0  0  0  0  0  0
    1.7349   -3.7491    6.0221 C   0  0  0  0  0  0  0  0  0  0  0  0
    1.1061   -3.9546    7.0537 O   0  0  0  0  0  0  0  0  0  0  0  0
    0.1385   -1.4244    5.9287 H   0  0  0  0  0  0  0  0  0  0  0  0
   -0.9226   -2.8015    5.6221 H   0  0  0  0  0  0  0  0  0  0  0  0
   -0.5231   -1.6891    4.3209 H   0  0  0  0  0  0  0  0  0  0  0  0
    1.8629   -2.3647    4.3856 H   0  0  0  0  0  0  0  0  0  0  0  0
   -0.1083   -4.6555    4.1256 H   0  0  0  0  0  0  0  0  0  0  0  0
    0.4634   -3.5281    2.9038 H   0  0  0  0  0  0  0  0  0  0  0  0
    1.3123   -5.4590    2.4017 H   0  0  0  0  0  0  0  0  0  0  0  0
    3.1120   -5.9527    6.9436 H   0  0  0  0  0  0  0  0  0  0  0  0
    4.9420   -7.1420    6.3709 H   0  0  0  0  0  0  0  0  0  0  0  0
    5.5068   -5.4918    6.1506 H   0  0  0  0  0  0  0  0  0  0  0  0
    5.0693   -6.4883    4.7485 H   0  0  0  0  0  0  0  0  0  0  0  0
    3.6484   -3.8467    6.7946 H   0  0  0  0  0  0  0  0  0  0  0  0
    2.6725   -3.7128    2.0713 H   0  0  0  0  0  0  0  0  0  0  0  0
    2.6014   -7.0507    1.3365 H   0  0  0  0  0  0  0  0  0  0  0  0
    3.7101   -7.3274    2.6897 H   0  0  0  0  0  0  0  0  0  0  0  0
    4.2945   -7.4674    1.0699 H   0  0  0  0  0  0  0  0  0  0  0  0
    6.1797   -4.5049    4.0461 H   0  0  0  0  0  0  0  0  0  0  0  0
    6.2424   -1.6548    3.4301 H   0  0  0  0  0  0  0  0  0  0  0  0
    7.2559   -2.2235    1.5782 H   0  0  0  0  0  0  0  0  0  0  0  0
    6.4413   -0.6634    1.4457 H   0  0  0  0  0  0  0  0  0  0  0  0
    6.7894   -1.6771    0.0870 H   0  0  0  0  0  0  0  0  0  0  0  0
    2.7429   -0.8250   -0.2955 H   0  0  0  0  0  0  0  0  0  0  0  0
    3.9331    0.4080    0.1424 H   0  0  0  0  0  0  0  0  0  0  0  0
    4.1349   -0.7573   -2.0909 H   0  0  0  0  0  0  0  0  0  0  0  0
    5.5831   -0.6837   -1.2074 H   0  0  0  0  0  0  0  0  0  0  0  0
    3.3008   -4.1326   -2.1931 H   0  0  0  0  0  0  0  0  0  0  0  0
    3.1507   -2.5485   -2.8930 H   0  0  0  0  0  0  0  0  0  0  0  0
    2.4348   -2.8681   -1.3133 H   0  0  0  0  0  0  0  0  0  0  0  0
    5.7892   -4.1558   -2.4267 H   0  0  0  0  0  0  0  0  0  0  0  0
    6.7390   -2.7629   -1.9096 H   0  0  0  0  0  0  0  0  0  0  0  0
    5.5913   -2.6056   -3.2404 H   0  0  0  0  0  0  0  0  0  0  0  0
    5.9249   -3.8162    0.0803 H   0  0  0  0  0  0  0  0  0  0  0  0
    3.0116   -4.5628    0.0620 H   0  0  0  0  0  0  0  0  0  0  0  0
    4.0802   -5.7390   -1.3066 H   0  0  0  0  0  0  0  0  0  0  0  0
  1  2  1  0
  1 34  1  0
  1 35  1  0
  1 36  1  0
  2 32  1  0
  2  3  1  0
  2 37  1  6
  3  4  1  0
  3 38  1  0
  3 39  1  0
  4 13  1  0
  4  5  1  0
  4 40  1  6
  5  6  1  0
  6  7  2  0
  6  8  1  0
  8  9  1  0
  8 10  1  0
  8 41  1  1
  9 42  1  0
  9 43  1  0
  9 44  1  0
 10 11  1  0
 10 32  1  0
 10 45  1  1
 12 11  1  1
 12 17  1  0
 12 18  1  0
 12 13  1  0
 13 14  1  0
 13 46  1  6
 14 30  1  0
 14 15  1  6
 14 16  1  0
 15 47  1  0
 15 48  1  0
 15 49  1  0
 16 17  1  0
 17 18  1  0
 17 50  1  1
 18 19  1  1
 18 20  1  0
 19 51  1  0
 20 29  1  0
 20 21  1  6
 20 22  1  0
 21 52  1  0
 21 53  1  0
 21 54  1  0
 22 23  2  0
 22 24  1  0
 24 25  1  0
 24 55  1  0
 24 56  1  0
 25 26  1  0
 25 57  1  0
 25 58  1  0
 26 27  1  0
 26 28  1  0
 26 29  1  0
 27 59  1  0
 27 60  1  0
 27 61  1  0
 28 62  1  0
 28 63  1  0
 28 64  1  0
 29 30  1  0
 29 65  1  6
 30 31  1  0
 30 66  1  6
 31 67  1  0
 32 33  2  0
M  END
>  <i_m_ct_stereo_status>  (15) 
1

>  <s_m_source_file>  (15) 
/var/tmp/pbs.5076255.sched01/tmp0qfm3vo4/0bcu552to.sdf

>  <i_m_source_file_index>  (15) 
5

>  <i_lp_mmshare_version>  (15) 
48012

>  <i_f3d_flags>  (15) 
2

>  <s_epik_input>  (15) 
TzFDKD1PKVtDQEBIXShbQ0gzXSlbQ0BASF0oTzIpQyg9TylbQ0BIXShbQ0gzXSlbQ0gyXVtDQEhdMVtDQEhdKFtDQF0yMzQpW0NAQF01KFtDSDNdKU9bQ0BASF0zW0NAXTQoW09IXSlbQ0BdNihbQ0gzXSlbQ0BIXShbQ0BIXTVbT0hdKUMoW0NIM10pKFtDSDNdKVtDSDJdW0NIMl1DNj1P

>  <s_epik_cmdline>  (15) 
J2VwaWtfcHl0aG9uJywgJy1waHQnLCAnMi4wJywgJy1waCcsICc3LjAnLCAnLXRuJywgJzgnLCAnLW1hJywgJzIwMCcsICctaW1hZScsICc8aW5maWxlLm1hZT4nLCAnLW9tYWUnLCAnPG91dGZpbGUubWFlPic=

>  <r_lp_tautomer_probability>  (15) 
1

>  <r_epik_Ionization_Penalty>  (15) 
2.23262e-06

>  <r_epik_Ionization_Penalty_Charging>  (15) 
0

>  <r_epik_Ionization_Penalty_Neutral>  (15) 
2.23262e-06

>  <r_epik_State_Penalty>  (15) 
-0

>  <r_epik_Charging_Adjusted_Penalty>  (15) 
0

>  <i_epik_Tot_Q>  (15) 
0

>  <i_epik_Tot_abs_Q>  (15) 
0

>  <s_epik_Chemistry_Notes>  (15) 
This compound has an ester and may undergo hydrolysis at high or low pH.

>  <s_lp_Force_Field>  (15) 
OPLS3e

>  <r_lp_Energy>  (15) 
97.033

>  <b_lp_Chiralities_Consistent>  (15) 
0

>  <s_lp_Variant>  (15) 
1:0-1

>  <s_i_glide_gridfile>  (15) 
pfpi4k_grid

>  <i_i_glide_lignum>  (15) 
5

>  <i_i_glide_rotatable_bonds>  (15) 
2

>  <r_i_docking_score>  (15) 
-2.55502

>  <r_i_glide_ligand_efficiency>  (15) 
-0.0774248

>  <r_i_glide_ligand_efficiency_sa>  (15) 
-0.248343

>  <r_i_glide_ligand_efficiency_ln>  (15) 
-0.568223

>  <r_i_glide_gscore>  (15) 
-2.55502

>  <r_i_glide_lipo>  (15) 
-0.496136

>  <r_i_glide_hbond>  (15) 
0

>  <r_i_glide_metal>  (15) 
-0

>  <r_i_glide_rewards>  (15) 
-0.255459

>  <r_i_glide_evdw>  (15) 
-19.3383

>  <r_i_glide_ecoul>  (15) 
-5.4787

>  <r_i_glide_erotb>  (15) 
0

>  <r_i_glide_esite>  (15) 
-0.0147018

>  <r_i_glide_emodel>  (15) 
-26.4004

>  <r_i_glide_energy>  (15) 
-24.817

>  <r_i_glide_einternal>  (15) 
1.44192

>  <r_i_glide_intrahb_reward>  (15) 
-0

>  <i_i_glide_confnum>  (15) 
2

>  <i_i_glide_posenum>  (15) 
25

>  <r_i_glide_eff_state_penalty>  (15) 
0

>  <ligand_id>  (15) 
1

>  <original_smiles>  (15) 
CC1CC2OC(=O)C(C)C(OC34C2C2(C)OC3C4(O)C3(C)C(=O)CCC(C)(C)C3C2O)C1=O

>  <smiles>  (15) 
[H]OC1([H])C2([H])C(C([H])([H])[H])(C(=O)C([H])([H])C([H])([H])C2(C([H])([H])[H])C([H])([H])[H])C2(O[H])C3([H])OC1(C([H])([H])[H])C1([H])C4([H])OC(=O)C([H])(C([H])([H])[H])C([H])(OC312)C(=O)C([H])(C([H])([H])[H])C4([H])[H]

$$$$
2:0:0
     RDKit          3D

 32 34  0  0  1  0  0  0  0  0999 V2000
    2.8910   -4.2959    1.9315 C   0  0  0  0  0  0  0  0  0  0  0  0
    3.9526   -3.4079    1.2347 C   0  0  2  0  0  0  0  0  0  0  0  0
    3.4165   -2.2551    0.3613 C   0  0  2  0  0  0  0  0  0  0  0  0
    2.8638   -3.1135   -0.7836 C   0  0  0  0  0  0  0  0  0  0  0  0
    4.0906   -3.8425   -1.1605 N   0  0  1  0  0  0  0  0  0  0  0  0
    4.7797   -2.9874   -2.1754 C   0  0  0  0  0  0  0  0  0  0  0  0
    4.7562   -1.4860   -1.7404 C   0  0  0  0  0  0  0  0  0  0  0  0
    4.6127   -1.3549   -0.1982 C   0  0  2  0  0  0  0  0  0  0  0  0
    5.9827   -1.7764    0.3867 C   0  0  0  0  0  0  0  0  0  0  0  0
    6.1924   -3.3090    0.2458 C   0  0  0  0  0  0  0  0  0  0  0  0
    4.8347   -4.0807    0.1453 C   0  0  1  0  0  0  0  0  0  0  0  0
    5.0881   -5.5799    0.3896 C   0  0  0  0  0  0  0  0  0  0  0  0
    2.3320   -4.9455    1.2594 H   0  0  0  0  0  0  0  0  0  0  0  0
    2.1730   -3.6839    2.4780 H   0  0  0  0  0  0  0  0  0  0  0  0
    3.3687   -4.9517    2.6606 H   0  0  0  0  0  0  0  0  0  0  0  0
    4.5421   -3.0172    2.0652 H   0  0  0  0  0  0  0  0  0  0  0  0
    2.6459   -1.6627    0.8557 H   0  0  0  0  0  0  0  0  0  0  0  0
    2.0738   -3.7932   -0.4770 H   0  0  0  0  0  0  0  0  0  0  0  0
    2.4210   -2.5298   -1.5934 H   0  0  0  0  0  0  0  0  0  0  0  0
    5.7847   -3.3436   -2.3956 H   0  0  0  0  0  0  0  0  0  0  0  0
    4.2392   -3.0716   -3.1181 H   0  0  0  0  0  0  0  0  0  0  0  0
    5.6450   -0.9699   -2.1058 H   0  0  0  0  0  0  0  0  0  0  0  0
    3.9171   -0.9683   -2.2111 H   0  0  0  0  0  0  0  0  0  0  0  0
    4.4292   -0.3075    0.0528 H   0  0  0  0  0  0  0  0  0  0  0  0
    6.8057   -1.2367   -0.0821 H   0  0  0  0  0  0  0  0  0  0  0  0
    6.0228   -1.4887    1.4390 H   0  0  0  0  0  0  0  0  0  0  0  0
    6.8658   -3.5483   -0.5768 H   0  0  0  0  0  0  0  0  0  0  0  0
    6.7273   -3.6402    1.1367 H   0  0  0  0  0  0  0  0  0  0  0  0
    5.5233   -5.7421    1.3769 H   0  0  0  0  0  0  0  0  0  0  0  0
    5.8005   -5.9778   -0.3301 H   0  0  0  0  0  0  0  0  0  0  0  0
    4.1786   -6.1804    0.3247 H   0  0  0  0  0  0  0  0  0  0  0  0
    3.8312   -4.7249   -1.5945 H   0  0  0  0  0  0  0  0  0  0  0  0
  1  2  1  0
  1 13  1  0
  1 14  1  0
  1 15  1  0
  2 11  1  0
  2  3  1  0
  2 16  1  1
  3  8  1  0
  3  4  1  0
  3 17  1  1
  4  5  1  0
  4 18  1  0
  4 19  1  0
  5 11  1  0
  5  6  1  0
  5 32  1  6
  6  7  1  0
  6 20  1  0
  6 21  1  0
  7  8  1  0
  7 22  1  0
  7 23  1  0
  8  9  1  0
  8 24  1  6
  9 10  1  0
  9 25  1  0
  9 26  1  0
 10 11  1  0
 10 27  1  0
 10 28  1  0
 11 12  1  1
 12 29  1  0
 12 30  1  0
 12 31  1  0
M  CHG  1   5   1
M  END
>  <i_m_ct_stereo_status>  (16) 
1

>  <s_m_source_file>  (16) 
/var/tmp/pbs.5076255.sched01/tmp0qfm3vo4/0bcu552to.sdf

>  <i_m_source_file_index>  (16) 
6

>  <i_lp_mmshare_version>  (16) 
48012

>  <i_f3d_flags>  (16) 
0

>  <s_epik_input>  (16) 
W0NIMl0xW0NIMl1bQ0BIXShbQ0gyXVtDSDJdMilbQ0BIXShbQ0BIXTNbQ0gzXSlbQ0gyXU4xW0NAQF0yM1tDSDNd

>  <s_epik_cmdline>  (16) 
J2VwaWtfcHl0aG9uJywgJy1waHQnLCAnMi4wJywgJy1waCcsICc3LjAnLCAnLXRuJywgJzgnLCAnLW1hJywgJzIwMCcsICctaW1hZScsICc8aW5maWxlLm1hZT4nLCAnLW9tYWUnLCAnPG91dGZpbGUubWFlPic=

>  <r_lp_tautomer_probability>  (16) 
1

>  <r_epik_Ionization_Penalty>  (16) 
0.000147415

>  <r_epik_Ionization_Penalty_Charging>  (16) 
0.000147415

>  <r_epik_Ionization_Penalty_Neutral>  (16) 
0

>  <r_epik_State_Penalty>  (16) 
-0

>  <r_epik_Charging_Adjusted_Penalty>  (16) 
0.000147415

>  <i_epik_Tot_Q>  (16) 
1

>  <i_epik_Tot_abs_Q>  (16) 
1

>  <s_lp_Force_Field>  (16) 
OPLS3e

>  <r_lp_Energy>  (16) 
53.8436

>  <b_lp_Chiralities_Consistent>  (16) 
1

>  <s_lp_Variant>  (16) 
2:0-1

>  <s_i_glide_gridfile>  (16) 
pfpi4k_grid

>  <i_i_glide_lignum>  (16) 
6

>  <i_i_glide_rotatable_bonds>  (16) 
0

>  <r_i_docking_score>  (16) 
-4.07899

>  <r_i_glide_ligand_efficiency>  (16) 
-0.339915

>  <r_i_glide_ligand_efficiency_sa>  (16) 
-0.778212

>  <r_i_glide_ligand_efficiency_ln>  (16) 
-1.17047

>  <r_i_glide_gscore>  (16) 
-4.07899

>  <r_i_glide_lipo>  (16) 
-0.383169

>  <r_i_glide_hbond>  (16) 
0

>  <r_i_glide_metal>  (16) 
-0

>  <r_i_glide_rewards>  (16) 
-2.25

>  <r_i_glide_evdw>  (16) 
-15.6729

>  <r_i_glide_ecoul>  (16) 
-4.23618

>  <r_i_glide_erotb>  (16) 
0

>  <r_i_glide_esite>  (16) 
-0.0267467

>  <r_i_glide_emodel>  (16) 
-25.3285

>  <r_i_glide_energy>  (16) 
-19.909

>  <r_i_glide_einternal>  (16) 
0

>  <r_i_glide_intrahb_reward>  (16) 
-0

>  <i_i_glide_confnum>  (16) 
2

>  <i_i_glide_posenum>  (16) 
1

>  <r_i_glide_eff_state_penalty>  (16) 
0

>  <ligand_id>  (16) 
2

>  <original_smiles>  (16) 
CC1C2CN3CCC2CCC13C

>  <smiles>  (16) 
[H]C([H])([H])C1([H])C2([H])C3([H])C([H])([H])C([H])([H])C1(C([H])([H])[H])[N+]([H])(C([H])([H])C3([H])[H])C2([H])[H]

$$$$
2:0:1
     RDKit          3D

 32 34  0  0  1  0  0  0  0  0999 V2000
    3.8681   -2.7625    1.6588 C   0  0  0  0  0  0  0  0  0  0  0  0
    3.8135   -2.3341    0.1705 C   0  0  2  0  0  0  0  0  0  0  0  0
    3.3774   -3.4160   -0.8410 C   0  0  2  0  0  0  0  0  0  0  0  0
    4.6348   -4.2860   -0.7544 C   0  0  0  0  0  0  0  0  0  0  0  0
    5.6505   -3.2799   -1.1173 N   0  0  1  0  0  0  0  0  0  0  0  0
    5.7489   -3.3126   -2.6083 C   0  0  0  0  0  0  0  0  0  0  0  0
    4.3459   -3.3764   -3.2726 C   0  0  0  0  0  0  0  0  0  0  0  0
    3.2599   -2.8091   -2.3171 C   0  0  2  0  0  0  0  0  0  0  0  0
    3.4843   -1.2780   -2.3412 C   0  0  0  0  0  0  0  0  0  0  0  0
    4.7748   -0.9033   -1.5654 C   0  0  0  0  0  0  0  0  0  0  0  0
    5.1678   -1.9762   -0.5029 C   0  0  1  0  0  0  0  0  0  0  0  0
    6.2170   -1.3844    0.4625 C   0  0  0  0  0  0  0  0  0  0  0  0
    4.6767   -3.4502    1.9046 H   0  0  0  0  0  0  0  0  0  0  0  0
    2.9319   -3.2324    1.9584 H   0  0  0  0  0  0  0  0  0  0  0  0
    4.0087   -1.8908    2.2983 H   0  0  0  0  0  0  0  0  0  0  0  0
    3.1125   -1.4964    0.1661 H   0  0  0  0  0  0  0  0  0  0  0  0
    2.4760   -3.9458   -0.5358 H   0  0  0  0  0  0  0  0  0  0  0  0
    4.8188   -4.7024    0.2316 H   0  0  0  0  0  0  0  0  0  0  0  0
    4.6179   -5.1483   -1.4197 H   0  0  0  0  0  0  0  0  0  0  0  0
    6.3578   -2.5054   -2.9896 H   0  0  0  0  0  0  0  0  0  0  0  0
    6.2715   -4.2162   -2.8951 H   0  0  0  0  0  0  0  0  0  0  0  0
    4.3497   -2.8615   -4.2363 H   0  0  0  0  0  0  0  0  0  0  0  0
    4.1169   -4.4096   -3.5201 H   0  0  0  0  0  0  0  0  0  0  0  0
    2.2680   -3.0268   -2.7249 H   0  0  0  0  0  0  0  0  0  0  0  0
    3.5256   -0.8887   -3.3609 H   0  0  0  0  0  0  0  0  0  0  0  0
    2.6177   -0.7881   -1.8974 H   0  0  0  0  0  0  0  0  0  0  0  0
    5.5891   -0.6695   -2.2471 H   0  0  0  0  0  0  0  0  0  0  0  0
    4.5793    0.0293   -1.0420 H   0  0  0  0  0  0  0  0  0  0  0  0
    5.8131   -0.5079    0.9688 H   0  0  0  0  0  0  0  0  0  0  0  0
    7.1134   -1.0663   -0.0652 H   0  0  0  0  0  0  0  0  0  0  0  0
    6.5314   -2.0918    1.2294 H   0  0  0  0  0  0  0  0  0  0  0  0
    6.5428   -3.5392   -0.7234 H   0  0  0  0  0  0  0  0  0  0  0  0
  1  2  1  0
  1 13  1  0
  1 14  1  0
  1 15  1  0
  2 11  1  0
  2  3  1  0
  2 16  1  1
  3  8  1  0
  3  4  1  0
  3 17  1  1
  4  5  1  0
  4 18  1  0
  4 19  1  0
  5 11  1  0
  5  6  1  0
  5 32  1  1
  6  7  1  0
  6 20  1  0
  6 21  1  0
  7  8  1  0
  7 22  1  0
  7 23  1  0
  8  9  1  0
  8 24  1  6
  9 10  1  0
  9 25  1  0
  9 26  1  0
 10 11  1  0
 10 27  1  0
 10 28  1  0
 11 12  1  1
 12 29  1  0
 12 30  1  0
 12 31  1  0
M  CHG  1   5   1
M  END
>  <i_m_ct_stereo_status>  (17) 
1

>  <s_m_source_file>  (17) 
/var/tmp/pbs.5076255.sched01/tmp0qfm3vo4/0bcu552to.sdf

>  <i_m_source_file_index>  (17) 
6

>  <i_lp_mmshare_version>  (17) 
48012

>  <i_f3d_flags>  (17) 
0

>  <s_epik_input>  (17) 
W0NIMl0xW0NIMl1bQ0BIXShbQ0gyXVtDSDJdMilbQ0BIXShbQ0BIXTNbQ0gzXSlbQ0gyXU4xW0NAQF0yM1tDSDNd

>  <s_epik_cmdline>  (17) 
J2VwaWtfcHl0aG9uJywgJy1waHQnLCAnMi4wJywgJy1waCcsICc3LjAnLCAnLXRuJywgJzgnLCAnLW1hJywgJzIwMCcsICctaW1hZScsICc8aW5maWxlLm1hZT4nLCAnLW9tYWUnLCAnPG91dGZpbGUubWFlPic=

>  <r_lp_tautomer_probability>  (17) 
1

>  <r_epik_Ionization_Penalty>  (17) 
0.000147415

>  <r_epik_Ionization_Penalty_Charging>  (17) 
0.000147415

>  <r_epik_Ionization_Penalty_Neutral>  (17) 
0

>  <r_epik_State_Penalty>  (17) 
-0

>  <r_epik_Charging_Adjusted_Penalty>  (17) 
0.000147415

>  <i_epik_Tot_Q>  (17) 
1

>  <i_epik_Tot_abs_Q>  (17) 
1

>  <s_lp_Force_Field>  (17) 
OPLS3e

>  <r_lp_Energy>  (17) 
53.8436

>  <b_lp_Chiralities_Consistent>  (17) 
1

>  <s_lp_Variant>  (17) 
2:0-1

>  <s_i_glide_gridfile>  (17) 
pfpi4k_grid

>  <i_i_glide_lignum>  (17) 
6

>  <i_i_glide_rotatable_bonds>  (17) 
0

>  <r_i_docking_score>  (17) 
-3.9129

>  <r_i_glide_ligand_efficiency>  (17) 
-0.326075

>  <r_i_glide_ligand_efficiency_sa>  (17) 
-0.746526

>  <r_i_glide_ligand_efficiency_ln>  (17) 
-1.12281

>  <r_i_glide_gscore>  (17) 
-3.9129

>  <r_i_glide_lipo>  (17) 
-0.56636

>  <r_i_glide_hbond>  (17) 
0

>  <r_i_glide_metal>  (17) 
-0

>  <r_i_glide_rewards>  (17) 
-2.25

>  <r_i_glide_evdw>  (17) 
-15.493

>  <r_i_glide_ecoul>  (17) 
-2.14598

>  <r_i_glide_erotb>  (17) 
0

>  <r_i_glide_esite>  (17) 
0

>  <r_i_glide_emodel>  (17) 
-22.8293

>  <r_i_glide_energy>  (17) 
-17.6389

>  <r_i_glide_einternal>  (17) 
0

>  <r_i_glide_intrahb_reward>  (17) 
-0

>  <i_i_glide_confnum>  (17) 
1

>  <i_i_glide_posenum>  (17) 
7

>  <r_i_glide_eff_state_penalty>  (17) 
0

>  <ligand_id>  (17) 
2

>  <original_smiles>  (17) 
CC1C2CN3CCC2CCC13C

>  <smiles>  (17) 
[H]C([H])([H])C1([H])C2([H])C3([H])C([H])([H])C([H])([H])C1(C([H])([H])[H])[N+]([H])(C([H])([H])C3([H])[H])C2([H])[H]

$$$$
2:0:2
     RDKit          3D

 32 34  0  0  1  0  0  0  0  0999 V2000
    4.2684   -0.8490   -2.4622 C   0  0  0  0  0  0  0  0  0  0  0  0
    4.1233   -1.6533   -1.1465 C   0  0  2  0  0  0  0  0  0  0  0  0
    5.4323   -2.0769   -0.4476 C   0  0  2  0  0  0  0  0  0  0  0  0
    5.8730   -3.1306   -1.4722 C   0  0  0  0  0  0  0  0  0  0  0  0
    4.6800   -4.0037   -1.4430 N   0  0  1  0  0  0  0  0  0  0  0  0
    4.9177   -5.0002   -0.3511 C   0  0  0  0  0  0  0  0  0  0  0  0
    5.5153   -4.3078    0.9103 C   0  0  0  0  0  0  0  0  0  0  0  0
    5.1327   -2.8027    0.9450 C   0  0  2  0  0  0  0  0  0  0  0  0
    3.6245   -2.7737    1.3036 C   0  0  0  0  0  0  0  0  0  0  0  0
    2.7654   -3.2630    0.1093 C   0  0  0  0  0  0  0  0  0  0  0  0
    3.4945   -3.0707   -1.2592 C   0  0  1  0  0  0  0  0  0  0  0  0
    2.4737   -3.2085   -2.4073 C   0  0  0  0  0  0  0  0  0  0  0  0
    4.6391   -1.4241   -3.3097 H   0  0  0  0  0  0  0  0  0  0  0  0
    4.9335    0.0024   -2.3207 H   0  0  0  0  0  0  0  0  0  0  0  0
    3.3015   -0.4465   -2.7639 H   0  0  0  0  0  0  0  0  0  0  0  0
    3.5358   -0.9939   -0.5049 H   0  0  0  0  0  0  0  0  0  0  0  0
    6.1440   -1.2572   -0.3410 H   0  0  0  0  0  0  0  0  0  0  0  0
    6.0536   -2.7301   -2.4660 H   0  0  0  0  0  0  0  0  0  0  0  0
    6.8041   -3.6290   -1.2032 H   0  0  0  0  0  0  0  0  0  0  0  0
    4.0284   -5.5897   -0.1338 H   0  0  0  0  0  0  0  0  0  0  0  0
    5.6427   -5.7293   -0.7056 H   0  0  0  0  0  0  0  0  0  0  0  0
    5.1916   -4.8315    1.8125 H   0  0  0  0  0  0  0  0  0  0  0  0
    6.6031   -4.3931    0.9069 H   0  0  0  0  0  0  0  0  0  0  0  0
    5.6928   -2.3124    1.7447 H   0  0  0  0  0  0  0  0  0  0  0  0
    3.4108   -3.3714    2.1930 H   0  0  0  0  0  0  0  0  0  0  0  0
    3.3423   -1.7542    1.5695 H   0  0  0  0  0  0  0  0  0  0  0  0
    2.4182   -4.2857    0.2521 H   0  0  0  0  0  0  0  0  0  0  0  0
    1.8579   -2.6625    0.1117 H   0  0  0  0  0  0  0  0  0  0  0  0
    1.6981   -2.4496   -2.3229 H   0  0  0  0  0  0  0  0  0  0  0  0
    1.9587   -4.1692   -2.3712 H   0  0  0  0  0  0  0  0  0  0  0  0
    2.9254   -3.1102   -3.3947 H   0  0  0  0  0  0  0  0  0  0  0  0
    4.5750   -4.5108   -2.3116 H   0  0  0  0  0  0  0  0  0  0  0  0
  1  2  1  0
  1 13  1  0
  1 14  1  0
  1 15  1  0
  2 11  1  0
  2  3  1  0
  2 16  1  1
  3  8  1  0
  3  4  1  0
  3 17  1  1
  4  5  1  0
  4 18  1  0
  4 19  1  0
  5 11  1  0
  5  6  1  0
  5 32  1  6
  6  7  1  0
  6 20  1  0
  6 21  1  0
  7  8  1  0
  7 22  1  0
  7 23  1  0
  8  9  1  0
  8 24  1  1
  9 10  1  0
  9 25  1  0
  9 26  1  0
 10 11  1  0
 10 27  1  0
 10 28  1  0
 11 12  1  6
 12 29  1  0
 12 30  1  0
 12 31  1  0
M  CHG  1   5   1
M  END
>  <i_m_ct_stereo_status>  (18) 
1

>  <s_m_source_file>  (18) 
/var/tmp/pbs.5076255.sched01/tmp0qfm3vo4/0bcu552to.sdf

>  <i_m_source_file_index>  (18) 
6

>  <i_lp_mmshare_version>  (18) 
48012

>  <i_f3d_flags>  (18) 
0

>  <s_epik_input>  (18) 
W0NIMl0xW0NIMl1bQ0BIXShbQ0gyXVtDSDJdMilbQ0BIXShbQ0BIXTNbQ0gzXSlbQ0gyXU4xW0NAQF0yM1tDSDNd

>  <s_epik_cmdline>  (18) 
J2VwaWtfcHl0aG9uJywgJy1waHQnLCAnMi4wJywgJy1waCcsICc3LjAnLCAnLXRuJywgJzgnLCAnLW1hJywgJzIwMCcsICctaW1hZScsICc8aW5maWxlLm1hZT4nLCAnLW9tYWUnLCAnPG91dGZpbGUubWFlPic=

>  <r_lp_tautomer_probability>  (18) 
1

>  <r_epik_Ionization_Penalty>  (18) 
0.000147415

>  <r_epik_Ionization_Penalty_Charging>  (18) 
0.000147415

>  <r_epik_Ionization_Penalty_Neutral>  (18) 
0

>  <r_epik_State_Penalty>  (18) 
-0

>  <r_epik_Charging_Adjusted_Penalty>  (18) 
0.000147415

>  <i_epik_Tot_Q>  (18) 
1

>  <i_epik_Tot_abs_Q>  (18) 
1

>  <s_lp_Force_Field>  (18) 
OPLS3e

>  <r_lp_Energy>  (18) 
53.8436

>  <b_lp_Chiralities_Consistent>  (18) 
1

>  <s_lp_Variant>  (18) 
2:0-1

>  <s_i_glide_gridfile>  (18) 
pfpi4k_grid

>  <i_i_glide_lignum>  (18) 
6

>  <i_i_glide_rotatable_bonds>  (18) 
0

>  <r_i_docking_score>  (18) 
-3.78312

>  <r_i_glide_ligand_efficiency>  (18) 
-0.31526

>  <r_i_glide_ligand_efficiency_sa>  (18) 
-0.721766

>  <r_i_glide_ligand_efficiency_ln>  (18) 
-1.08557

>  <r_i_glide_gscore>  (18) 
-3.78312

>  <r_i_glide_lipo>  (18) 
-0.274902

>  <r_i_glide_hbond>  (18) 
0

>  <r_i_glide_metal>  (18) 
-0

>  <r_i_glide_rewards>  (18) 
-2.25

>  <r_i_glide_evdw>  (18) 
-15.1876

>  <r_i_glide_ecoul>  (18) 
-3.16073

>  <r_i_glide_erotb>  (18) 
0

>  <r_i_glide_esite>  (18) 
-0.0247326

>  <r_i_glide_emodel>  (18) 
-23.3609

>  <r_i_glide_energy>  (18) 
-18.3483

>  <r_i_glide_einternal>  (18) 
0

>  <r_i_glide_intrahb_reward>  (18) 
-0

>  <i_i_glide_confnum>  (18) 
2

>  <i_i_glide_posenum>  (18) 
36

>  <r_i_glide_eff_state_penalty>  (18) 
0

>  <ligand_id>  (18) 
2

>  <original_smiles>  (18) 
CC1C2CN3CCC2CCC13C

>  <smiles>  (18) 
[H]C([H])([H])C1([H])C2([H])C3([H])C([H])([H])C([H])([H])C1(C([H])([H])[H])[N+]([H])(C([H])([H])C3([H])[H])C2([H])[H]

$$$$
3:0:0
     RDKit          3D

 31 35  0  0  1  0  0  0  0  0999 V2000
   -0.4716   -3.6951    6.8915 C   0  0  0  0  0  0  0  0  0  0  0  0
   -0.5890   -3.4779    8.2009 N   0  0  0  0  0  0  0  0  0  0  0  0
   -0.3679   -4.4932    9.0739 C   0  0  0  0  0  0  0  0  0  0  0  0
   -0.0443   -5.7744    8.5523 C   0  0  0  0  0  0  0  0  0  0  0  0
    0.2083   -6.9994    9.1547 N   0  0  0  0  0  0  0  0  0  0  0  0
    0.4460   -7.7611    8.0813 C   0  0  0  0  0  0  0  0  0  0  0  0
    0.3475   -7.1836    6.8707 N   0  0  0  0  0  0  0  0  0  0  0  0
    0.5474   -7.8110    5.5986 C   0  0  2  0  0  0  0  0  0  0  0  0
    1.7470   -7.4074    4.7344 C   0  0  0  0  0  0  0  0  0  0  0  0
    0.8008   -7.0904    3.5818 C   0  0  1  0  0  0  0  0  0  0  0  0
    0.5365   -8.0510    2.4158 C   0  0  2  0  0  0  0  0  0  0  0  0
   -0.9629   -7.9999    2.0816 C   0  0  0  0  0  0  0  0  0  0  0  0
   -0.9733   -8.5497    3.5140 C   0  0  1  0  0  0  0  0  0  0  0  0
    0.1421   -9.4438    2.9428 C   0  0  0  0  0  0  0  0  0  0  0  0
   -0.3893   -7.4808    4.4396 C   0  0  1  0  0  0  0  0  0  0  0  0
    0.0367   -5.8517    7.1350 C   0  0  0  0  0  0  0  0  0  0  0  0
   -0.1768   -4.8274    6.2551 N   0  0  0  0  0  0  0  0  0  0  0  0
   -0.6579   -2.8517    6.2608 H   0  0  0  0  0  0  0  0  0  0  0  0
   -0.4496   -4.3093   10.1325 H   0  0  0  0  0  0  0  0  0  0  0  0
    0.6790   -8.8118    8.1900 H   0  0  0  0  0  0  0  0  0  0  0  0
    0.5378   -8.8850    5.7805 H   0  0  0  0  0  0  0  0  0  0  0  0
    2.2713   -6.5235    5.1030 H   0  0  0  0  0  0  0  0  0  0  0  0
    2.4222   -8.2349    4.5209 H   0  0  0  0  0  0  0  0  0  0  0  0
    0.7999   -6.0394    3.3070 H   0  0  0  0  0  0  0  0  0  0  0  0
    1.2184   -8.0484    1.5676 H   0  0  0  0  0  0  0  0  0  0  0  0
   -1.3539   -6.9878    2.0213 H   0  0  0  0  0  0  0  0  0  0  0  0
   -1.3425   -8.6642    1.2872 H   0  0  0  0  0  0  0  0  0  0  0  0
   -1.8813   -9.0623    3.8225 H   0  0  0  0  0  0  0  0  0  0  0  0
   -0.1509  -10.2052    2.1971 H   0  0  0  0  0  0  0  0  0  0  0  0
    0.8230   -9.8488    3.6920 H   0  0  0  0  0  0  0  0  0  0  0  0
   -1.0711   -6.6540    4.6152 H   0  0  0  0  0  0  0  0  0  0  0  0
  1 17  1  0
  1  2  2  0
  1 18  1  0
  2  3  1  0
  3  4  2  0
  3 19  1  0
  4 16  1  0
  4  5  1  0
  5  6  2  0
  6  7  1  0
  6 20  1  0
  7  8  1  0
  7 16  1  0
  8 15  1  0
  8  9  1  0
  8 21  1  1
  9 10  1  0
  9 22  1  0
  9 23  1  0
 10 15  1  0
 10 11  1  0
 10 24  1  6
 11 14  1  0
 11 12  1  0
 11 25  1  6
 12 13  1  0
 12 26  1  0
 12 27  1  0
 13 14  1  0
 13 15  1  0
 13 28  1  1
 14 29  1  0
 14 30  1  0
 15 31  1  1
 16 17  2  0
M  END
>  <i_m_ct_stereo_status>  (19) 
1

>  <s_m_source_file>  (19) 
/var/tmp/pbs.5076255.sched01/tmp0qfm3vo4/0bcu552to.sdf

>  <i_m_source_file_index>  (19) 
7

>  <i_lp_mmshare_version>  (19) 
48012

>  <i_f3d_flags>  (19) 
0

>  <s_epik_input>  (19) 
W2NIXTFuW2NIXW5jKGMxMiluKFtjSF1uMilbQ0BIXShbQ0gyXTMpW0NAQEhdNFtDQEhdKFtDSDJdNSlbQ0gyXVtDQEhdNVtDQEhdMzQ=

>  <s_epik_cmdline>  (19) 
J2VwaWtfcHl0aG9uJywgJy1waHQnLCAnMi4wJywgJy1waCcsICc3LjAnLCAnLXRuJywgJzgnLCAnLW1hJywgJzIwMCcsICctaW1hZScsICc8aW5maWxlLm1hZT4nLCAnLW9tYWUnLCAnPG91dGZpbGUubWFlPic=

>  <r_lp_tautomer_probability>  (19) 
1

>  <r_epik_Ionization_Penalty>  (19) 
0.00012671

>  <r_epik_Ionization_Penalty_Charging>  (19) 
0

>  <r_epik_Ionization_Penalty_Neutral>  (19) 
0.00012671

>  <r_epik_State_Penalty>  (19) 
-0

>  <r_epik_Charging_Adjusted_Penalty>  (19) 
0

>  <i_epik_Tot_Q>  (19) 
0

>  <i_epik_Tot_abs_Q>  (19) 
0

>  <s_lp_Force_Field>  (19) 
OPLS3e

>  <r_lp_Energy>  (19) 
55.5053

>  <b_lp_Chiralities_Consistent>  (19) 
1

>  <s_lp_Variant>  (19) 
3:0-1

>  <s_i_glide_gridfile>  (19) 
pfpi4k_grid

>  <i_i_glide_lignum>  (19) 
7

>  <i_i_glide_rotatable_bonds>  (19) 
1

>  <r_i_docking_score>  (19) 
-3.50967

>  <r_i_glide_ligand_efficiency>  (19) 
-0.206451

>  <r_i_glide_ligand_efficiency_sa>  (19) 
-0.530845

>  <r_i_glide_ligand_efficiency_ln>  (19) 
-0.915596

>  <r_i_glide_gscore>  (19) 
-3.50967

>  <r_i_glide_lipo>  (19) 
0

>  <r_i_glide_hbond>  (19) 
-0.342296

>  <r_i_glide_metal>  (19) 
-0

>  <r_i_glide_rewards>  (19) 
-1.86629

>  <r_i_glide_evdw>  (19) 
-18.4177

>  <r_i_glide_ecoul>  (19) 
-4.26849

>  <r_i_glide_erotb>  (19) 
0.331848

>  <r_i_glide_esite>  (19) 
-0.0717756

>  <r_i_glide_emodel>  (19) 
-27.952

>  <r_i_glide_energy>  (19) 
-22.6862

>  <r_i_glide_einternal>  (19) 
0.162204

>  <r_i_glide_intrahb_reward>  (19) 
-0

>  <i_i_glide_confnum>  (19) 
6

>  <i_i_glide_posenum>  (19) 
35

>  <r_i_glide_eff_state_penalty>  (19) 
0

>  <ligand_id>  (19) 
3

>  <original_smiles>  (19) 
c1ncc2ncn(C3CC4C5CC(C5)C43)c2n1

>  <smiles>  (19) 
[H]c1nc([H])c2nc([H])n(C3([H])C([H])([H])C4([H])C5([H])C([H])([H])C([H])(C5([H])[H])C34[H])c2n1

$$$$
3:0:1
     RDKit          3D

 31 35  0  0  1  0  0  0  0  0999 V2000
    7.8008   -6.0478    1.7223 C   0  0  0  0  0  0  0  0  0  0  0  0
    7.4645   -6.2551    2.9945 N   0  0  0  0  0  0  0  0  0  0  0  0
    6.2605   -5.8353    3.4600 C   0  0  0  0  0  0  0  0  0  0  0  0
    5.3956   -5.1771    2.5512 C   0  0  0  0  0  0  0  0  0  0  0  0
    4.1207   -4.6443    2.7028 N   0  0  0  0  0  0  0  0  0  0  0  0
    3.9062   -4.1931    1.4704 C   0  0  0  0  0  0  0  0  0  0  0  0
    4.8858   -4.3262    0.5570 N   0  0  0  0  0  0  0  0  0  0  0  0
    4.8480   -3.9219   -0.8127 C   0  0  2  0  0  0  0  0  0  0  0  0
    5.9714   -3.0353   -1.3705 C   0  0  0  0  0  0  0  0  0  0  0  0
    4.9347   -2.0162   -1.8231 C   0  0  1  0  0  0  0  0  0  0  0  0
    4.4184   -1.9185   -3.2616 C   0  0  2  0  0  0  0  0  0  0  0  0
    2.9103   -1.6558   -3.2201 C   0  0  0  0  0  0  0  0  0  0  0  0
    3.0112   -3.0358   -2.5542 C   0  0  1  0  0  0  0  0  0  0  0  0
    3.9323   -3.2926   -3.7562 C   0  0  0  0  0  0  0  0  0  0  0  0
    3.8259   -2.8845   -1.2711 C   0  0  1  0  0  0  0  0  0  0  0  0
    5.8900   -5.0169    1.2302 C   0  0  0  0  0  0  0  0  0  0  0  0
    7.1080   -5.4383    0.7593 N   0  0  0  0  0  0  0  0  0  0  0  0
    8.7702   -6.4081    1.4421 H   0  0  0  0  0  0  0  0  0  0  0  0
    6.0044   -5.9965    4.4919 H   0  0  0  0  0  0  0  0  0  0  0  0
    2.9648   -3.7159    1.2440 H   0  0  0  0  0  0  0  0  0  0  0  0
    4.7503   -4.8439   -1.3855 H   0  0  0  0  0  0  0  0  0  0  0  0
    6.6348   -2.6426   -0.5955 H   0  0  0  0  0  0  0  0  0  0  0  0
    6.5135   -3.4853   -2.2043 H   0  0  0  0  0  0  0  0  0  0  0  0
    5.0035   -1.0643   -1.3052 H   0  0  0  0  0  0  0  0  0  0  0  0
    4.9710   -1.3262   -3.9828 H   0  0  0  0  0  0  0  0  0  0  0  0
    2.6210   -0.8769   -2.5166 H   0  0  0  0  0  0  0  0  0  0  0  0
    2.3627   -1.5932   -4.1798 H   0  0  0  0  0  0  0  0  0  0  0  0
    2.0937   -3.6193   -2.5321 H   0  0  0  0  0  0  0  0  0  0  0  0
    3.4343   -3.3413   -4.7378 H   0  0  0  0  0  0  0  0  0  0  0  0
    4.6447   -4.1038   -3.6110 H   0  0  0  0  0  0  0  0  0  0  0  0
    3.2868   -2.3687   -0.4859 H   0  0  0  0  0  0  0  0  0  0  0  0
  1 17  1  0
  1  2  2  0
  1 18  1  0
  2  3  1  0
  3  4  2  0
  3 19  1  0
  4 16  1  0
  4  5  1  0
  5  6  2  0
  6  7  1  0
  6 20  1  0
  7  8  1  0
  7 16  1  0
  8 15  1  0
  8  9  1  0
  8 21  1  6
  9 10  1  0
  9 22  1  0
  9 23  1  0
 10 15  1  0
 10 11  1  0
 10 24  1  1
 11 14  1  0
 11 12  1  0
 11 25  1  6
 12 13  1  0
 12 26  1  0
 12 27  1  0
 13 14  1  0
 13 15  1  0
 13 28  1  1
 14 29  1  0
 14 30  1  0
 15 31  1  1
 16 17  2  0
M  END
>  <i_m_ct_stereo_status>  (20) 
1

>  <s_m_source_file>  (20) 
/var/tmp/pbs.5076255.sched01/tmp0qfm3vo4/0bcu552to.sdf

>  <i_m_source_file_index>  (20) 
7

>  <i_lp_mmshare_version>  (20) 
48012

>  <i_f3d_flags>  (20) 
0

>  <s_epik_input>  (20) 
W2NIXTFuW2NIXW5jKGMxMiluKFtjSF1uMilbQ0BIXShbQ0gyXTMpW0NAQEhdNFtDQEhdKFtDSDJdNSlbQ0gyXVtDQEhdNVtDQEhdMzQ=

>  <s_epik_cmdline>  (20) 
J2VwaWtfcHl0aG9uJywgJy1waHQnLCAnMi4wJywgJy1waCcsICc3LjAnLCAnLXRuJywgJzgnLCAnLW1hJywgJzIwMCcsICctaW1hZScsICc8aW5maWxlLm1hZT4nLCAnLW9tYWUnLCAnPG91dGZpbGUubWFlPic=

>  <r_lp_tautomer_probability>  (20) 
1

>  <r_epik_Ionization_Penalty>  (20) 
0.00012671

>  <r_epik_Ionization_Penalty_Charging>  (20) 
0

>  <r_epik_Ionization_Penalty_Neutral>  (20) 
0.00012671

>  <r_epik_State_Penalty>  (20) 
-0

>  <r_epik_Charging_Adjusted_Penalty>  (20) 
0

>  <i_epik_Tot_Q>  (20) 
0

>  <i_epik_Tot_abs_Q>  (20) 
0

>  <s_lp_Force_Field>  (20) 
OPLS3e

>  <r_lp_Energy>  (20) 
55.5053

>  <b_lp_Chiralities_Consistent>  (20) 
1

>  <s_lp_Variant>  (20) 
3:0-1

>  <s_i_glide_gridfile>  (20) 
pfpi4k_grid

>  <i_i_glide_lignum>  (20) 
7

>  <i_i_glide_rotatable_bonds>  (20) 
1

>  <r_i_docking_score>  (20) 
-3.46186

>  <r_i_glide_ligand_efficiency>  (20) 
-0.203639

>  <r_i_glide_ligand_efficiency_sa>  (20) 
-0.523613

>  <r_i_glide_ligand_efficiency_ln>  (20) 
-0.903123

>  <r_i_glide_gscore>  (20) 
-3.46186

>  <r_i_glide_lipo>  (20) 
-0.379783

>  <r_i_glide_hbond>  (20) 
0

>  <r_i_glide_metal>  (20) 
-0

>  <r_i_glide_rewards>  (20) 
-2.04669

>  <r_i_glide_evdw>  (20) 
-23.2911

>  <r_i_glide_ecoul>  (20) 
-1.32767

>  <r_i_glide_erotb>  (20) 
0.331848

>  <r_i_glide_esite>  (20) 
-0.00353475

>  <r_i_glide_emodel>  (20) 
-29.7458

>  <r_i_glide_energy>  (20) 
-24.6188

>  <r_i_glide_einternal>  (20) 
0.247288

>  <r_i_glide_intrahb_reward>  (20) 
-0

>  <i_i_glide_confnum>  (20) 
3

>  <i_i_glide_posenum>  (20) 
38

>  <r_i_glide_eff_state_penalty>  (20) 
0

>  <ligand_id>  (20) 
3

>  <original_smiles>  (20) 
c1ncc2ncn(C3CC4C5CC(C5)C43)c2n1

>  <smiles>  (20) 
[H]c1nc([H])c2nc([H])n(C3([H])C([H])([H])C4([H])C5([H])C([H])([H])C([H])(C5([H])[H])C34[H])c2n1

$$$$
3:0:2
     RDKit          3D

 31 35  0  0  1  0  0  0  0  0999 V2000
    4.5071   -7.7196    1.1697 C   0  0  0  0  0  0  0  0  0  0  0  0
    4.7056   -7.6786    2.4844 N   0  0  0  0  0  0  0  0  0  0  0  0
    5.0134   -6.5068    3.0949 C   0  0  0  0  0  0  0  0  0  0  0  0
    5.1117   -5.3451    2.2858 C   0  0  0  0  0  0  0  0  0  0  0  0
    5.3975   -4.0173    2.5880 N   0  0  0  0  0  0  0  0  0  0  0  0
    5.3263   -3.4779    1.3723 C   0  0  0  0  0  0  0  0  0  0  0  0
    5.0432   -4.2755    0.3299 N   0  0  0  0  0  0  0  0  0  0  0  0
    4.9258   -3.8705   -1.0338 C   0  0  2  0  0  0  0  0  0  0  0  0
    6.0467   -3.0472   -1.6851 C   0  0  0  0  0  0  0  0  0  0  0  0
    5.0318   -1.9760   -2.0561 C   0  0  1  0  0  0  0  0  0  0  0  0
    4.4154   -1.8597   -3.4526 C   0  0  2  0  0  0  0  0  0  0  0  0
    2.9388   -1.4996   -3.2976 C   0  0  0  0  0  0  0  0  0  0  0  0
    3.0047   -2.8776   -2.6180 C   0  0  1  0  0  0  0  0  0  0  0  0
    3.8079   -3.2037   -3.8879 C   0  0  0  0  0  0  0  0  0  0  0  0
    3.9264   -2.7779   -1.3998 C   0  0  1  0  0  0  0  0  0  0  0  0
    4.8805   -5.5397    0.8979 C   0  0  0  0  0  0  0  0  0  0  0  0
    4.5677   -6.7244    0.2854 N   0  0  0  0  0  0  0  0  0  0  0  0
    4.2680   -8.6863    0.7728 H   0  0  0  0  0  0  0  0  0  0  0  0
    5.1718   -6.4907    4.1584 H   0  0  0  0  0  0  0  0  0  0  0  0
    5.4953   -2.4180    1.2386 H   0  0  0  0  0  0  0  0  0  0  0  0
    4.7180   -4.7706   -1.6063 H   0  0  0  0  0  0  0  0  0  0  0  0
    6.7964   -2.6876   -0.9794 H   0  0  0  0  0  0  0  0  0  0  0  0
    6.4887   -3.5329   -2.5551 H   0  0  0  0  0  0  0  0  0  0  0  0
    5.2018   -1.0202   -1.5704 H   0  0  0  0  0  0  0  0  0  0  0  0
    4.9392   -1.3080   -4.2262 H   0  0  0  0  0  0  0  0  0  0  0  0
    2.7545   -0.6970   -2.5862 H   0  0  0  0  0  0  0  0  0  0  0  0
    2.3212   -1.4151   -4.2131 H   0  0  0  0  0  0  0  0  0  0  0  0
    2.0585   -3.4048   -2.5196 H   0  0  0  0  0  0  0  0  0  0  0  0
    3.2329   -3.2317   -4.8300 H   0  0  0  0  0  0  0  0  0  0  0  0
    4.4811   -4.0541   -3.7922 H   0  0  0  0  0  0  0  0  0  0  0  0
    3.4811   -2.2610   -0.5551 H   0  0  0  0  0  0  0  0  0  0  0  0
  1 17  1  0
  1  2  2  0
  1 18  1  0
  2  3  1  0
  3  4  2  0
  3 19  1  0
  4 16  1  0
  4  5  1  0
  5  6  2  0
  6  7  1  0
  6 20  1  0
  7  8  1  0
  7 16  1  0
  8 15  1  0
  8  9  1  0
  8 21  1  6
  9 10  1  0
  9 22  1  0
  9 23  1  0
 10 15  1  0
 10 11  1  0
 10 24  1  1
 11 14  1  0
 11 12  1  0
 11 25  1  6
 12 13  1  0
 12 26  1  0
 12 27  1  0
 13 14  1  0
 13 15  1  0
 13 28  1  1
 14 29  1  0
 14 30  1  0
 15 31  1  1
 16 17  2  0
M  END
>  <i_m_ct_stereo_status>  (21) 
1

>  <s_m_source_file>  (21) 
/var/tmp/pbs.5076255.sched01/tmp0qfm3vo4/0bcu552to.sdf

>  <i_m_source_file_index>  (21) 
7

>  <i_lp_mmshare_version>  (21) 
48012

>  <i_f3d_flags>  (21) 
0

>  <s_epik_input>  (21) 
W2NIXTFuW2NIXW5jKGMxMiluKFtjSF1uMilbQ0BIXShbQ0gyXTMpW0NAQEhdNFtDQEhdKFtDSDJdNSlbQ0gyXVtDQEhdNVtDQEhdMzQ=

>  <s_epik_cmdline>  (21) 
J2VwaWtfcHl0aG9uJywgJy1waHQnLCAnMi4wJywgJy1waCcsICc3LjAnLCAnLXRuJywgJzgnLCAnLW1hJywgJzIwMCcsICctaW1hZScsICc8aW5maWxlLm1hZT4nLCAnLW9tYWUnLCAnPG91dGZpbGUubWFlPic=

>  <r_lp_tautomer_probability>  (21) 
1

>  <r_epik_Ionization_Penalty>  (21) 
0.00012671

>  <r_epik_Ionization_Penalty_Charging>  (21) 
0

>  <r_epik_Ionization_Penalty_Neutral>  (21) 
0.00012671

>  <r_epik_State_Penalty>  (21) 
-0

>  <r_epik_Charging_Adjusted_Penalty>  (21) 
0

>  <i_epik_Tot_Q>  (21) 
0

>  <i_epik_Tot_abs_Q>  (21) 
0

>  <s_lp_Force_Field>  (21) 
OPLS3e

>  <r_lp_Energy>  (21) 
55.5053

>  <b_lp_Chiralities_Consistent>  (21) 
1

>  <s_lp_Variant>  (21) 
3:0-1

>  <s_i_glide_gridfile>  (21) 
pfpi4k_grid

>  <i_i_glide_lignum>  (21) 
7

>  <i_i_glide_rotatable_bonds>  (21) 
1

>  <r_i_docking_score>  (21) 
-3.40725

>  <r_i_glide_ligand_efficiency>  (21) 
-0.200427

>  <r_i_glide_ligand_efficiency_sa>  (21) 
-0.515354

>  <r_i_glide_ligand_efficiency_ln>  (21) 
-0.888877

>  <r_i_glide_gscore>  (21) 
-3.40725

>  <r_i_glide_lipo>  (21) 
-0.369494

>  <r_i_glide_hbond>  (21) 
0

>  <r_i_glide_metal>  (21) 
-0

>  <r_i_glide_rewards>  (21) 
-2.17361

>  <r_i_glide_evdw>  (21) 
-23.669

>  <r_i_glide_ecoul>  (21) 
-0.0836183

>  <r_i_glide_erotb>  (21) 
0.331848

>  <r_i_glide_esite>  (21) 
0

>  <r_i_glide_emodel>  (21) 
-28.9887

>  <r_i_glide_energy>  (21) 
-23.7526

>  <r_i_glide_einternal>  (21) 
0.0224842

>  <r_i_glide_intrahb_reward>  (21) 
-0

>  <i_i_glide_confnum>  (21) 
3

>  <i_i_glide_posenum>  (21) 
4

>  <r_i_glide_eff_state_penalty>  (21) 
0

>  <ligand_id>  (21) 
3

>  <original_smiles>  (21) 
c1ncc2ncn(C3CC4C5CC(C5)C43)c2n1

>  <smiles>  (21) 
[H]c1nc([H])c2nc([H])n(C3([H])C([H])([H])C4([H])C5([H])C([H])([H])C([H])(C5([H])[H])C34[H])c2n1

$$$$
4:0:0
     RDKit          3D

 29 30  0  0  1  0  0  0  0  0999 V2000
    3.8586    0.4592   -5.1352 C   0  0  0  0  0  0  0  0  0  0  0  0
    4.4856   -0.6233   -4.4626 O   0  0  0  0  0  0  0  0  0  0  0  0
    3.7139   -1.2369   -3.4648 C   0  0  2  0  0  0  0  0  0  0  0  0
    4.3699   -1.0540   -2.0759 C   0  0  0  0  0  0  0  0  0  0  0  0
    3.8282   -2.0797   -1.0530 C   0  0  0  0  0  0  0  0  0  0  0  0
    3.6955   -3.4828   -1.6825 C   0  0  2  0  0  0  0  0  0  0  0  0
    5.0300   -3.9601   -2.2779 C   0  0  0  0  0  0  0  0  0  0  0  0
    4.9934   -3.4479   -3.7300 C   0  0  0  0  0  0  0  0  0  0  0  0
    3.6372   -2.7292   -3.8664 C   0  0  1  0  0  0  0  0  0  0  0  0
    2.8654   -3.4553   -2.8768 N   0  0  2  0  0  0  0  0  0  0  0  0
    1.4521   -3.0609   -2.7190 C   0  0  0  0  0  0  0  0  0  0  0  0
    4.5873    0.9524   -5.7802 H   0  0  0  0  0  0  0  0  0  0  0  0
    3.4843    1.2212   -4.4511 H   0  0  0  0  0  0  0  0  0  0  0  0
    3.0494    0.0815   -5.7607 H   0  0  0  0  0  0  0  0  0  0  0  0
    2.7189   -0.7908   -3.4380 H   0  0  0  0  0  0  0  0  0  0  0  0
    5.4508   -1.1726   -2.1512 H   0  0  0  0  0  0  0  0  0  0  0  0
    4.2132   -0.0421   -1.7108 H   0  0  0  0  0  0  0  0  0  0  0  0
    4.4784   -2.1234   -0.1835 H   0  0  0  0  0  0  0  0  0  0  0  0
    2.8611   -1.7564   -0.6683 H   0  0  0  0  0  0  0  0  0  0  0  0
    3.3145   -4.2114   -0.9697 H   0  0  0  0  0  0  0  0  0  0  0  0
    5.8955   -3.6016   -1.7223 H   0  0  0  0  0  0  0  0  0  0  0  0
    5.0395   -5.0455   -2.2808 H   0  0  0  0  0  0  0  0  0  0  0  0
    5.8346   -2.8024   -3.9162 H   0  0  0  0  0  0  0  0  0  0  0  0
    5.0466   -4.2825   -4.4296 H   0  0  0  0  0  0  0  0  0  0  0  0
    3.2142   -2.8364   -4.8601 H   0  0  0  0  0  0  0  0  0  0  0  0
    1.4355   -2.0837   -2.3216 H   0  0  0  0  0  0  0  0  0  0  0  0
    0.8884   -3.6909   -2.0234 H   0  0  0  0  0  0  0  0  0  0  0  0
    0.9791   -3.0580   -3.7029 H   0  0  0  0  0  0  0  0  0  0  0  0
    2.8636   -4.4210   -3.1757 H   0  0  0  0  0  0  0  0  0  0  0  0
  1  2  1  0
  1 12  1  0
  1 13  1  0
  1 14  1  0
  2  3  1  0
  3  9  1  0
  3  4  1  0
  3 15  1  1
  4  5  1  0
  4 16  1  0
  4 17  1  0
  5  6  1  0
  5 18  1  0
  5 19  1  0
  6 10  1  0
  6  7  1  0
  6 20  1  1
  7  8  1  0
  7 21  1  0
  7 22  1  0
  8  9  1  0
  8 23  1  0
  8 24  1  0
  9 10  1  0
  9 25  1  6
 10 11  1  0
 10 29  1  6
 11 26  1  0
 11 27  1  0
 11 28  1  0
M  CHG  1  10   1
M  END
>  <i_m_ct_stereo_status>  (22) 
1

>  <s_m_source_file>  (22) 
/var/tmp/pbs.5076255.sched01/tmp0qfm3vo4/0bcu552to.sdf

>  <i_m_source_file_index>  (22) 
8

>  <i_lp_mmshare_version>  (22) 
48012

>  <i_f3d_flags>  (22) 
0

>  <s_epik_input>  (22) 
W0NIMl0xW0NIMl1bQ0BASF0oTjJbQ0gzXSlbQ0BIXShPW0NIM10pW0NIMl1bQ0gyXVtDQEhdMTI=

>  <s_epik_cmdline>  (22) 
J2VwaWtfcHl0aG9uJywgJy1waHQnLCAnMi4wJywgJy1waCcsICc3LjAnLCAnLXRuJywgJzgnLCAnLW1hJywgJzIwMCcsICctaW1hZScsICc8aW5maWxlLm1hZT4nLCAnLW9tYWUnLCAnPG91dGZpbGUubWFlPic=

>  <r_epik_Ionization_Penalty>  (22) 
0.00371463

>  <r_epik_Ionization_Penalty_Charging>  (22) 
0.00371463

>  <r_epik_Ionization_Penalty_Neutral>  (22) 
9.03805e-14

>  <r_epik_State_Penalty>  (22) 
0.00264629

>  <r_epik_Charging_Adjusted_Penalty>  (22) 
0.00636092

>  <i_epik_Tot_Q>  (22) 
1

>  <i_epik_Tot_abs_Q>  (22) 
1

>  <s_lp_Force_Field>  (22) 
OPLS3e

>  <r_lp_Energy>  (22) 
29.3753

>  <b_lp_Chiralities_Consistent>  (22) 
1

>  <s_lp_Variant>  (22) 
4:0-1

>  <s_i_glide_gridfile>  (22) 
pfpi4k_grid

>  <i_i_glide_lignum>  (22) 
8

>  <i_i_glide_rotatable_bonds>  (22) 
1

>  <r_i_docking_score>  (22) 
-4.31347

>  <r_i_glide_ligand_efficiency>  (22) 
-0.392133

>  <r_i_glide_ligand_efficiency_sa>  (22) 
-0.872097

>  <r_i_glide_ligand_efficiency_ln>  (22) 
-1.26945

>  <r_i_glide_gscore>  (22) 
-4.31347

>  <r_i_glide_lipo>  (22) 
-0.635965

>  <r_i_glide_hbond>  (22) 
0

>  <r_i_glide_metal>  (22) 
-0

>  <r_i_glide_rewards>  (22) 
-2.25

>  <r_i_glide_evdw>  (22) 
-6.56966

>  <r_i_glide_ecoul>  (22) 
-7.32678

>  <r_i_glide_erotb>  (22) 
0

>  <r_i_glide_esite>  (22) 
0

>  <r_i_glide_emodel>  (22) 
-18.749

>  <r_i_glide_energy>  (22) 
-13.8964

>  <r_i_glide_einternal>  (22) 
1.65664

>  <r_i_glide_intrahb_reward>  (22) 
-0

>  <i_i_glide_confnum>  (22) 
1

>  <i_i_glide_posenum>  (22) 
24

>  <r_i_glide_eff_state_penalty>  (22) 
0

>  <ligand_id>  (22) 
4

>  <original_smiles>  (22) 
COC1CCC2CCC1N2C

>  <smiles>  (22) 
[H]C([H])([H])OC1([H])C([H])([H])C([H])([H])C2([H])C([H])([H])C([H])([H])C1([H])[N+]2([H])C([H])([H])[H]

$$$$
4:0:1
     RDKit          3D

 29 30  0  0  1  0  0  0  0  0999 V2000
    3.7093   -0.1910   -3.9396 C   0  0  0  0  0  0  0  0  0  0  0  0
    4.4145   -0.3981   -2.7197 O   0  0  0  0  0  0  0  0  0  0  0  0
    3.8160   -1.3757   -1.8736 C   0  0  2  0  0  0  0  0  0  0  0  0
    4.2912   -1.1100   -0.4249 C   0  0  0  0  0  0  0  0  0  0  0  0
    4.0496   -2.3153    0.5154 C   0  0  0  0  0  0  0  0  0  0  0  0
    4.4143   -3.6532   -0.1760 C   0  0  2  0  0  0  0  0  0  0  0  0
    5.8513   -3.6256   -0.7121 C   0  0  0  0  0  0  0  0  0  0  0  0
    5.7213   -3.0740   -2.1495 C   0  0  0  0  0  0  0  0  0  0  0  0
    4.2128   -2.8138   -2.3248 C   0  0  1  0  0  0  0  0  0  0  0  0
    3.6300   -3.8239   -1.4111 N   0  0  2  0  0  0  0  0  0  0  0  0
    2.1563   -3.8656   -1.2979 C   0  0  0  0  0  0  0  0  0  0  0  0
    4.2101    0.5880   -4.5195 H   0  0  0  0  0  0  0  0  0  0  0  0
    2.6861    0.1426   -3.7552 H   0  0  0  0  0  0  0  0  0  0  0  0
    3.6779   -1.0888   -4.5515 H   0  0  0  0  0  0  0  0  0  0  0  0
    2.7293   -1.2543   -1.9065 H   0  0  0  0  0  0  0  0  0  0  0  0
    5.3581   -0.8719   -0.4274 H   0  0  0  0  0  0  0  0  0  0  0  0
    3.8056   -0.2248   -0.0091 H   0  0  0  0  0  0  0  0  0  0  0  0
    4.6427   -2.1930    1.4277 H   0  0  0  0  0  0  0  0  0  0  0  0
    3.0138   -2.3235    0.8490 H   0  0  0  0  0  0  0  0  0  0  0  0
    4.2542   -4.4958    0.5006 H   0  0  0  0  0  0  0  0  0  0  0  0
    6.5294   -3.0317   -0.0831 H   0  0  0  0  0  0  0  0  0  0  0  0
    6.2433   -4.6440   -0.7207 H   0  0  0  0  0  0  0  0  0  0  0  0
    6.3242   -2.1717   -2.3179 H   0  0  0  0  0  0  0  0  0  0  0  0
    6.0613   -3.8165   -2.8687 H   0  0  0  0  0  0  0  0  0  0  0  0
    3.8870   -3.0185   -3.3473 H   0  0  0  0  0  0  0  0  0  0  0  0
    1.7488   -2.9586   -0.8566 H   0  0  0  0  0  0  0  0  0  0  0  0
    1.8445   -4.6896   -0.6583 H   0  0  0  0  0  0  0  0  0  0  0  0
    1.6831   -3.9977   -2.2670 H   0  0  0  0  0  0  0  0  0  0  0  0
    3.8899   -4.7197   -1.8072 H   0  0  0  0  0  0  0  0  0  0  0  0
  1  2  1  0
  1 12  1  0
  1 13  1  0
  1 14  1  0
  2  3  1  0
  3  9  1  0
  3  4  1  0
  3 15  1  1
  4  5  1  0
  4 16  1  0
  4 17  1  0
  5  6  1  0
  5 18  1  0
  5 19  1  0
  6 10  1  0
  6  7  1  0
  6 20  1  1
  7  8  1  0
  7 21  1  0
  7 22  1  0
  8  9  1  0
  8 23  1  0
  8 24  1  0
  9 10  1  0
  9 25  1  6
 10 11  1  0
 10 29  1  6
 11 26  1  0
 11 27  1  0
 11 28  1  0
M  CHG  1  10   1
M  END
>  <i_m_ct_stereo_status>  (23) 
1

>  <s_m_source_file>  (23) 
/var/tmp/pbs.5076255.sched01/tmp0qfm3vo4/0bcu552to.sdf

>  <i_m_source_file_index>  (23) 
8

>  <i_lp_mmshare_version>  (23) 
48012

>  <i_f3d_flags>  (23) 
0

>  <s_epik_input>  (23) 
W0NIMl0xW0NIMl1bQ0BASF0oTjJbQ0gzXSlbQ0BIXShPW0NIM10pW0NIMl1bQ0gyXVtDQEhdMTI=

>  <s_epik_cmdline>  (23) 
J2VwaWtfcHl0aG9uJywgJy1waHQnLCAnMi4wJywgJy1waCcsICc3LjAnLCAnLXRuJywgJzgnLCAnLW1hJywgJzIwMCcsICctaW1hZScsICc8aW5maWxlLm1hZT4nLCAnLW9tYWUnLCAnPG91dGZpbGUubWFlPic=

>  <r_epik_Ionization_Penalty>  (23) 
0.00371463

>  <r_epik_Ionization_Penalty_Charging>  (23) 
0.00371463

>  <r_epik_Ionization_Penalty_Neutral>  (23) 
9.03805e-14

>  <r_epik_State_Penalty>  (23) 
0.00264629

>  <r_epik_Charging_Adjusted_Penalty>  (23) 
0.00636092

>  <i_epik_Tot_Q>  (23) 
1

>  <i_epik_Tot_abs_Q>  (23) 
1

>  <s_lp_Force_Field>  (23) 
OPLS3e

>  <r_lp_Energy>  (23) 
29.3753

>  <b_lp_Chiralities_Consistent>  (23) 
1

>  <s_lp_Variant>  (23) 
4:0-1

>  <s_i_glide_gridfile>  (23) 
pfpi4k_grid

>  <i_i_glide_lignum>  (23) 
8

>  <i_i_glide_rotatable_bonds>  (23) 
1

>  <r_i_docking_score>  (23) 
-4.13004

>  <r_i_glide_ligand_efficiency>  (23) 
-0.375458

>  <r_i_glide_ligand_efficiency_sa>  (23) 
-0.835011

>  <r_i_glide_ligand_efficiency_ln>  (23) 
-1.21547

>  <r_i_glide_gscore>  (23) 
-4.13004

>  <r_i_glide_lipo>  (23) 
-0.456153

>  <r_i_glide_hbond>  (23) 
0

>  <r_i_glide_metal>  (23) 
-0

>  <r_i_glide_rewards>  (23) 
-2.25

>  <r_i_glide_evdw>  (23) 
-13.381

>  <r_i_glide_ecoul>  (23) 
-4.93012

>  <r_i_glide_erotb>  (23) 
0

>  <r_i_glide_esite>  (23) 
-0.0153173

>  <r_i_glide_emodel>  (23) 
-23.7165

>  <r_i_glide_energy>  (23) 
-18.3111

>  <r_i_glide_einternal>  (23) 
0.135631

>  <r_i_glide_intrahb_reward>  (23) 
-0

>  <i_i_glide_confnum>  (23) 
2

>  <i_i_glide_posenum>  (23) 
38

>  <r_i_glide_eff_state_penalty>  (23) 
0

>  <ligand_id>  (23) 
4

>  <original_smiles>  (23) 
COC1CCC2CCC1N2C

>  <smiles>  (23) 
[H]C([H])([H])OC1([H])C([H])([H])C([H])([H])C2([H])C([H])([H])C([H])([H])C1([H])[N+]2([H])C([H])([H])[H]

$$$$
4:0:2
     RDKit          3D

 29 30  0  0  1  0  0  0  0  0999 V2000
    2.7096    0.1861   -4.3703 C   0  0  0  0  0  0  0  0  0  0  0  0
    3.8503   -0.1626   -3.6019 O   0  0  0  0  0  0  0  0  0  0  0  0
    3.5997   -1.0889   -2.5405 C   0  0  2  0  0  0  0  0  0  0  0  0
    4.8912   -1.1629   -1.6639 C   0  0  0  0  0  0  0  0  0  0  0  0
    4.9457   -2.4229   -0.7590 C   0  0  0  0  0  0  0  0  0  0  0  0
    4.4387   -3.6741   -1.5086 C   0  0  2  0  0  0  0  0  0  0  0  0
    5.1945   -3.8832   -2.8279 C   0  0  0  0  0  0  0  0  0  0  0  0
    4.4006   -3.0855   -3.8710 C   0  0  0  0  0  0  0  0  0  0  0  0
    3.2200   -2.4987   -3.0856 C   0  0  1  0  0  0  0  0  0  0  0  0
    3.0711   -3.4695   -1.9860 N   0  0  2  0  0  0  0  0  0  0  0  0
    2.0258   -3.1993   -0.9754 C   0  0  0  0  0  0  0  0  0  0  0  0
    2.9475    0.9652   -5.0917 H   0  0  0  0  0  0  0  0  0  0  0  0
    1.9019    0.5389   -3.7433 H   0  0  0  0  0  0  0  0  0  0  0  0
    2.3214   -0.6501   -4.9385 H   0  0  0  0  0  0  0  0  0  0  0  0
    2.8027   -0.6936   -1.9132 H   0  0  0  0  0  0  0  0  0  0  0  0
    5.7749   -1.1877   -2.3037 H   0  0  0  0  0  0  0  0  0  0  0  0
    5.0020   -0.2619   -1.0586 H   0  0  0  0  0  0  0  0  0  0  0  0
    5.9694   -2.5920   -0.4222 H   0  0  0  0  0  0  0  0  0  0  0  0
    4.3690   -2.2533    0.1516 H   0  0  0  0  0  0  0  0  0  0  0  0
    4.4802   -4.5669   -0.8811 H   0  0  0  0  0  0  0  0  0  0  0  0
    6.2551   -3.6211   -2.7728 H   0  0  0  0  0  0  0  0  0  0  0  0
    5.0998   -4.9313   -3.0986 H   0  0  0  0  0  0  0  0  0  0  0  0
    4.9965   -2.3058   -4.3158 H   0  0  0  0  0  0  0  0  0  0  0  0
    4.0400   -3.7597   -4.6445 H   0  0  0  0  0  0  0  0  0  0  0  0
    2.2925   -2.5184   -3.6573 H   0  0  0  0  0  0  0  0  0  0  0  0
    2.2316   -2.3253   -0.3676 H   0  0  0  0  0  0  0  0  0  0  0  0
    1.9190   -4.0187   -0.2780 H   0  0  0  0  0  0  0  0  0  0  0  0
    1.0607   -3.0610   -1.4548 H   0  0  0  0  0  0  0  0  0  0  0  0
    2.8770   -4.3411   -2.4568 H   0  0  0  0  0  0  0  0  0  0  0  0
  1  2  1  0
  1 12  1  0
  1 13  1  0
  1 14  1  0
  2  3  1  0
  3  9  1  0
  3  4  1  0
  3 15  1  1
  4  5  1  0
  4 16  1  0
  4 17  1  0
  5  6  1  0
  5 18  1  0
  5 19  1  0
  6 10  1  0
  6  7  1  0
  6 20  1  1
  7  8  1  0
  7 21  1  0
  7 22  1  0
  8  9  1  0
  8 23  1  0
  8 24  1  0
  9 10  1  0
  9 25  1  6
 10 11  1  0
 10 29  1  6
 11 26  1  0
 11 27  1  0
 11 28  1  0
M  CHG  1  10   1
M  END
>  <i_m_ct_stereo_status>  (24) 
1

>  <s_m_source_file>  (24) 
/var/tmp/pbs.5076255.sched01/tmp0qfm3vo4/0bcu552to.sdf

>  <i_m_source_file_index>  (24) 
8

>  <i_lp_mmshare_version>  (24) 
48012

>  <i_f3d_flags>  (24) 
0

>  <s_epik_input>  (24) 
W0NIMl0xW0NIMl1bQ0BASF0oTjJbQ0gzXSlbQ0BIXShPW0NIM10pW0NIMl1bQ0gyXVtDQEhdMTI=

>  <s_epik_cmdline>  (24) 
J2VwaWtfcHl0aG9uJywgJy1waHQnLCAnMi4wJywgJy1waCcsICc3LjAnLCAnLXRuJywgJzgnLCAnLW1hJywgJzIwMCcsICctaW1hZScsICc8aW5maWxlLm1hZT4nLCAnLW9tYWUnLCAnPG91dGZpbGUubWFlPic=

>  <r_epik_Ionization_Penalty>  (24) 
0.00371463

>  <r_epik_Ionization_Penalty_Charging>  (24) 
0.00371463

>  <r_epik_Ionization_Penalty_Neutral>  (24) 
9.03805e-14

>  <r_epik_State_Penalty>  (24) 
0.00264629

>  <r_epik_Charging_Adjusted_Penalty>  (24) 
0.00636092

>  <i_epik_Tot_Q>  (24) 
1

>  <i_epik_Tot_abs_Q>  (24) 
1

>  <s_lp_Force_Field>  (24) 
OPLS3e

>  <r_lp_Energy>  (24) 
29.3753

>  <b_lp_Chiralities_Consistent>  (24) 
1

>  <s_lp_Variant>  (24) 
4:0-1

>  <s_i_glide_gridfile>  (24) 
pfpi4k_grid

>  <i_i_glide_lignum>  (24) 
8

>  <i_i_glide_rotatable_bonds>  (24) 
1

>  <r_i_docking_score>  (24) 
-3.94227

>  <r_i_glide_ligand_efficiency>  (24) 
-0.358388

>  <r_i_glide_ligand_efficiency_sa>  (24) 
-0.797049

>  <r_i_glide_ligand_efficiency_ln>  (24) 
-1.16021

>  <r_i_glide_gscore>  (24) 
-3.94227

>  <r_i_glide_lipo>  (24) 
-0.189815

>  <r_i_glide_hbond>  (24) 
0

>  <r_i_glide_metal>  (24) 
-0

>  <r_i_glide_rewards>  (24) 
-2.25

>  <r_i_glide_evdw>  (24) 
-11.6651

>  <r_i_glide_ecoul>  (24) 
-6.12802

>  <r_i_glide_erotb>  (24) 
0

>  <r_i_glide_esite>  (24) 
0

>  <r_i_glide_emodel>  (24) 
-22.5987

>  <r_i_glide_energy>  (24) 
-17.7931

>  <r_i_glide_einternal>  (24) 
0.580875

>  <r_i_glide_intrahb_reward>  (24) 
-0

>  <i_i_glide_confnum>  (24) 
1

>  <i_i_glide_posenum>  (24) 
14

>  <r_i_glide_eff_state_penalty>  (24) 
0

>  <ligand_id>  (24) 
4

>  <original_smiles>  (24) 
COC1CCC2CCC1N2C

>  <smiles>  (24) 
[H]C([H])([H])OC1([H])C([H])([H])C([H])([H])C2([H])C([H])([H])C([H])([H])C1([H])[N+]2([H])C([H])([H])[H]

$$$$
6:0:0
     RDKit          3D

 80 85  0  0  1  0  0  0  0  0999 V2000
    5.1734   -0.6399    2.5713 C   0  0  0  0  0  0  0  0  0  0  0  0
    4.0845    0.1358    2.7268 C   0  0  0  0  0  0  0  0  0  0  0  0
    3.0559    0.2003    1.5788 C   0  0  0  0  0  0  0  0  0  0  0  0
    1.5752    0.5848    1.9505 C   0  0  0  0  0  0  0  0  0  0  0  0
    1.4993    1.5451    3.1831 C   0  0  1  0  0  0  0  0  0  0  0  0
    2.3008    2.4826    2.4899 O   0  0  0  0  0  0  0  0  0  0  0  0
    0.1746    2.3768    3.6170 C   0  0  1  0  0  0  0  0  0  0  0  0
   -0.6781    1.6120    4.7468 C   0  0  2  0  0  0  0  0  0  0  0  0
   -1.4181    0.5582    3.8694 C   0  0  0  0  0  0  0  0  0  0  0  0
   -1.9217    2.2923    5.4653 C   0  0  0  0  0  0  0  0  0  0  0  0
   -1.9162    3.4613    6.4901 C   0  0  2  0  0  0  0  0  0  0  0  0
   -0.7664    4.3077    7.0102 C   0  0  2  0  0  0  0  0  0  0  0  0
    0.7585    4.1760    6.7691 C   0  0  1  0  0  0  0  0  0  0  0  0
    1.4084    4.0241    8.0192 O   0  0  0  0  0  0  0  0  0  0  0  0
    1.4360    3.4583    5.4973 C   0  0  2  0  0  0  0  0  0  0  0  0
    2.8232    4.1869    5.3868 C   0  0  0  0  0  0  0  0  0  0  0  0
    0.5672    3.7994    4.1596 C   0  0  1  0  0  0  0  0  0  0  0  0
    1.3174    4.6417    3.2790 O   0  0  0  0  0  0  0  0  0  0  0  0
   -0.5915    4.8947    4.0700 C   0  0  0  0  0  0  0  0  0  0  0  0
   -1.3741    4.8581    2.8740 O   0  0  0  0  0  0  0  0  0  0  0  0
    1.7242    1.8145    5.6937 C   0  0  1  0  0  0  0  0  0  0  0  0
    2.6211    1.6131    6.9619 C   0  0  0  0  0  0  0  0  0  0  0  0
    0.3073    1.1893    5.9220 C   0  0  2  0  0  0  0  0  0  0  0  0
    0.0963   -0.1272    6.7966 C   0  0  1  0  0  0  0  0  0  0  0  0
   -1.0507   -0.8520    6.4313 O   0  0  0  0  0  0  0  0  0  0  0  0
    1.2749   -1.1040    7.0883 C   0  0  1  0  0  0  0  0  0  0  0  0
    0.8010   -2.3143    7.6581 O   0  0  0  0  0  0  0  0  0  0  0  0
    2.2598   -1.4108    5.9432 C   0  0  0  0  0  0  0  0  0  0  0  0
    1.9911   -0.6868    4.6171 C   0  0  1  0  0  0  0  0  0  0  0  0
    0.7726   -1.2585    4.2065 O   0  0  0  0  0  0  0  0  0  0  0  0
    2.2615    0.9211    4.4345 C   0  0  1  0  0  0  0  0  0  0  0  0
    3.8061    0.9522    4.0258 C   0  0  1  0  0  0  0  0  0  0  0  0
    4.6922    0.5593    5.0613 O   0  0  0  0  0  0  0  0  0  0  0  0
   -1.6734    3.5342    7.9953 C   0  0  0  0  0  0  0  0  0  0  0  0
   -2.6888    4.3463    8.8017 C   0  0  0  0  0  0  0  0  0  0  0  0
   -1.2263    2.3739    8.8611 C   0  0  0  0  0  0  0  0  0  0  0  0
    5.9359   -0.7219    3.3307 H   0  0  0  0  0  0  0  0  0  0  0  0
    5.3323   -1.1958    1.6580 H   0  0  0  0  0  0  0  0  0  0  0  0
    3.4521    0.9469    0.8891 H   0  0  0  0  0  0  0  0  0  0  0  0
    3.0562   -0.7406    1.0259 H   0  0  0  0  0  0  0  0  0  0  0  0
    1.1074    1.0459    1.0762 H   0  0  0  0  0  0  0  0  0  0  0  0
    1.0083   -0.3290    2.0449 H   0  0  0  0  0  0  0  0  0  0  0  0
    1.7496    2.9740    1.8903 H   0  0  0  0  0  0  0  0  0  0  0  0
   -0.4209    2.5029    2.7131 H   0  0  0  0  0  0  0  0  0  0  0  0
   -1.9902   -0.1996    4.3956 H   0  0  0  0  0  0  0  0  0  0  0  0
   -0.8071    0.0854    3.1171 H   0  0  0  0  0  0  0  0  0  0  0  0
   -2.1542    1.0871    3.2662 H   0  0  0  0  0  0  0  0  0  0  0  0
   -2.6081    2.6269    4.6846 H   0  0  0  0  0  0  0  0  0  0  0  0
   -2.4822    1.5006    5.9724 H   0  0  0  0  0  0  0  0  0  0  0  0
   -2.8071    4.0410    6.2584 H   0  0  0  0  0  0  0  0  0  0  0  0
   -0.9865    5.3676    7.0566 H   0  0  0  0  0  0  0  0  0  0  0  0
    1.0014    5.2241    6.5795 H   0  0  0  0  0  0  0  0  0  0  0  0
    2.3231    4.2533    7.9244 H   0  0  0  0  0  0  0  0  0  0  0  0
    3.4324    3.7785    4.5880 H   0  0  0  0  0  0  0  0  0  0  0  0
    3.4186    4.1735    6.2933 H   0  0  0  0  0  0  0  0  0  0  0  0
    2.7108    5.2518    5.1793 H   0  0  0  0  0  0  0  0  0  0  0  0
    0.9291    4.6278    2.4025 H   0  0  0  0  0  0  0  0  0  0  0  0
   -1.4166    4.8277    4.7433 H   0  0  0  0  0  0  0  0  0  0  0  0
   -0.1966    5.9064    4.2414 H   0  0  0  0  0  0  0  0  0  0  0  0
   -0.8123    4.7077    2.1122 H   0  0  0  0  0  0  0  0  0  0  0  0
    3.1683    0.6872    6.9838 H   0  0  0  0  0  0  0  0  0  0  0  0
    2.0438    1.6407    7.8843 H   0  0  0  0  0  0  0  0  0  0  0  0
    3.4288    2.3222    7.0674 H   0  0  0  0  0  0  0  0  0  0  0  0
   -0.0065    1.8423    6.7009 H   0  0  0  0  0  0  0  0  0  0  0  0
   -0.1652    0.1927    7.8006 H   0  0  0  0  0  0  0  0  0  0  0  0
   -0.8658   -1.2301    5.5790 H   0  0  0  0  0  0  0  0  0  0  0  0
    1.8483   -0.6823    7.9089 H   0  0  0  0  0  0  0  0  0  0  0  0
    1.5483   -2.8165    7.9502 H   0  0  0  0  0  0  0  0  0  0  0  0
    3.2859   -1.2720    6.2747 H   0  0  0  0  0  0  0  0  0  0  0  0
    2.2275   -2.4817    5.7306 H   0  0  0  0  0  0  0  0  0  0  0  0
    2.6371   -1.2501    3.9568 H   0  0  0  0  0  0  0  0  0  0  0  0
    0.6791   -1.1112    3.2755 H   0  0  0  0  0  0  0  0  0  0  0  0
    4.1488    1.9595    3.8191 H   0  0  0  0  0  0  0  0  0  0  0  0
    4.5007   -0.3377    5.2918 H   0  0  0  0  0  0  0  0  0  0  0  0
   -2.2369    4.7486    9.7093 H   0  0  0  0  0  0  0  0  0  0  0  0
   -3.5430    3.7336    9.0908 H   0  0  0  0  0  0  0  0  0  0  0  0
   -3.0676    5.1920    8.2303 H   0  0  0  0  0  0  0  0  0  0  0  0
   -1.3560    2.6069    9.9191 H   0  0  0  0  0  0  0  0  0  0  0  0
   -0.1713    2.1689    8.7379 H   0  0  0  0  0  0  0  0  0  0  0  0
   -1.8265    1.4954    8.6395 H   0  0  0  0  0  0  0  0  0  0  0  0
  1  2  2  0
  1 37  1  0
  1 38  1  0
  2 32  1  0
  2  3  1  0
  3  4  1  0
  3 39  1  0
  3 40  1  0
  4  5  1  0
  4 41  1  0
  4 42  1  0
 31  5  1  6
  5  6  1  6
  5  7  1  0
  6 43  1  0
  7 17  1  0
  7  8  1  0
  7 44  1  6
  8 23  1  0
  8  9  1  6
  8 10  1  0
  9 45  1  0
  9 46  1  0
  9 47  1  0
 10 11  1  0
 10 48  1  0
 10 49  1  0
 11 34  1  0
 11 12  1  0
 11 50  1  1
 12 13  1  0
 12 34  1  0
 12 51  1  1
 13 14  1  0
 13 15  1  0
 13 52  1  6
 14 53  1  0
 15 16  1  6
 15 17  1  0
 15 21  1  0
 16 54  1  0
 16 55  1  0
 16 56  1  0
 17 18  1  6
 17 19  1  0
 18 57  1  0
 19 20  1  0
 19 58  1  0
 19 59  1  0
 20 60  1  0
 21 31  1  0
 21 22  1  1
 21 23  1  0
 22 61  1  0
 22 62  1  0
 22 63  1  0
 23 24  1  0
 23 64  1  1
 24 25  1  0
 24 26  1  0
 24 65  1  1
 25 66  1  0
 26 27  1  0
 26 28  1  0
 26 67  1  1
 27 68  1  0
 28 29  1  0
 28 69  1  0
 28 70  1  0
 29 30  1  0
 29 31  1  0
 29 71  1  6
 30 72  1  0
 31 32  1  0
 32 33  1  0
 32 73  1  6
 33 74  1  0
 34 35  1  0
 34 36  1  0
 35 75  1  0
 35 76  1  0
 35 77  1  0
 36 78  1  0
 36 79  1  0
 36 80  1  0
M  END
>  <i_m_ct_stereo_status>  (25) 
1

>  <s_m_source_file>  (25) 
/var/tmp/pbs.5076255.sched01/tmp0qfm3vo4/0bcu552to.sdf

>  <i_m_source_file_index>  (25) 
10

>  <i_lp_mmshare_version>  (25) 
48012

>  <i_f3d_flags>  (25) 
0

>  <s_epik_input>  (25) 
W09IXVtDQEhdMUMoPVtDSDJdKVtDSDJdW0NIMl1bQ0BAXShbQ0BAXTEyMykoW09IXSlbQ0BIXTRbQ0BAXTUoW0NIM10pW0NAQEhdKFtDQEBIXShbT0hdKVtDQEBIXShbT0hdKVtDSDJdW0NASF0zW09IXSlbQ0BdMihbQ0gzXSlbQ0BAXShbQ0gzXSkoW0NAXTQoW09IXSlbQ0gyXVtPSF0pW0NASF0oW09IXSlbQ0BIXTZbQ0BASF0oW0NIMl01KUM2KFtDSDNdKVtDSDNd

>  <s_epik_cmdline>  (25) 
J2VwaWtfcHl0aG9uJywgJy1waHQnLCAnMi4wJywgJy1waCcsICc3LjAnLCAnLXRuJywgJzgnLCAnLW1hJywgJzIwMCcsICctaW1hZScsICc8aW5maWxlLm1hZT4nLCAnLW9tYWUnLCAnPG91dGZpbGUubWFlPic=

>  <r_lp_tautomer_probability>  (25) 
1

>  <r_epik_Ionization_Penalty>  (25) 
3.2618e-06

>  <r_epik_Ionization_Penalty_Charging>  (25) 
0

>  <r_epik_Ionization_Penalty_Neutral>  (25) 
3.2618e-06

>  <r_epik_State_Penalty>  (25) 
-0

>  <r_epik_Charging_Adjusted_Penalty>  (25) 
0

>  <i_epik_Tot_Q>  (25) 
0

>  <i_epik_Tot_abs_Q>  (25) 
0

>  <s_lp_Force_Field>  (25) 
OPLS3e

>  <r_lp_Energy>  (25) 
258.395

>  <b_lp_Chiralities_Consistent>  (25) 
1

>  <s_lp_Variant>  (25) 
6:0-1

>  <s_i_glide_gridfile>  (25) 
pfpi4k_grid

>  <i_i_glide_lignum>  (25) 
10

>  <i_i_glide_rotatable_bonds>  (25) 
9

>  <r_i_docking_score>  (25) 
-3.96442

>  <r_i_glide_ligand_efficiency>  (25) 
-0.110123

>  <r_i_glide_ligand_efficiency_sa>  (25) 
-0.363618

>  <r_i_glide_ligand_efficiency_ln>  (25) 
-0.86493

>  <r_i_glide_gscore>  (25) 
-3.96442

>  <r_i_glide_lipo>  (25) 
-0.320624

>  <r_i_glide_hbond>  (25) 
0

>  <r_i_glide_metal>  (25) 
-0

>  <r_i_glide_rewards>  (25) 
-0.5

>  <r_i_glide_evdw>  (25) 
-20.6872

>  <r_i_glide_ecoul>  (25) 
-14.5905

>  <r_i_glide_erotb>  (25) 
0.0791386

>  <r_i_glide_esite>  (25) 
0

>  <r_i_glide_emodel>  (25) 
-49.7102

>  <r_i_glide_energy>  (25) 
-35.2777

>  <r_i_glide_einternal>  (25) 
2.57977

>  <r_i_glide_intrahb_reward>  (25) 
-0.5

>  <i_i_glide_confnum>  (25) 
2

>  <i_i_glide_posenum>  (25) 
30

>  <r_i_glide_eff_state_penalty>  (25) 
0

>  <ligand_id>  (25) 
6

>  <original_smiles>  (25) 
C=C1CCC2(O)C3C4(C)CC5C(C(O)C(C)(C3(O)CO)C3(C)C4C(O)C(O)CC(O)C23C1O)C5(C)C

>  <smiles>  (25) 
[H]OC([H])([H])C1(O[H])C2([H])C3(O[H])C([H])([H])C([H])([H])C(=C([H])[H])C([H])(O[H])C34C([H])(O[H])C([H])([H])C([H])(O[H])C([H])(O[H])C3([H])C2(C([H])([H])[H])C([H])([H])C2([H])C([H])(C([H])(O[H])C1(C([H])([H])[H])C34C([H])([H])[H])C2(C([H])([H])[H])C([H])([H])[H]

$$$$
6:0:1
     RDKit          3D

 80 85  0  0  1  0  0  0  0  0999 V2000
    5.1576   -0.6233    2.3664 C   0  0  0  0  0  0  0  0  0  0  0  0
    4.0743    0.1361    2.5717 C   0  0  0  0  0  0  0  0  0  0  0  0
    3.0028    0.2044    1.4642 C   0  0  0  0  0  0  0  0  0  0  0  0
    1.5339    0.5738    1.8848 C   0  0  0  0  0  0  0  0  0  0  0  0
    1.4834    1.5147    3.1364 C   0  0  1  0  0  0  0  0  0  0  0  0
    2.2522    2.4762    2.4428 O   0  0  0  0  0  0  0  0  0  0  0  0
    0.1699    2.3296    3.6226 C   0  0  1  0  0  0  0  0  0  0  0  0
   -0.6397    1.5378    4.7708 C   0  0  2  0  0  0  0  0  0  0  0  0
   -1.3957    0.4902    3.9014 C   0  0  0  0  0  0  0  0  0  0  0  0
   -1.8603    2.1934    5.5382 C   0  0  0  0  0  0  0  0  0  0  0  0
   -1.8348    3.3504    6.5789 C   0  0  2  0  0  0  0  0  0  0  0  0
   -0.6772    4.2075    7.0657 C   0  0  2  0  0  0  0  0  0  0  0  0
    0.8440    4.0928    6.7783 C   0  0  1  0  0  0  0  0  0  0  0  0
    1.5425    3.9355    7.9919 O   0  0  0  0  0  0  0  0  0  0  0  0
    1.4842    3.3959    5.4742 C   0  0  2  0  0  0  0  0  0  0  0  0
    2.8588    4.1397    5.3284 C   0  0  0  0  0  0  0  0  0  0  0  0
    0.5678    3.7506    4.1700 C   0  0  1  0  0  0  0  0  0  0  0  0
    1.2888    4.6205    3.2793 O   0  0  0  0  0  0  0  0  0  0  0  0
   -0.6105    4.8233    4.1441 C   0  0  0  0  0  0  0  0  0  0  0  0
   -1.3803    4.8668    2.9385 O   0  0  0  0  0  0  0  0  0  0  0  0
    1.7906    1.7486    5.6412 C   0  0  1  0  0  0  0  0  0  0  0  0
    2.7356    1.5426    6.8723 C   0  0  0  0  0  0  0  0  0  0  0  0
    0.3877    1.1082    5.9058 C   0  0  2  0  0  0  0  0  0  0  0  0
    0.2096   -0.2240    6.7691 C   0  0  1  0  0  0  0  0  0  0  0  0
   -0.9636   -0.9406    6.4481 O   0  0  0  0  0  0  0  0  0  0  0  0
    1.4145   -1.1908    7.0043 C   0  0  1  0  0  0  0  0  0  0  0  0
    0.9731   -2.4144    7.5653 O   0  0  0  0  0  0  0  0  0  0  0  0
    2.3676   -1.4673    5.8246 C   0  0  0  0  0  0  0  0  0  0  0  0
    2.0486   -0.7307    4.5193 C   0  0  1  0  0  0  0  0  0  0  0  0
    0.8207   -1.3029    4.1481 O   0  0  0  0  0  0  0  0  0  0  0  0
    2.2939    0.8827    4.3499 C   0  0  1  0  0  0  0  0  0  0  0  0
    3.8216    0.9288    3.8902 C   0  0  1  0  0  0  0  0  0  0  0  0
    4.7282    0.4979    4.8864 O   0  0  0  0  0  0  0  0  0  0  0  0
   -1.5375    3.4067    8.0723 C   0  0  0  0  0  0  0  0  0  0  0  0
   -2.5334    4.2004    8.9237 C   0  0  0  0  0  0  0  0  0  0  0  0
   -1.0556    2.2433    8.9087 C   0  0  0  0  0  0  0  0  0  0  0  0
    5.9492   -0.7279    3.0966 H   0  0  0  0  0  0  0  0  0  0  0  0
    5.2883   -1.1689    1.4403 H   0  0  0  0  0  0  0  0  0  0  0  0
    3.3895    0.9553    0.7810 H   0  0  0  0  0  0  0  0  0  0  0  0
    2.9931   -0.7296    0.8978 H   0  0  0  0  0  0  0  0  0  0  0  0
    1.0359    1.0420    1.0331 H   0  0  0  0  0  0  0  0  0  0  0  0
    0.9804   -0.3476    1.9849 H   0  0  0  0  0  0  0  0  0  0  0  0
    1.6843    2.9453    1.8423 H   0  0  0  0  0  0  0  0  0  0  0  0
   -0.4604    2.4661    2.7423 H   0  0  0  0  0  0  0  0  0  0  0  0
   -1.9447   -0.2804    4.4383 H   0  0  0  0  0  0  0  0  0  0  0  0
   -0.8035    0.0362    3.1227 H   0  0  0  0  0  0  0  0  0  0  0  0
   -2.1563    1.0216    3.3318 H   0  0  0  0  0  0  0  0  0  0  0  0
   -2.5739    2.5353    4.7879 H   0  0  0  0  0  0  0  0  0  0  0  0
   -2.4001    1.3914    6.0493 H   0  0  0  0  0  0  0  0  0  0  0  0
   -2.7446    3.9183    6.3883 H   0  0  0  0  0  0  0  0  0  0  0  0
   -0.9185    5.2622    7.1170 H   0  0  0  0  0  0  0  0  0  0  0  0
    1.0722    5.1441    6.5959 H   0  0  0  0  0  0  0  0  0  0  0  0
    1.3876    3.0532    8.3124 H   0  0  0  0  0  0  0  0  0  0  0  0
    3.4473    3.7484    4.5047 H   0  0  0  0  0  0  0  0  0  0  0  0
    3.4754    4.1238    6.2207 H   0  0  0  0  0  0  0  0  0  0  0  0
    2.7284    5.2068    5.1411 H   0  0  0  0  0  0  0  0  0  0  0  0
    0.9004    4.5827    2.4049 H   0  0  0  0  0  0  0  0  0  0  0  0
   -1.4443    4.6822    4.7863 H   0  0  0  0  0  0  0  0  0  0  0  0
   -0.2160    5.8249    4.3830 H   0  0  0  0  0  0  0  0  0  0  0  0
   -0.8155    4.7660    2.1656 H   0  0  0  0  0  0  0  0  0  0  0  0
    3.2979    0.6247    6.8548 H   0  0  0  0  0  0  0  0  0  0  0  0
    2.1939    1.5391    7.8161 H   0  0  0  0  0  0  0  0  0  0  0  0
    3.5358    2.2627    6.9619 H   0  0  0  0  0  0  0  0  0  0  0  0
    0.0949    1.7481    6.7054 H   0  0  0  0  0  0  0  0  0  0  0  0
   -0.0066    0.0814    7.7883 H   0  0  0  0  0  0  0  0  0  0  0  0
   -0.8085   -1.3044    5.5765 H   0  0  0  0  0  0  0  0  0  0  0  0
    2.0153   -0.7750    7.8088 H   0  0  0  0  0  0  0  0  0  0  0  0
    1.7420   -2.9319    7.7814 H   0  0  0  0  0  0  0  0  0  0  0  0
    3.4056   -1.3194    6.1171 H   0  0  0  0  0  0  0  0  0  0  0  0
    2.3441   -2.5357    5.5967 H   0  0  0  0  0  0  0  0  0  0  0  0
    2.6805   -1.2789    3.8330 H   0  0  0  0  0  0  0  0  0  0  0  0
    0.6777   -1.1107    3.2297 H   0  0  0  0  0  0  0  0  0  0  0  0
    4.1562    1.9415    3.6920 H   0  0  0  0  0  0  0  0  0  0  0  0
    5.6058    0.6210    4.5403 H   0  0  0  0  0  0  0  0  0  0  0  0
   -2.0559    4.5939    9.8226 H   0  0  0  0  0  0  0  0  0  0  0  0
   -3.3684    3.5720    9.2317 H   0  0  0  0  0  0  0  0  0  0  0  0
   -2.9396    5.0481    8.3761 H   0  0  0  0  0  0  0  0  0  0  0  0
   -1.1534    2.4601    9.9733 H   0  0  0  0  0  0  0  0  0  0  0  0
   -0.0019    2.0372    8.7496 H   0  0  0  0  0  0  0  0  0  0  0  0
   -1.6589    1.3629    8.6960 H   0  0  0  0  0  0  0  0  0  0  0  0
  1  2  2  0
  1 37  1  0
  1 38  1  0
  2 32  1  0
  2  3  1  0
  3  4  1  0
  3 39  1  0
  3 40  1  0
  4  5  1  0
  4 41  1  0
  4 42  1  0
 31  5  1  6
  5  6  1  6
  5  7  1  0
  6 43  1  0
  7 17  1  0
  7  8  1  0
  7 44  1  6
  8 23  1  0
  8  9  1  6
  8 10  1  0
  9 45  1  0
  9 46  1  0
  9 47  1  0
 10 11  1  0
 10 48  1  0
 10 49  1  0
 11 34  1  0
 11 12  1  0
 11 50  1  1
 12 13  1  0
 12 34  1  0
 12 51  1  1
 13 14  1  0
 13 15  1  0
 13 52  1  6
 14 53  1  0
 15 16  1  6
 15 17  1  0
 15 21  1  0
 16 54  1  0
 16 55  1  0
 16 56  1  0
 17 18  1  6
 17 19  1  0
 18 57  1  0
 19 20  1  0
 19 58  1  0
 19 59  1  0
 20 60  1  0
 21 31  1  0
 21 22  1  1
 21 23  1  0
 22 61  1  0
 22 62  1  0
 22 63  1  0
 23 24  1  0
 23 64  1  1
 24 25  1  0
 24 26  1  0
 24 65  1  1
 25 66  1  0
 26 27  1  0
 26 28  1  0
 26 67  1  1
 27 68  1  0
 28 29  1  0
 28 69  1  0
 28 70  1  0
 29 30  1  0
 29 31  1  0
 29 71  1  6
 30 72  1  0
 31 32  1  0
 32 33  1  0
 32 73  1  6
 33 74  1  0
 34 35  1  0
 34 36  1  0
 35 75  1  0
 35 76  1  0
 35 77  1  0
 36 78  1  0
 36 79  1  0
 36 80  1  0
M  END
>  <i_m_ct_stereo_status>  (26) 
1

>  <s_m_source_file>  (26) 
/var/tmp/pbs.5076255.sched01/tmp0qfm3vo4/0bcu552to.sdf

>  <i_m_source_file_index>  (26) 
10

>  <i_lp_mmshare_version>  (26) 
48012

>  <i_f3d_flags>  (26) 
0

>  <s_epik_input>  (26) 
W09IXVtDQEhdMUMoPVtDSDJdKVtDSDJdW0NIMl1bQ0BAXShbQ0BAXTEyMykoW09IXSlbQ0BIXTRbQ0BAXTUoW0NIM10pW0NAQEhdKFtDQEBIXShbT0hdKVtDQEBIXShbT0hdKVtDSDJdW0NASF0zW09IXSlbQ0BdMihbQ0gzXSlbQ0BAXShbQ0gzXSkoW0NAXTQoW09IXSlbQ0gyXVtPSF0pW0NASF0oW09IXSlbQ0BIXTZbQ0BASF0oW0NIMl01KUM2KFtDSDNdKVtDSDNd

>  <s_epik_cmdline>  (26) 
J2VwaWtfcHl0aG9uJywgJy1waHQnLCAnMi4wJywgJy1waCcsICc3LjAnLCAnLXRuJywgJzgnLCAnLW1hJywgJzIwMCcsICctaW1hZScsICc8aW5maWxlLm1hZT4nLCAnLW9tYWUnLCAnPG91dGZpbGUubWFlPic=

>  <r_lp_tautomer_probability>  (26) 
1

>  <r_epik_Ionization_Penalty>  (26) 
3.2618e-06

>  <r_epik_Ionization_Penalty_Charging>  (26) 
0

>  <r_epik_Ionization_Penalty_Neutral>  (26) 
3.2618e-06

>  <r_epik_State_Penalty>  (26) 
-0

>  <r_epik_Charging_Adjusted_Penalty>  (26) 
0

>  <i_epik_Tot_Q>  (26) 
0

>  <i_epik_Tot_abs_Q>  (26) 
0

>  <s_lp_Force_Field>  (26) 
OPLS3e

>  <r_lp_Energy>  (26) 
258.395

>  <b_lp_Chiralities_Consistent>  (26) 
1

>  <s_lp_Variant>  (26) 
6:0-1

>  <s_i_glide_gridfile>  (26) 
pfpi4k_grid

>  <i_i_glide_lignum>  (26) 
10

>  <i_i_glide_rotatable_bonds>  (26) 
9

>  <r_i_docking_score>  (26) 
-3.84221

>  <r_i_glide_ligand_efficiency>  (26) 
-0.106728

>  <r_i_glide_ligand_efficiency_sa>  (26) 
-0.352409

>  <r_i_glide_ligand_efficiency_ln>  (26) 
-0.838267

>  <r_i_glide_gscore>  (26) 
-3.84221

>  <r_i_glide_lipo>  (26) 
-0.253534

>  <r_i_glide_hbond>  (26) 
0

>  <r_i_glide_metal>  (26) 
-0

>  <r_i_glide_rewards>  (26) 
-0.5

>  <r_i_glide_evdw>  (26) 
-20.8316

>  <r_i_glide_ecoul>  (26) 
-14.1749

>  <r_i_glide_erotb>  (26) 
0.0791386

>  <r_i_glide_esite>  (26) 
0

>  <r_i_glide_emodel>  (26) 
-49.2759

>  <r_i_glide_energy>  (26) 
-35.0065

>  <r_i_glide_einternal>  (26) 
2.2888

>  <r_i_glide_intrahb_reward>  (26) 
-0.5

>  <i_i_glide_confnum>  (26) 
2

>  <i_i_glide_posenum>  (26) 
1

>  <r_i_glide_eff_state_penalty>  (26) 
0

>  <ligand_id>  (26) 
6

>  <original_smiles>  (26) 
C=C1CCC2(O)C3C4(C)CC5C(C(O)C(C)(C3(O)CO)C3(C)C4C(O)C(O)CC(O)C23C1O)C5(C)C

>  <smiles>  (26) 
[H]OC([H])([H])C1(O[H])C2([H])C3(O[H])C([H])([H])C([H])([H])C(=C([H])[H])C([H])(O[H])C34C([H])(O[H])C([H])([H])C([H])(O[H])C([H])(O[H])C3([H])C2(C([H])([H])[H])C([H])([H])C2([H])C([H])(C([H])(O[H])C1(C([H])([H])[H])C34C([H])([H])[H])C2(C([H])([H])[H])C([H])([H])[H]

$$$$
6:0:2
     RDKit          3D

 80 85  0  0  1  0  0  0  0  0999 V2000
    1.7765   -1.0917    2.1210 C   0  0  0  0  0  0  0  0  0  0  0  0
    2.0563   -0.3448    3.2034 C   0  0  0  0  0  0  0  0  0  0  0  0
    3.4300    0.3540    3.2750 C   0  0  0  0  0  0  0  0  0  0  0  0
    3.5238    1.6392    4.1716 C   0  0  0  0  0  0  0  0  0  0  0  0
    2.5476    1.5972    5.3891 C   0  0  1  0  0  0  0  0  0  0  0  0
    3.1523    0.3909    5.8441 O   0  0  0  0  0  0  0  0  0  0  0  0
    2.6414    2.6079    6.6595 C   0  0  1  0  0  0  0  0  0  0  0  0
    1.6834    3.8967    6.4911 C   0  0  2  0  0  0  0  0  0  0  0  0
    2.5314    4.7814    5.5185 C   0  0  0  0  0  0  0  0  0  0  0  0
    1.4454    4.9391    7.6682 C   0  0  0  0  0  0  0  0  0  0  0  0
    0.7086    4.6954    9.0193 C   0  0  2  0  0  0  0  0  0  0  0  0
    0.0356    3.4487    9.5767 C   0  0  2  0  0  0  0  0  0  0  0  0
   -0.2011    2.0610    8.9254 C   0  0  1  0  0  0  0  0  0  0  0  0
   -1.5794    1.7596    8.9038 O   0  0  0  0  0  0  0  0  0  0  0  0
    0.6907    1.4582    7.7421 C   0  0  2  0  0  0  0  0  0  0  0  0
    0.5600   -0.0962    7.9632 C   0  0  0  0  0  0  0  0  0  0  0  0
    2.2391    1.8639    7.9813 C   0  0  1  0  0  0  0  0  0  0  0  0
    3.0165    0.7011    8.2639 O   0  0  0  0  0  0  0  0  0  0  0  0
    2.8663    2.5409    9.2692 C   0  0  0  0  0  0  0  0  0  0  0  0
    2.5194    1.9818   10.5284 O   0  0  0  0  0  0  0  0  0  0  0  0
    0.1564    1.8186    6.1907 C   0  0  1  0  0  0  0  0  0  0  0  0
   -1.3133    1.3123    6.0597 C   0  0  0  0  0  0  0  0  0  0  0  0
    0.2280    3.3806    6.0965 C   0  0  2  0  0  0  0  0  0  0  0  0
   -0.7721    4.2131    5.1693 C   0  0  1  0  0  0  0  0  0  0  0  0
   -0.2720    5.4667    4.7589 O   0  0  0  0  0  0  0  0  0  0  0  0
   -1.5487    3.5296    3.9975 C   0  0  1  0  0  0  0  0  0  0  0  0
   -2.1539    4.4910    3.1453 O   0  0  0  0  0  0  0  0  0  0  0  0
   -0.7908    2.4946    3.1363 C   0  0  0  0  0  0  0  0  0  0  0  0
    0.6734    2.2425    3.5365 C   0  0  1  0  0  0  0  0  0  0  0  0
    1.2637    3.4961    3.2664 O   0  0  0  0  0  0  0  0  0  0  0  0
    1.0533    1.3869    4.8929 C   0  0  1  0  0  0  0  0  0  0  0  0
    1.0338   -0.1183    4.3591 C   0  0  1  0  0  0  0  0  0  0  0  0
   -0.2518   -0.5763    4.0007 O   0  0  0  0  0  0  0  0  0  0  0  0
   -0.7711    4.7408    9.3954 C   0  0  0  0  0  0  0  0  0  0  0  0
   -1.1251    5.5386   10.6439 C   0  0  0  0  0  0  0  0  0  0  0  0
   -1.9145    4.9119    8.4185 C   0  0  0  0  0  0  0  0  0  0  0  0
    0.8286   -1.5950    2.0013 H   0  0  0  0  0  0  0  0  0  0  0  0
    2.4943   -1.2061    1.3185 H   0  0  0  0  0  0  0  0  0  0  0  0
    4.1505   -0.3860    3.6299 H   0  0  0  0  0  0  0  0  0  0  0  0
    3.7537    0.6029    2.2632 H   0  0  0  0  0  0  0  0  0  0  0  0
    4.5566    1.7490    4.5099 H   0  0  0  0  0  0  0  0  0  0  0  0
    3.3911    2.5014    3.5310 H   0  0  0  0  0  0  0  0  0  0  0  0
    3.2185   -0.1979    5.0970 H   0  0  0  0  0  0  0  0  0  0  0  0
    3.6809    2.9214    6.7696 H   0  0  0  0  0  0  0  0  0  0  0  0
    2.0313    5.6655    5.1296 H   0  0  0  0  0  0  0  0  0  0  0  0
    2.9735    4.2451    4.6921 H   0  0  0  0  0  0  0  0  0  0  0  0
    3.4058    5.1777    6.0388 H   0  0  0  0  0  0  0  0  0  0  0  0
    2.4256    5.3242    7.9591 H   0  0  0  0  0  0  0  0  0  0  0  0
    0.9614    5.8202    7.2373 H   0  0  0  0  0  0  0  0  0  0  0  0
    1.2874    5.2327    9.7636 H   0  0  0  0  0  0  0  0  0  0  0  0
    0.2453    3.2904   10.6276 H   0  0  0  0  0  0  0  0  0  0  0  0
    0.0810    1.4177    9.7607 H   0  0  0  0  0  0  0  0  0  0  0  0
   -1.9492    2.0647    9.7232 H   0  0  0  0  0  0  0  0  0  0  0  0
    1.0818   -0.6685    7.2035 H   0  0  0  0  0  0  0  0  0  0  0  0
   -0.4628   -0.4579    8.0161 H   0  0  0  0  0  0  0  0  0  0  0  0
    0.9745   -0.4064    8.9253 H   0  0  0  0  0  0  0  0  0  0  0  0
    3.0956    0.2490    7.4247 H   0  0  0  0  0  0  0  0  0  0  0  0
    3.9582    2.4778    9.2105 H   0  0  0  0  0  0  0  0  0  0  0  0
    2.7764    3.6073    9.3370 H   0  0  0  0  0  0  0  0  0  0  0  0
    1.5903    2.0841   10.6690 H   0  0  0  0  0  0  0  0  0  0  0  0
   -1.6501    1.1439    5.0529 H   0  0  0  0  0  0  0  0  0  0  0  0
   -2.0237    2.0051    6.5005 H   0  0  0  0  0  0  0  0  0  0  0  0
   -1.4963    0.3411    6.4909 H   0  0  0  0  0  0  0  0  0  0  0  0
   -0.3066    3.5852    6.9945 H   0  0  0  0  0  0  0  0  0  0  0  0
   -1.5930    4.5220    5.8103 H   0  0  0  0  0  0  0  0  0  0  0  0
    0.4314    5.3012    4.1402 H   0  0  0  0  0  0  0  0  0  0  0  0
   -2.4110    3.0272    4.4299 H   0  0  0  0  0  0  0  0  0  0  0  0
   -1.5616    4.6398    2.4135 H   0  0  0  0  0  0  0  0  0  0  0  0
   -1.3579    1.5705    3.0508 H   0  0  0  0  0  0  0  0  0  0  0  0
   -0.7919    2.8357    2.1007 H   0  0  0  0  0  0  0  0  0  0  0  0
    1.0439    1.7264    2.6579 H   0  0  0  0  0  0  0  0  0  0  0  0
    1.0334    3.7479    2.3706 H   0  0  0  0  0  0  0  0  0  0  0  0
    1.2997   -0.8392    5.1261 H   0  0  0  0  0  0  0  0  0  0  0  0
   -0.5665   -0.0380    3.2864 H   0  0  0  0  0  0  0  0  0  0  0  0
   -2.0414    5.1515   11.0994 H   0  0  0  0  0  0  0  0  0  0  0  0
   -1.2812    6.5912   10.3912 H   0  0  0  0  0  0  0  0  0  0  0  0
   -0.3286    5.4788   11.3907 H   0  0  0  0  0  0  0  0  0  0  0  0
   -2.8373    5.1658    8.9482 H   0  0  0  0  0  0  0  0  0  0  0  0
   -2.1303    3.9961    7.8713 H   0  0  0  0  0  0  0  0  0  0  0  0
   -1.6764    5.7344    7.7430 H   0  0  0  0  0  0  0  0  0  0  0  0
  1  2  2  0
  1 37  1  0
  1 38  1  0
  2 32  1  0
  2  3  1  0
  3  4  1  0
  3 39  1  0
  3 40  1  0
  4  5  1  0
  4 41  1  0
  4 42  1  0
 31  5  1  1
  5  6  1  1
  5  7  1  0
  6 43  1  0
  7 17  1  0
  7  8  1  0
  7 44  1  1
  8 23  1  0
  8  9  1  6
  8 10  1  0
  9 45  1  0
  9 46  1  0
  9 47  1  0
 10 11  1  0
 10 48  1  0
 10 49  1  0
 11 34  1  0
 11 12  1  0
 11 50  1  1
 12 13  1  0
 12 34  1  0
 12 51  1  1
 13 14  1  0
 13 15  1  0
 13 52  1  1
 14 53  1  0
 15 16  1  1
 15 17  1  0
 15 21  1  0
 16 54  1  0
 16 55  1  0
 16 56  1  0
 17 18  1  6
 17 19  1  0
 18 57  1  0
 19 20  1  0
 19 58  1  0
 19 59  1  0
 20 60  1  0
 21 31  1  0
 21 22  1  6
 21 23  1  0
 22 61  1  0
 22 62  1  0
 22 63  1  0
 23 24  1  0
 23 64  1  1
 24 25  1  0
 24 26  1  0
 24 65  1  1
 25 66  1  0
 26 27  1  0
 26 28  1  0
 26 67  1  1
 27 68  1  0
 28 29  1  0
 28 69  1  0
 28 70  1  0
 29 30  1  0
 29 31  1  0
 29 71  1  6
 30 72  1  0
 31 32  1  0
 32 33  1  0
 32 73  1  1
 33 74  1  0
 34 35  1  0
 34 36  1  0
 35 75  1  0
 35 76  1  0
 35 77  1  0
 36 78  1  0
 36 79  1  0
 36 80  1  0
M  END
>  <i_m_ct_stereo_status>  (27) 
1

>  <s_m_source_file>  (27) 
/var/tmp/pbs.5076255.sched01/tmp0qfm3vo4/0bcu552to.sdf

>  <i_m_source_file_index>  (27) 
10

>  <i_lp_mmshare_version>  (27) 
48012

>  <i_f3d_flags>  (27) 
0

>  <s_epik_input>  (27) 
W09IXVtDQEhdMUMoPVtDSDJdKVtDSDJdW0NIMl1bQ0BAXShbQ0BAXTEyMykoW09IXSlbQ0BIXTRbQ0BAXTUoW0NIM10pW0NAQEhdKFtDQEBIXShbT0hdKVtDQEBIXShbT0hdKVtDSDJdW0NASF0zW09IXSlbQ0BdMihbQ0gzXSlbQ0BAXShbQ0gzXSkoW0NAXTQoW09IXSlbQ0gyXVtPSF0pW0NASF0oW09IXSlbQ0BIXTZbQ0BASF0oW0NIMl01KUM2KFtDSDNdKVtDSDNd

>  <s_epik_cmdline>  (27) 
J2VwaWtfcHl0aG9uJywgJy1waHQnLCAnMi4wJywgJy1waCcsICc3LjAnLCAnLXRuJywgJzgnLCAnLW1hJywgJzIwMCcsICctaW1hZScsICc8aW5maWxlLm1hZT4nLCAnLW9tYWUnLCAnPG91dGZpbGUubWFlPic=

>  <r_lp_tautomer_probability>  (27) 
1

>  <r_epik_Ionization_Penalty>  (27) 
3.2618e-06

>  <r_epik_Ionization_Penalty_Charging>  (27) 
0

>  <r_epik_Ionization_Penalty_Neutral>  (27) 
3.2618e-06

>  <r_epik_State_Penalty>  (27) 
-0

>  <r_epik_Charging_Adjusted_Penalty>  (27) 
0

>  <i_epik_Tot_Q>  (27) 
0

>  <i_epik_Tot_abs_Q>  (27) 
0

>  <s_lp_Force_Field>  (27) 
OPLS3e

>  <r_lp_Energy>  (27) 
258.395

>  <b_lp_Chiralities_Consistent>  (27) 
1

>  <s_lp_Variant>  (27) 
6:0-1

>  <s_i_glide_gridfile>  (27) 
pfpi4k_grid

>  <i_i_glide_lignum>  (27) 
10

>  <i_i_glide_rotatable_bonds>  (27) 
9

>  <r_i_docking_score>  (27) 
-3.49038

>  <r_i_glide_ligand_efficiency>  (27) 
-0.096955

>  <r_i_glide_ligand_efficiency_sa>  (27) 
-0.320138

>  <r_i_glide_ligand_efficiency_ln>  (27) 
-0.761507

>  <r_i_glide_gscore>  (27) 
-3.49038

>  <r_i_glide_lipo>  (27) 
0

>  <r_i_glide_hbond>  (27) 
0

>  <r_i_glide_metal>  (27) 
-0

>  <r_i_glide_rewards>  (27) 
-1

>  <r_i_glide_evdw>  (27) 
-18.1496

>  <r_i_glide_ecoul>  (27) 
-11.0802

>  <r_i_glide_erotb>  (27) 
0.0791386

>  <r_i_glide_esite>  (27) 
0

>  <r_i_glide_emodel>  (27) 
-48.0473

>  <r_i_glide_energy>  (27) 
-29.2299

>  <r_i_glide_einternal>  (27) 
1.48577

>  <r_i_glide_intrahb_reward>  (27) 
-1

>  <i_i_glide_confnum>  (27) 
1

>  <i_i_glide_posenum>  (27) 
3

>  <r_i_glide_eff_state_penalty>  (27) 
0

>  <ligand_id>  (27) 
6

>  <original_smiles>  (27) 
C=C1CCC2(O)C3C4(C)CC5C(C(O)C(C)(C3(O)CO)C3(C)C4C(O)C(O)CC(O)C23C1O)C5(C)C

>  <smiles>  (27) 
[H]OC([H])([H])C1(O[H])C2([H])C3(O[H])C([H])([H])C([H])([H])C(=C([H])[H])C([H])(O[H])C34C([H])(O[H])C([H])([H])C([H])(O[H])C([H])(O[H])C3([H])C2(C([H])([H])[H])C([H])([H])C2([H])C([H])(C([H])(O[H])C1(C([H])([H])[H])C34C([H])([H])[H])C2(C([H])([H])[H])C([H])([H])[H]

$$$$
7:0:0
     RDKit          3D

 72 78  0  0  1  0  0  0  0  0999 V2000
    3.0497   -0.8490    5.9395 C   0  0  0  0  0  0  0  0  0  0  0  0
    3.3795    0.5337    5.3123 C   0  0  0  0  0  0  0  0  0  0  0  0
    4.8471    0.7825    5.7705 C   0  0  0  0  0  0  0  0  0  0  0  0
    3.2597    0.3442    3.7062 C   0  0  2  0  0  0  0  0  0  0  0  0
    2.9892    1.6838    3.7162 C   0  0  0  0  0  0  0  0  0  0  0  0
    1.6146    1.5819    4.6213 C   0  0  1  0  0  0  0  0  0  0  0  0
    0.3033    0.5875    4.9579 C   0  0  1  0  0  0  0  0  0  0  0  0
    0.1908    0.1184    6.2868 O   0  0  0  0  0  0  0  0  0  0  0  0
   -1.1693    1.0417    4.5926 C   0  0  0  0  0  0  0  0  0  0  0  0
   -1.7254    2.2316    4.1775 C   0  0  0  0  0  0  0  0  0  0  0  0
   -1.0055    3.5451    4.0627 C   0  0  0  0  0  0  0  0  0  0  0  0
   -1.4787    4.6043    3.6426 O   0  0  0  0  0  0  0  0  0  0  0  0
    0.3790    3.4645    4.6766 C   0  0  2  0  0  0  0  0  0  0  0  0
    0.0900    3.2315    6.2168 C   0  0  0  0  0  0  0  0  0  0  0  0
   -0.6980    4.1507    6.8268 C   0  0  0  0  0  0  0  0  0  0  0  0
   -0.1872    5.5811    6.7481 C   0  0  0  0  0  0  0  0  0  0  0  0
    1.0456    5.7286    5.8058 C   0  0  0  0  0  0  0  0  0  0  0  0
    1.5643    6.8243    5.7088 O   0  0  0  0  0  0  0  0  0  0  0  0
    1.5751    4.4491    5.0249 C   0  0  2  0  0  0  0  0  0  0  0  0
    2.5261    5.0391    3.9227 C   0  0  0  0  0  0  0  0  0  0  0  0
    2.3787    3.3872    5.9836 C   0  0  1  0  0  0  0  0  0  0  0  0
    1.2994    3.2782    6.8785 O   0  0  0  0  0  0  0  0  0  0  0  0
    2.4137    1.7591    5.8215 C   0  0  2  0  0  0  0  0  0  0  0  0
    1.0520    2.4648    3.6569 C   0  0  2  0  0  0  0  0  0  0  0  0
    0.8277    1.2965    2.5006 C   0  0  0  0  0  0  0  0  0  0  0  0
    1.9994    0.0875    2.6340 C   0  0  1  0  0  0  0  0  0  0  0  0
    2.5559   -0.1941    1.3028 N   0  0  0  0  0  0  0  0  0  0  0  0
    3.3424   -1.2534    1.0869 C   0  0  0  0  0  0  0  0  0  0  0  0
    3.6385   -2.0167    2.0089 O   0  0  0  0  0  0  0  0  0  0  0  0
    3.8639   -1.5182   -0.3361 C   0  0  0  0  0  0  0  0  0  0  0  0
    3.4419   -2.9141   -0.8574 C   0  0  0  0  0  0  0  0  0  0  0  0
    4.1794   -4.0742   -0.1539 C   0  0  0  0  0  0  0  0  0  0  0  0
    5.7069   -3.8784   -0.2153 C   0  0  0  0  0  0  0  0  0  0  0  0
    6.1697   -2.4932    0.2791 C   0  0  0  0  0  0  0  0  0  0  0  0
    5.4013   -1.3621   -0.4354 C   0  0  0  0  0  0  0  0  0  0  0  0
    3.8560   -1.5637    5.7564 H   0  0  0  0  0  0  0  0  0  0  0  0
    2.1646   -1.3169    5.5101 H   0  0  0  0  0  0  0  0  0  0  0  0
    2.9240   -0.7867    7.0249 H   0  0  0  0  0  0  0  0  0  0  0  0
    5.2352    1.7603    5.4899 H   0  0  0  0  0  0  0  0  0  0  0  0
    5.5268    0.0390    5.3468 H   0  0  0  0  0  0  0  0  0  0  0  0
    4.9306    0.7148    6.8575 H   0  0  0  0  0  0  0  0  0  0  0  0
    4.2395    0.1319    3.2881 H   0  0  0  0  0  0  0  0  0  0  0  0
    3.7854    2.3442    4.0735 H   0  0  0  0  0  0  0  0  0  0  0  0
    3.0887    2.0268    2.6756 H   0  0  0  0  0  0  0  0  0  0  0  0
    0.3858   -0.3672    4.4623 H   0  0  0  0  0  0  0  0  0  0  0  0
    1.0191   -0.2934    6.5150 H   0  0  0  0  0  0  0  0  0  0  0  0
   -1.8575    0.2150    4.6467 H   0  0  0  0  0  0  0  0  0  0  0  0
   -2.7884    2.2367    3.9548 H   0  0  0  0  0  0  0  0  0  0  0  0
   -1.7500    4.1654    6.5967 H   0  0  0  0  0  0  0  0  0  0  0  0
   -0.9798    6.2168    6.3562 H   0  0  0  0  0  0  0  0  0  0  0  0
    0.0526    5.9690    7.7353 H   0  0  0  0  0  0  0  0  0  0  0  0
    3.2019    4.3229    3.4696 H   0  0  0  0  0  0  0  0  0  0  0  0
    3.2179    5.7757    4.3273 H   0  0  0  0  0  0  0  0  0  0  0  0
    1.9623    5.5217    3.1256 H   0  0  0  0  0  0  0  0  0  0  0  0
    3.2472    3.8057    6.4985 H   0  0  0  0  0  0  0  0  0  0  0  0
    2.0847    1.3457    6.7720 H   0  0  0  0  0  0  0  0  0  0  0  0
    1.5345    3.1701    2.9941 H   0  0  0  0  0  0  0  0  0  0  0  0
   -0.1752    0.8778    2.3857 H   0  0  0  0  0  0  0  0  0  0  0  0
    0.9552    1.8040    1.5395 H   0  0  0  0  0  0  0  0  0  0  0  0
    1.4988   -0.8510    2.8721 H   0  0  0  0  0  0  0  0  0  0  0  0
    2.2147    0.3283    0.5060 H   0  0  0  0  0  0  0  0  0  0  0  0
    3.4144   -0.7764   -0.9965 H   0  0  0  0  0  0  0  0  0  0  0  0
    2.3600   -3.0377   -0.7701 H   0  0  0  0  0  0  0  0  0  0  0  0
    3.6461   -2.9656   -1.9279 H   0  0  0  0  0  0  0  0  0  0  0  0
    3.8554   -4.1666    0.8818 H   0  0  0  0  0  0  0  0  0  0  0  0
    3.8972   -5.0222   -0.6124 H   0  0  0  0  0  0  0  0  0  0  0  0
    6.1923   -4.6535    0.3744 H   0  0  0  0  0  0  0  0  0  0  0  0
    6.0333   -4.0125   -1.2454 H   0  0  0  0  0  0  0  0  0  0  0  0
    6.0359   -2.4157    1.3576 H   0  0  0  0  0  0  0  0  0  0  0  0
    7.2415   -2.3719    0.1230 H   0  0  0  0  0  0  0  0  0  0  0  0
    5.6802   -1.3546   -1.4902 H   0  0  0  0  0  0  0  0  0  0  0  0
    5.7056   -0.3876   -0.0465 H   0  0  0  0  0  0  0  0  0  0  0  0
  1  2  1  0
  1 36  1  0
  1 37  1  0
  1 38  1  0
  2 23  1  0
  2  3  1  0
  2  4  1  0
  3 39  1  0
  3 40  1  0
  3 41  1  0
  4 26  1  0
  4  5  1  0
  4 42  1  6
  6  5  1  6
  5 43  1  0
  5 44  1  0
  6 23  1  0
  6 24  1  0
  6  7  1  0
  7  8  1  0
  7  9  1  0
  7 45  1  6
  8 46  1  0
  9 10  2  0
  9 47  1  0
 10 11  1  0
 10 48  1  0
 11 12  2  0
 13 11  1  6
 13 19  1  0
 13 14  1  0
 13 24  1  0
 14 22  1  0
 14 15  2  0
 15 16  1  0
 15 49  1  0
 16 17  1  0
 16 50  1  0
 16 51  1  0
 17 18  2  0
 17 19  1  0
 19 20  1  6
 19 21  1  0
 20 52  1  0
 20 53  1  0
 20 54  1  0
 21 22  1  0
 21 23  1  0
 21 55  1  1
 23 56  1  1
 24 25  1  0
 24 57  1  6
 25 26  1  0
 25 58  1  0
 25 59  1  0
 26 27  1  0
 26 60  1  1
 27 28  1  0
 27 61  1  0
 28 29  2  0
 28 30  1  0
 30 35  1  0
 30 31  1  0
 30 62  1  0
 31 32  1  0
 31 63  1  0
 31 64  1  0
 32 33  1  0
 32 65  1  0
 32 66  1  0
 33 34  1  0
 33 67  1  0
 33 68  1  0
 34 35  1  0
 34 69  1  0
 34 70  1  0
 35 71  1  0
 35 72  1  0
M  END
>  <i_m_ct_stereo_status>  (28) 
1

>  <s_m_source_file>  (28) 
/var/tmp/pbs.5076255.sched01/tmp0qfm3vo4/0bcu552to.sdf

>  <i_m_source_file_index>  (28) 
11

>  <i_lp_mmshare_version>  (28) 
48012

>  <i_f3d_flags>  (28) 
0

>  <s_epik_input>  (28) 
W0NIMl0xW0NIMl1bQ0gyXVtDSDJdW0NIMl1bQ0hdMUMoPU8pW05IXVtDQEBIXShbQ0BASF0oW0NIMl0yKUMzKFtDSDNdKVtDSDNdKVtDSDJdW0NASF00W0NAXShbQ0BdNShbQ0gzXSlbQ0BASF02W0NASF0zW0NAXTI0NykoQyhPNik9W0NIXVtDSDJdQzU9TylDKD1PKVtDSF09W0NIXVtDQEBIXTdbT0hd

>  <s_epik_cmdline>  (28) 
J2VwaWtfcHl0aG9uJywgJy1waHQnLCAnMi4wJywgJy1waCcsICc3LjAnLCAnLXRuJywgJzgnLCAnLW1hJywgJzIwMCcsICctaW1hZScsICc8aW5maWxlLm1hZT4nLCAnLW9tYWUnLCAnPG91dGZpbGUubWFlPic=

>  <r_lp_tautomer_probability>  (28) 
1

>  <r_epik_Ionization_Penalty>  (28) 
1.78266e-05

>  <r_epik_Ionization_Penalty_Charging>  (28) 
0

>  <r_epik_Ionization_Penalty_Neutral>  (28) 
1.78266e-05

>  <r_epik_State_Penalty>  (28) 
-0

>  <r_epik_Charging_Adjusted_Penalty>  (28) 
0

>  <i_epik_Tot_Q>  (28) 
0

>  <i_epik_Tot_abs_Q>  (28) 
0

>  <s_lp_Force_Field>  (28) 
OPLS3e

>  <r_lp_Energy>  (28) 
466.281

>  <b_lp_Chiralities_Consistent>  (28) 
1

>  <s_lp_Variant>  (28) 
7:0-1

>  <s_i_glide_gridfile>  (28) 
pfpi4k_grid

>  <i_i_glide_lignum>  (28) 
11

>  <i_i_glide_rotatable_bonds>  (28) 
4

>  <r_i_docking_score>  (28) 
-2.65609

>  <r_i_glide_ligand_efficiency>  (28) 
-0.0758882

>  <r_i_glide_ligand_efficiency_sa>  (28) 
-0.248235

>  <r_i_glide_ligand_efficiency_ln>  (28) 
-0.58307

>  <r_i_glide_gscore>  (28) 
-2.65609

>  <r_i_glide_lipo>  (28) 
-0.131207

>  <r_i_glide_hbond>  (28) 
-0.166864

>  <r_i_glide_metal>  (28) 
-0

>  <r_i_glide_rewards>  (28) 
-0.139038

>  <r_i_glide_evdw>  (28) 
-33.9636

>  <r_i_glide_ecoul>  (28) 
-4.11502

>  <r_i_glide_erotb>  (28) 
0.264403

>  <r_i_glide_esite>  (28) 
-0.16795

>  <r_i_glide_emodel>  (28) 
-42.5358

>  <r_i_glide_energy>  (28) 
-38.0786

>  <r_i_glide_einternal>  (28) 
1.77999

>  <r_i_glide_intrahb_reward>  (28) 
-0

>  <i_i_glide_confnum>  (28) 
1

>  <i_i_glide_posenum>  (28) 
27

>  <r_i_glide_eff_state_penalty>  (28) 
0

>  <ligand_id>  (28) 
7

>  <original_smiles>  (28) 
CC1(C)C2CC34C(O)C=CC(=O)C5(C6=CCC(=O)C5(C)C(O6)C13)C4CC2NC(=O)C1CCCCC1

>  <smiles>  (28) 
[H]OC1([H])C([H])=C([H])C(=O)C23C4=C([H])C([H])([H])C(=O)C2(C([H])([H])[H])C([H])(O4)C2([H])C(C([H])([H])[H])(C([H])([H])[H])C4([H])C([H])([H])C12C3([H])C([H])([H])C4([H])N([H])C(=O)C1([H])C([H])([H])C([H])([H])C([H])([H])C([H])([H])C1([H])[H]

$$$$
7:0:1
     RDKit          3D

 72 78  0  0  1  0  0  0  0  0999 V2000
    2.1367   -2.1383    6.0129 C   0  0  0  0  0  0  0  0  0  0  0  0
    2.6774   -0.6818    5.9988 C   0  0  0  0  0  0  0  0  0  0  0  0
    3.9381   -0.7714    6.9104 C   0  0  0  0  0  0  0  0  0  0  0  0
    3.0345   -0.3482    4.4416 C   0  0  2  0  0  0  0  0  0  0  0  0
    2.8213    0.9459    4.8477 C   0  0  0  0  0  0  0  0  0  0  0  0
    1.2345    0.7415    5.2602 C   0  0  1  0  0  0  0  0  0  0  0  0
   -0.1433   -0.1372    4.8778 C   0  0  1  0  0  0  0  0  0  0  0  0
   -0.6676   -0.9829    5.8850 O   0  0  0  0  0  0  0  0  0  0  0  0
   -1.4148    0.5938    4.2947 C   0  0  0  0  0  0  0  0  0  0  0  0
   -1.7886    1.9111    4.1600 C   0  0  0  0  0  0  0  0  0  0  0  0
   -1.0466    3.1001    4.6963 C   0  0  0  0  0  0  0  0  0  0  0  0
   -1.3215    4.2885    4.5107 O   0  0  0  0  0  0  0  0  0  0  0  0
    0.0725    2.6513    5.6131 C   0  0  2  0  0  0  0  0  0  0  0  0
   -0.6793    1.9780    6.8333 C   0  0  0  0  0  0  0  0  0  0  0  0
   -1.5987    2.7468    7.4739 C   0  0  0  0  0  0  0  0  0  0  0  0
   -1.0517    4.0518    8.0342 C   0  0  0  0  0  0  0  0  0  0  0  0
    0.4097    4.3357    7.5798 C   0  0  0  0  0  0  0  0  0  0  0  0
    0.9570    5.3389    7.9974 O   0  0  0  0  0  0  0  0  0  0  0  0
    1.1263    3.3151    6.5919 C   0  0  2  0  0  0  0  0  0  0  0  0
    2.3770    4.1019    6.0651 C   0  0  0  0  0  0  0  0  0  0  0  0
    1.5769    1.9114    7.3110 C   0  0  1  0  0  0  0  0  0  0  0  0
    0.2720    1.6537    7.7769 O   0  0  0  0  0  0  0  0  0  0  0  0
    1.6331    0.4293    6.6177 C   0  0  2  0  0  0  0  0  0  0  0  0
    1.0010    1.9497    4.5459 C   0  0  2  0  0  0  0  0  0  0  0  0
    1.1017    1.2574    3.0430 C   0  0  0  0  0  0  0  0  0  0  0  0
    2.1356   -0.0669    3.0622 C   0  0  1  0  0  0  0  0  0  0  0  0
    3.0416    0.0197    1.9108 N   0  0  0  0  0  0  0  0  0  0  0  0
    3.5662   -1.0824    1.3582 C   0  0  0  0  0  0  0  0  0  0  0  0
    3.2734   -2.1997    1.7817 O   0  0  0  0  0  0  0  0  0  0  0  0
    4.5609   -0.9228    0.1906 C   0  0  0  0  0  0  0  0  0  0  0  0
    4.0075   -1.4904   -1.1397 C   0  0  0  0  0  0  0  0  0  0  0  0
    3.9429   -3.0308   -1.1459 C   0  0  0  0  0  0  0  0  0  0  0  0
    5.3133   -3.6477   -0.8004 C   0  0  0  0  0  0  0  0  0  0  0  0
    5.9245   -3.0891    0.5015 C   0  0  0  0  0  0  0  0  0  0  0  0
    5.9460   -1.5467    0.4913 C   0  0  0  0  0  0  0  0  0  0  0  0
    2.9415   -2.8556    5.8346 H   0  0  0  0  0  0  0  0  0  0  0  0
    1.4114   -2.3352    5.2246 H   0  0  0  0  0  0  0  0  0  0  0  0
    1.6893   -2.4012    6.9764 H   0  0  0  0  0  0  0  0  0  0  0  0
    4.4119    0.1903    7.1052 H   0  0  0  0  0  0  0  0  0  0  0  0
    4.7003   -1.4208    6.4736 H   0  0  0  0  0  0  0  0  0  0  0  0
    3.6807   -1.1876    7.8880 H   0  0  0  0  0  0  0  0  0  0  0  0
    4.0760   -0.5698    4.2180 H   0  0  0  0  0  0  0  0  0  0  0  0
    3.4859    1.3531    5.6155 H   0  0  0  0  0  0  0  0  0  0  0  0
    3.2339    1.5958    4.0616 H   0  0  0  0  0  0  0  0  0  0  0  0
    0.0398   -0.8934    4.1314 H   0  0  0  0  0  0  0  0  0  0  0  0
   -0.0169   -1.6630    6.0427 H   0  0  0  0  0  0  0  0  0  0  0  0
   -2.1086   -0.1205    3.8858 H   0  0  0  0  0  0  0  0  0  0  0  0
   -2.7399    2.1132    3.6742 H   0  0  0  0  0  0  0  0  0  0  0  0
   -2.5287    2.9763    6.9821 H   0  0  0  0  0  0  0  0  0  0  0  0
   -1.6660    4.8782    7.6767 H   0  0  0  0  0  0  0  0  0  0  0  0
   -1.1166    4.0777    9.1198 H   0  0  0  0  0  0  0  0  0  0  0  0
    3.1391    3.4859    5.6027 H   0  0  0  0  0  0  0  0  0  0  0  0
    2.9308    4.5803    6.8708 H   0  0  0  0  0  0  0  0  0  0  0  0
    2.0911    4.8782    5.3576 H   0  0  0  0  0  0  0  0  0  0  0  0
    2.2543    2.0354    8.1595 H   0  0  0  0  0  0  0  0  0  0  0  0
    1.0237   -0.2209    7.2395 H   0  0  0  0  0  0  0  0  0  0  0  0
    1.6814    2.7579    4.3226 H   0  0  0  0  0  0  0  0  0  0  0  0
    0.1747    1.0173    2.5189 H   0  0  0  0  0  0  0  0  0  0  0  0
    1.5250    2.0202    2.3824 H   0  0  0  0  0  0  0  0  0  0  0  0
    1.5272   -0.9425    2.8519 H   0  0  0  0  0  0  0  0  0  0  0  0
    3.3160    0.9315    1.5683 H   0  0  0  0  0  0  0  0  0  0  0  0
    4.7164    0.1421    0.0494 H   0  0  0  0  0  0  0  0  0  0  0  0
    3.0204   -1.0700   -1.3491 H   0  0  0  0  0  0  0  0  0  0  0  0
    4.6409   -1.1558   -1.9639 H   0  0  0  0  0  0  0  0  0  0  0  0
    3.1869   -3.3748   -0.4410 H   0  0  0  0  0  0  0  0  0  0  0  0
    3.5964   -3.3859   -2.1168 H   0  0  0  0  0  0  0  0  0  0  0  0
    5.2075   -4.7282   -0.7166 H   0  0  0  0  0  0  0  0  0  0  0  0
    6.0012   -3.4621   -1.6250 H   0  0  0  0  0  0  0  0  0  0  0  0
    5.3637   -3.4518    1.3616 H   0  0  0  0  0  0  0  0  0  0  0  0
    6.9331   -3.4758    0.6480 H   0  0  0  0  0  0  0  0  0  0  0  0
    6.6513   -1.2158   -0.2707 H   0  0  0  0  0  0  0  0  0  0  0  0
    6.3426   -1.1592    1.4317 H   0  0  0  0  0  0  0  0  0  0  0  0
  1  2  1  0
  1 36  1  0
  1 37  1  0
  1 38  1  0
  2 23  1  0
  2  3  1  0
  2  4  1  0
  3 39  1  0
  3 40  1  0
  3 41  1  0
  4 26  1  0
  4  5  1  0
  4 42  1  6
  6  5  1  6
  5 43  1  0
  5 44  1  0
  6 23  1  0
  6 24  1  0
  6  7  1  0
  7  8  1  0
  7  9  1  0
  7 45  1  6
  8 46  1  0
  9 10  2  0
  9 47  1  0
 10 11  1  0
 10 48  1  0
 11 12  2  0
 13 11  1  6
 13 19  1  0
 13 14  1  0
 13 24  1  0
 14 22  1  0
 14 15  2  0
 15 16  1  0
 15 49  1  0
 16 17  1  0
 16 50  1  0
 16 51  1  0
 17 18  2  0
 17 19  1  0
 19 20  1  6
 19 21  1  0
 20 52  1  0
 20 53  1  0
 20 54  1  0
 21 22  1  0
 21 23  1  0
 21 55  1  1
 23 56  1  1
 24 25  1  0
 24 57  1  6
 25 26  1  0
 25 58  1  0
 25 59  1  0
 26 27  1  0
 26 60  1  6
 27 28  1  0
 27 61  1  0
 28 29  2  0
 28 30  1  0
 30 35  1  0
 30 31  1  0
 30 62  1  0
 31 32  1  0
 31 63  1  0
 31 64  1  0
 32 33  1  0
 32 65  1  0
 32 66  1  0
 33 34  1  0
 33 67  1  0
 33 68  1  0
 34 35  1  0
 34 69  1  0
 34 70  1  0
 35 71  1  0
 35 72  1  0
M  END
>  <i_m_ct_stereo_status>  (29) 
1

>  <s_m_source_file>  (29) 
/var/tmp/pbs.5076255.sched01/tmp0qfm3vo4/0bcu552to.sdf

>  <i_m_source_file_index>  (29) 
11

>  <i_lp_mmshare_version>  (29) 
48012

>  <i_f3d_flags>  (29) 
0

>  <s_epik_input>  (29) 
W0NIMl0xW0NIMl1bQ0gyXVtDSDJdW0NIMl1bQ0hdMUMoPU8pW05IXVtDQEBIXShbQ0BASF0oW0NIMl0yKUMzKFtDSDNdKVtDSDNdKVtDSDJdW0NASF00W0NAXShbQ0BdNShbQ0gzXSlbQ0BASF02W0NASF0zW0NAXTI0NykoQyhPNik9W0NIXVtDSDJdQzU9TylDKD1PKVtDSF09W0NIXVtDQEBIXTdbT0hd

>  <s_epik_cmdline>  (29) 
J2VwaWtfcHl0aG9uJywgJy1waHQnLCAnMi4wJywgJy1waCcsICc3LjAnLCAnLXRuJywgJzgnLCAnLW1hJywgJzIwMCcsICctaW1hZScsICc8aW5maWxlLm1hZT4nLCAnLW9tYWUnLCAnPG91dGZpbGUubWFlPic=

>  <r_lp_tautomer_probability>  (29) 
1

>  <r_epik_Ionization_Penalty>  (29) 
1.78266e-05

>  <r_epik_Ionization_Penalty_Charging>  (29) 
0

>  <r_epik_Ionization_Penalty_Neutral>  (29) 
1.78266e-05

>  <r_epik_State_Penalty>  (29) 
-0

>  <r_epik_Charging_Adjusted_Penalty>  (29) 
0

>  <i_epik_Tot_Q>  (29) 
0

>  <i_epik_Tot_abs_Q>  (29) 
0

>  <s_lp_Force_Field>  (29) 
OPLS3e

>  <r_lp_Energy>  (29) 
466.281

>  <b_lp_Chiralities_Consistent>  (29) 
1

>  <s_lp_Variant>  (29) 
7:0-1

>  <s_i_glide_gridfile>  (29) 
pfpi4k_grid

>  <i_i_glide_lignum>  (29) 
11

>  <i_i_glide_rotatable_bonds>  (29) 
4

>  <r_i_docking_score>  (29) 
-2.38109

>  <r_i_glide_ligand_efficiency>  (29) 
-0.0680311

>  <r_i_glide_ligand_efficiency_sa>  (29) 
-0.222534

>  <r_i_glide_ligand_efficiency_ln>  (29) 
-0.522701

>  <r_i_glide_gscore>  (29) 
-2.38109

>  <r_i_glide_lipo>  (29) 
-0.26691

>  <r_i_glide_hbond>  (29) 
-0.00736656

>  <r_i_glide_metal>  (29) 
-0

>  <r_i_glide_rewards>  (29) 
-0.139038

>  <r_i_glide_evdw>  (29) 
-31.3178

>  <r_i_glide_ecoul>  (29) 
-4.1614

>  <r_i_glide_erotb>  (29) 
0.264403

>  <r_i_glide_esite>  (29) 
-0.0420748

>  <r_i_glide_emodel>  (29) 
-40.0424

>  <r_i_glide_energy>  (29) 
-35.4792

>  <r_i_glide_einternal>  (29) 
1.12177

>  <r_i_glide_intrahb_reward>  (29) 
-0

>  <i_i_glide_confnum>  (29) 
1

>  <i_i_glide_posenum>  (29) 
26

>  <r_i_glide_eff_state_penalty>  (29) 
0

>  <ligand_id>  (29) 
7

>  <original_smiles>  (29) 
CC1(C)C2CC34C(O)C=CC(=O)C5(C6=CCC(=O)C5(C)C(O6)C13)C4CC2NC(=O)C1CCCCC1

>  <smiles>  (29) 
[H]OC1([H])C([H])=C([H])C(=O)C23C4=C([H])C([H])([H])C(=O)C2(C([H])([H])[H])C([H])(O4)C2([H])C(C([H])([H])[H])(C([H])([H])[H])C4([H])C([H])([H])C12C3([H])C([H])([H])C4([H])N([H])C(=O)C1([H])C([H])([H])C([H])([H])C([H])([H])C([H])([H])C1([H])[H]

$$$$
7:0:2
     RDKit          3D

 72 78  0  0  1  0  0  0  0  0999 V2000
    4.1800   -0.8044    6.2832 C   0  0  0  0  0  0  0  0  0  0  0  0
    4.0044    0.6176    5.6720 C   0  0  0  0  0  0  0  0  0  0  0  0
    5.2067    1.3999    6.2722 C   0  0  0  0  0  0  0  0  0  0  0  0
    4.1078    0.4362    4.0613 C   0  0  2  0  0  0  0  0  0  0  0  0
    3.3336    1.5704    4.0541 C   0  0  0  0  0  0  0  0  0  0  0  0
    2.0354    0.9188    4.8336 C   0  0  1  0  0  0  0  0  0  0  0  0
    1.1759   -0.5103    5.0670 C   0  0  1  0  0  0  0  0  0  0  0  0
    1.1565   -1.0179    6.3904 O   0  0  0  0  0  0  0  0  0  0  0  0
   -0.2973   -0.6403    4.5635 C   0  0  0  0  0  0  0  0  0  0  0  0
   -1.2466    0.2376    4.0916 C   0  0  0  0  0  0  0  0  0  0  0  0
   -1.0740    1.7400    4.0323 C   0  0  0  0  0  0  0  0  0  0  0  0
   -1.8488    2.5518    3.5148 O   0  0  0  0  0  0  0  0  0  0  0  0
    0.1583    2.1775    4.7754 C   0  0  2  0  0  0  0  0  0  0  0  0
   -0.1548    1.8028    6.2907 C   0  0  0  0  0  0  0  0  0  0  0  0
   -1.2851    2.2986    6.8029 C   0  0  0  0  0  0  0  0  0  0  0  0
   -1.3672    3.8332    6.7759 C   0  0  0  0  0  0  0  0  0  0  0  0
   -0.2139    4.4610    5.9497 C   0  0  0  0  0  0  0  0  0  0  0  0
   -0.1773    5.6963    5.8779 O   0  0  0  0  0  0  0  0  0  0  0  0
    0.8485    3.5378    5.2252 C   0  0  2  0  0  0  0  0  0  0  0  0
    1.5747    4.4814    4.2131 C   0  0  0  0  0  0  0  0  0  0  0  0
    1.9068    2.8389    6.2612 C   0  0  1  0  0  0  0  0  0  0  0  0
    0.8937    2.2798    7.0487 O   0  0  0  0  0  0  0  0  0  0  0  0
    2.5932    1.3542    6.1027 C   0  0  2  0  0  0  0  0  0  0  0  0
    1.2575    1.5562    3.8230 C   0  0  2  0  0  0  0  0  0  0  0  0
    1.6026    0.4180    2.6714 C   0  0  0  0  0  0  0  0  0  0  0  0
    3.1349   -0.2337    2.9074 C   0  0  1  0  0  0  0  0  0  0  0  0
    3.8452   -0.2183    1.6195 N   0  0  0  0  0  0  0  0  0  0  0  0
    4.0449   -1.3122    0.8872 C   0  0  0  0  0  0  0  0  0  0  0  0
    3.5310   -2.3832    1.2013 O   0  0  0  0  0  0  0  0  0  0  0  0
    4.9642   -1.2082   -0.3546 C   0  0  0  0  0  0  0  0  0  0  0  0
    4.1998   -1.4702   -1.6776 C   0  0  0  0  0  0  0  0  0  0  0  0
    3.8013   -2.9499   -1.8520 C   0  0  0  0  0  0  0  0  0  0  0  0
    5.0313   -3.8651   -1.7114 C   0  0  0  0  0  0  0  0  0  0  0  0
    5.8518   -3.6308   -0.4286 C   0  0  0  0  0  0  0  0  0  0  0  0
    6.2028   -2.1394   -0.2713 C   0  0  0  0  0  0  0  0  0  0  0  0
    5.2150   -1.1465    6.1847 H   0  0  0  0  0  0  0  0  0  0  0  0
    3.5855   -1.5664    5.7797 H   0  0  0  0  0  0  0  0  0  0  0  0
    3.9423   -0.8244    7.3518 H   0  0  0  0  0  0  0  0  0  0  0  0
    5.2002    2.4636    6.0307 H   0  0  0  0  0  0  0  0  0  0  0  0
    6.1602    0.9961    5.9203 H   0  0  0  0  0  0  0  0  0  0  0  0
    5.2066    1.3335    7.3641 H   0  0  0  0  0  0  0  0  0  0  0  0
    5.1248    0.5727    3.6987 H   0  0  0  0  0  0  0  0  0  0  0  0
    3.7805    2.4777    4.4817 H   0  0  0  0  0  0  0  0  0  0  0  0
    3.3790    1.9688    3.0349 H   0  0  0  0  0  0  0  0  0  0  0  0
    1.6504   -1.3617    4.5982 H   0  0  0  0  0  0  0  0  0  0  0  0
    2.0344   -1.2364    6.6244 H   0  0  0  0  0  0  0  0  0  0  0  0
   -0.6149   -1.6863    4.5535 H   0  0  0  0  0  0  0  0  0  0  0  0
   -2.1873   -0.1618    3.7811 H   0  0  0  0  0  0  0  0  0  0  0  0
   -2.2394    1.9460    6.4670 H   0  0  0  0  0  0  0  0  0  0  0  0
   -2.3004    4.1196    6.2994 H   0  0  0  0  0  0  0  0  0  0  0  0
   -1.3889    4.2438    7.7759 H   0  0  0  0  0  0  0  0  0  0  0  0
    2.5119    4.0999    3.8268 H   0  0  0  0  0  0  0  0  0  0  0  0
    1.8848    5.4162    4.6761 H   0  0  0  0  0  0  0  0  0  0  0  0
    0.9384    4.7313    3.3655 H   0  0  0  0  0  0  0  0  0  0  0  0
    2.4961    3.5399    6.8482 H   0  0  0  0  0  0  0  0  0  0  0  0
    2.3788    0.8171    7.0143 H   0  0  0  0  0  0  0  0  0  0  0  0
    1.4822    2.4026    3.2062 H   0  0  0  0  0  0  0  0  0  0  0  0
    0.8512   -0.3412    2.4454 H   0  0  0  0  0  0  0  0  0  0  0  0
    1.5975    0.9714    1.7078 H   0  0  0  0  0  0  0  0  0  0  0  0
    3.0291   -1.2741    3.2005 H   0  0  0  0  0  0  0  0  0  0  0  0
    4.2729    0.6500    1.3351 H   0  0  0  0  0  0  0  0  0  0  0  0
    5.3481   -0.1956   -0.3901 H   0  0  0  0  0  0  0  0  0  0  0  0
    3.3132   -0.8317   -1.7340 H   0  0  0  0  0  0  0  0  0  0  0  0
    4.8264   -1.1697   -2.5173 H   0  0  0  0  0  0  0  0  0  0  0  0
    3.0378   -3.2298   -1.1264 H   0  0  0  0  0  0  0  0  0  0  0  0
    3.3199   -3.0965   -2.8147 H   0  0  0  0  0  0  0  0  0  0  0  0
    4.7043   -4.9036   -1.7235 H   0  0  0  0  0  0  0  0  0  0  0  0
    5.6764   -3.7300   -2.5799 H   0  0  0  0  0  0  0  0  0  0  0  0
    5.3000   -3.9871    0.4412 H   0  0  0  0  0  0  0  0  0  0  0  0
    6.7582   -4.2292   -0.4356 H   0  0  0  0  0  0  0  0  0  0  0  0
    6.8986   -1.8739   -1.0641 H   0  0  0  0  0  0  0  0  0  0  0  0
    6.7509   -1.9683    0.6587 H   0  0  0  0  0  0  0  0  0  0  0  0
  1  2  1  0
  1 36  1  0
  1 37  1  0
  1 38  1  0
  2 23  1  0
  2  3  1  0
  2  4  1  0
  3 39  1  0
  3 40  1  0
  3 41  1  0
  4 26  1  0
  4  5  1  0
  4 42  1  6
  6  5  1  6
  5 43  1  0
  5 44  1  0
  6 23  1  0
  6 24  1  0
  6  7  1  0
  7  8  1  0
  7  9  1  0
  7 45  1  6
  8 46  1  0
  9 10  2  0
  9 47  1  0
 10 11  1  0
 10 48  1  0
 11 12  2  0
 13 11  1  6
 13 19  1  0
 13 14  1  0
 13 24  1  0
 14 22  1  0
 14 15  2  0
 15 16  1  0
 15 49  1  0
 16 17  1  0
 16 50  1  0
 16 51  1  0
 17 18  2  0
 17 19  1  0
 19 20  1  6
 19 21  1  0
 20 52  1  0
 20 53  1  0
 20 54  1  0
 21 22  1  0
 21 23  1  0
 21 55  1  1
 23 56  1  1
 24 25  1  0
 24 57  1  6
 25 26  1  0
 25 58  1  0
 25 59  1  0
 26 27  1  0
 26 60  1  1
 27 28  1  0
 27 61  1  0
 28 29  2  0
 28 30  1  0
 30 35  1  0
 30 31  1  0
 30 62  1  0
 31 32  1  0
 31 63  1  0
 31 64  1  0
 32 33  1  0
 32 65  1  0
 32 66  1  0
 33 34  1  0
 33 67  1  0
 33 68  1  0
 34 35  1  0
 34 69  1  0
 34 70  1  0
 35 71  1  0
 35 72  1  0
M  END
>  <i_m_ct_stereo_status>  (30) 
1

>  <s_m_source_file>  (30) 
/var/tmp/pbs.5076255.sched01/tmp0qfm3vo4/0bcu552to.sdf

>  <i_m_source_file_index>  (30) 
11

>  <i_lp_mmshare_version>  (30) 
48012

>  <i_f3d_flags>  (30) 
0

>  <s_epik_input>  (30) 
W0NIMl0xW0NIMl1bQ0gyXVtDSDJdW0NIMl1bQ0hdMUMoPU8pW05IXVtDQEBIXShbQ0BASF0oW0NIMl0yKUMzKFtDSDNdKVtDSDNdKVtDSDJdW0NASF00W0NAXShbQ0BdNShbQ0gzXSlbQ0BASF02W0NASF0zW0NAXTI0NykoQyhPNik9W0NIXVtDSDJdQzU9TylDKD1PKVtDSF09W0NIXVtDQEBIXTdbT0hd

>  <s_epik_cmdline>  (30) 
J2VwaWtfcHl0aG9uJywgJy1waHQnLCAnMi4wJywgJy1waCcsICc3LjAnLCAnLXRuJywgJzgnLCAnLW1hJywgJzIwMCcsICctaW1hZScsICc8aW5maWxlLm1hZT4nLCAnLW9tYWUnLCAnPG91dGZpbGUubWFlPic=

>  <r_lp_tautomer_probability>  (30) 
1

>  <r_epik_Ionization_Penalty>  (30) 
1.78266e-05

>  <r_epik_Ionization_Penalty_Charging>  (30) 
0

>  <r_epik_Ionization_Penalty_Neutral>  (30) 
1.78266e-05

>  <r_epik_State_Penalty>  (30) 
-0

>  <r_epik_Charging_Adjusted_Penalty>  (30) 
0

>  <i_epik_Tot_Q>  (30) 
0

>  <i_epik_Tot_abs_Q>  (30) 
0

>  <s_lp_Force_Field>  (30) 
OPLS3e

>  <r_lp_Energy>  (30) 
466.281

>  <b_lp_Chiralities_Consistent>  (30) 
1

>  <s_lp_Variant>  (30) 
7:0-1

>  <s_i_glide_gridfile>  (30) 
pfpi4k_grid

>  <i_i_glide_lignum>  (30) 
11

>  <i_i_glide_rotatable_bonds>  (30) 
4

>  <r_i_docking_score>  (30) 
-2.02897

>  <r_i_glide_ligand_efficiency>  (30) 
-0.0579707

>  <r_i_glide_ligand_efficiency_sa>  (30) 
-0.189626

>  <r_i_glide_ligand_efficiency_ln>  (30) 
-0.445405

>  <r_i_glide_gscore>  (30) 
-2.02897

>  <r_i_glide_lipo>  (30) 
-0.0964133

>  <r_i_glide_hbond>  (30) 
-0.00692153

>  <r_i_glide_metal>  (30) 
-0

>  <r_i_glide_rewards>  (30) 
-0.139038

>  <r_i_glide_evdw>  (30) 
-34.3364

>  <r_i_glide_ecoul>  (30) 
-1.8767

>  <r_i_glide_erotb>  (30) 
0.264403

>  <r_i_glide_esite>  (30) 
-0.0526812

>  <r_i_glide_emodel>  (30) 
-39.3599

>  <r_i_glide_energy>  (30) 
-36.2131

>  <r_i_glide_einternal>  (30) 
1.73346

>  <r_i_glide_intrahb_reward>  (30) 
-0

>  <i_i_glide_confnum>  (30) 
1

>  <i_i_glide_posenum>  (30) 
1

>  <r_i_glide_eff_state_penalty>  (30) 
0

>  <ligand_id>  (30) 
7

>  <original_smiles>  (30) 
CC1(C)C2CC34C(O)C=CC(=O)C5(C6=CCC(=O)C5(C)C(O6)C13)C4CC2NC(=O)C1CCCCC1

>  <smiles>  (30) 
[H]OC1([H])C([H])=C([H])C(=O)C23C4=C([H])C([H])([H])C(=O)C2(C([H])([H])[H])C([H])(O4)C2([H])C(C([H])([H])[H])(C([H])([H])[H])C4([H])C([H])([H])C12C3([H])C([H])([H])C4([H])N([H])C(=O)C1([H])C([H])([H])C([H])([H])C([H])([H])C([H])([H])C1([H])[H]

$$$$
8:0:0
     RDKit          3D

 34 37  0  0  1  0  0  0  0  0999 V2000
    2.5795   -4.4929   -0.3124 O   0  0  0  0  0  0  0  0  0  0  0  0
    3.8475   -4.0852    0.1760 C   0  0  2  0  0  0  0  0  0  0  0  0
    3.7740   -3.6276    1.6311 C   0  0  0  0  0  0  0  0  0  0  0  0
    5.1042   -2.9062    1.8555 C   0  0  0  0  0  0  0  0  0  0  0  0
    5.5134   -2.3382    0.4778 C   0  0  1  0  0  0  0  0  0  0  0  0
    6.9398   -2.7015    0.0462 C   0  0  0  0  0  0  0  0  0  0  0  0
    6.8484   -2.8406   -1.4674 C   0  0  0  0  0  0  0  0  0  0  0  0
    5.4736   -3.4661   -1.7299 C   0  0  2  0  0  0  0  0  0  0  0  0
    5.0121   -3.2258   -3.1564 C   0  0  1  0  0  0  0  0  0  0  0  0
    3.5853   -3.3573   -3.6195 C   0  0  0  0  0  0  0  0  0  0  0  0
    4.2215   -1.9913   -3.4808 C   0  0  1  0  0  0  0  0  0  0  0  0
    3.9097   -1.0575   -2.3406 C   0  0  0  0  0  0  0  0  0  0  0  0
    3.5426   -1.8214   -1.0535 C   0  0  0  0  0  0  0  0  0  0  0  0
    4.5476   -2.9220   -0.5940 C   0  0  1  0  0  0  0  0  0  0  0  0
    2.6993   -4.8614   -1.1802 H   0  0  0  0  0  0  0  0  0  0  0  0
    4.4814   -4.9709    0.1728 H   0  0  0  0  0  0  0  0  0  0  0  0
    2.9452   -2.9341    1.7782 H   0  0  0  0  0  0  0  0  0  0  0  0
    3.6412   -4.4654    2.3183 H   0  0  0  0  0  0  0  0  0  0  0  0
    5.0179   -2.1251    2.6142 H   0  0  0  0  0  0  0  0  0  0  0  0
    5.8423   -3.6262    2.2185 H   0  0  0  0  0  0  0  0  0  0  0  0
    5.4320   -1.2493    0.4951 H   0  0  0  0  0  0  0  0  0  0  0  0
    7.6663   -1.9504    0.3573 H   0  0  0  0  0  0  0  0  0  0  0  0
    7.2509   -3.6567    0.4713 H   0  0  0  0  0  0  0  0  0  0  0  0
    6.8999   -1.8571   -1.9262 H   0  0  0  0  0  0  0  0  0  0  0  0
    7.6584   -3.4432   -1.8803 H   0  0  0  0  0  0  0  0  0  0  0  0
    5.5749   -4.5443   -1.6153 H   0  0  0  0  0  0  0  0  0  0  0  0
    5.7557   -3.5311   -3.8935 H   0  0  0  0  0  0  0  0  0  0  0  0
    3.4371   -3.7233   -4.6228 H   0  0  0  0  0  0  0  0  0  0  0  0
    2.8302   -3.6819   -2.9060 H   0  0  0  0  0  0  0  0  0  0  0  0
    4.4618   -1.4813   -4.4167 H   0  0  0  0  0  0  0  0  0  0  0  0
    4.7695   -0.4145   -2.1685 H   0  0  0  0  0  0  0  0  0  0  0  0
    3.0892   -0.4102   -2.6466 H   0  0  0  0  0  0  0  0  0  0  0  0
    3.3587   -1.0936   -0.2607 H   0  0  0  0  0  0  0  0  0  0  0  0
    2.5722   -2.2574   -1.2372 H   0  0  0  0  0  0  0  0  0  0  0  0
  1  2  1  0
  1 15  1  0
  2 14  1  0
  2  3  1  0
  2 16  1  1
  3  4  1  0
  3 17  1  0
  3 18  1  0
  4  5  1  0
  4 19  1  0
  4 20  1  0
  5 14  1  0
  5  6  1  0
  5 21  1  1
  6  7  1  0
  6 22  1  0
  6 23  1  0
  7  8  1  0
  7 24  1  0
  7 25  1  0
  8 14  1  0
  8  9  1  0
  8 26  1  1
  9 11  1  0
  9 10  1  0
  9 27  1  6
 10 11  1  0
 10 28  1  0
 10 29  1  0
 11 12  1  0
 11 30  1  6
 12 13  1  0
 12 31  1  0
 12 32  1  0
 14 13  1  6
 13 33  1  0
 13 34  1  0
M  END
>  <i_m_ct_stereo_status>  (31) 
1

>  <s_m_source_file>  (31) 
/var/tmp/pbs.5076255.sched01/tmp0qfm3vo4/0bcu552to.sdf

>  <i_m_source_file_index>  (31) 
12

>  <i_lp_mmshare_version>  (31) 
48012

>  <i_f3d_flags>  (31) 
0

>  <s_epik_input>  (31) 
W09IXVtDQEBIXTFbQ0gyXVtDSDJdW0NASF0oW0NAXTEyMylbQ0gyXVtDSDJdW0NAQEhdMltDQEBIXTRbQ0BASF0oW0NIMl00KVtDSDJdW0NIMl0z

>  <s_epik_cmdline>  (31) 
J2VwaWtfcHl0aG9uJywgJy1waHQnLCAnMi4wJywgJy1waCcsICc3LjAnLCAnLXRuJywgJzgnLCAnLW1hJywgJzIwMCcsICctaW1hZScsICc8aW5maWxlLm1hZT4nLCAnLW9tYWUnLCAnPG91dGZpbGUubWFlPic=

>  <r_lp_tautomer_probability>  (31) 
1

>  <r_epik_Ionization_Penalty>  (31) 
3.61865e-06

>  <r_epik_Ionization_Penalty_Charging>  (31) 
0

>  <r_epik_Ionization_Penalty_Neutral>  (31) 
3.61865e-06

>  <r_epik_State_Penalty>  (31) 
-0

>  <r_epik_Charging_Adjusted_Penalty>  (31) 
0

>  <i_epik_Tot_Q>  (31) 
0

>  <i_epik_Tot_abs_Q>  (31) 
0

>  <s_lp_Force_Field>  (31) 
OPLS3e

>  <r_lp_Energy>  (31) 
23.1923

>  <b_lp_Chiralities_Consistent>  (31) 
1

>  <s_lp_Variant>  (31) 
8:0-1

>  <s_i_glide_gridfile>  (31) 
pfpi4k_grid

>  <i_i_glide_lignum>  (31) 
12

>  <i_i_glide_rotatable_bonds>  (31) 
1

>  <r_i_docking_score>  (31) 
-4.81503

>  <r_i_glide_ligand_efficiency>  (31) 
-0.34393

>  <r_i_glide_ligand_efficiency_sa>  (31) 
-0.828921

>  <r_i_glide_ligand_efficiency_ln>  (31) 
-1.32315

>  <r_i_glide_gscore>  (31) 
-4.81503

>  <r_i_glide_lipo>  (31) 
-0.888298

>  <r_i_glide_hbond>  (31) 
-0.32

>  <r_i_glide_metal>  (31) 
-0

>  <r_i_glide_rewards>  (31) 
-2.09797

>  <r_i_glide_evdw>  (31) 
-21.7425

>  <r_i_glide_ecoul>  (31) 
-2.81088

>  <r_i_glide_erotb>  (31) 
0

>  <r_i_glide_esite>  (31) 
0

>  <r_i_glide_emodel>  (31) 
-31.7045

>  <r_i_glide_energy>  (31) 
-24.5533

>  <r_i_glide_einternal>  (31) 
0.342485

>  <r_i_glide_intrahb_reward>  (31) 
-0

>  <i_i_glide_confnum>  (31) 
1

>  <i_i_glide_posenum>  (31) 
1

>  <r_i_glide_eff_state_penalty>  (31) 
0

>  <ligand_id>  (31) 
8

>  <original_smiles>  (31) 
OC1CCC2CCC3C4CC4CCC123

>  <smiles>  (31) 
[H]OC1([H])C([H])([H])C([H])([H])C2([H])C([H])([H])C([H])([H])C3([H])C4([H])C([H])([H])C4([H])C([H])([H])C([H])([H])C123

$$$$
8:0:1
     RDKit          3D

 34 37  0  0  1  0  0  0  0  0999 V2000
    2.2751   -4.2499   -0.7157 O   0  0  0  0  0  0  0  0  0  0  0  0
    3.0474   -3.0623   -0.7581 C   0  0  2  0  0  0  0  0  0  0  0  0
    3.2880   -2.5757   -2.1900 C   0  0  0  0  0  0  0  0  0  0  0  0
    4.4043   -1.5401   -2.0412 C   0  0  0  0  0  0  0  0  0  0  0  0
    5.2179   -1.9751   -0.8009 C   0  0  1  0  0  0  0  0  0  0  0  0
    5.4237   -0.8612    0.2364 C   0  0  0  0  0  0  0  0  0  0  0  0
    5.4243   -1.5838    1.5735 C   0  0  0  0  0  0  0  0  0  0  0  0
    4.3899   -2.7037    1.4166 C   0  0  2  0  0  0  0  0  0  0  0  0
    4.5989   -3.8062    2.4390 C   0  0  1  0  0  0  0  0  0  0  0  0
    4.0120   -5.1881    2.3157 C   0  0  0  0  0  0  0  0  0  0  0  0
    5.5004   -4.9565    2.1041 C   0  0  1  0  0  0  0  0  0  0  0  0
    6.1403   -4.9609    0.7344 C   0  0  0  0  0  0  0  0  0  0  0  0
    5.1661   -4.4983   -0.3618 C   0  0  0  0  0  0  0  0  0  0  0  0
    4.4501   -3.1308   -0.0915 C   0  0  1  0  0  0  0  0  0  0  0  0
    2.6252   -4.8600   -1.3575 H   0  0  0  0  0  0  0  0  0  0  0  0
    2.4682   -2.2800   -0.2704 H   0  0  0  0  0  0  0  0  0  0  0  0
    3.6208   -3.3942   -2.8320 H   0  0  0  0  0  0  0  0  0  0  0  0
    2.3862   -2.1448   -2.6312 H   0  0  0  0  0  0  0  0  0  0  0  0
    5.0188   -1.4746   -2.9414 H   0  0  0  0  0  0  0  0  0  0  0  0
    3.9557   -0.5556   -1.8940 H   0  0  0  0  0  0  0  0  0  0  0  0
    6.2016   -2.3225   -1.1189 H   0  0  0  0  0  0  0  0  0  0  0  0
    6.3445   -0.2996    0.0786 H   0  0  0  0  0  0  0  0  0  0  0  0
    4.6002   -0.1454    0.2196 H   0  0  0  0  0  0  0  0  0  0  0  0
    6.4141   -1.9979    1.7635 H   0  0  0  0  0  0  0  0  0  0  0  0
    5.1885   -0.9136    2.4017 H   0  0  0  0  0  0  0  0  0  0  0  0
    3.4160   -2.2605    1.6350 H   0  0  0  0  0  0  0  0  0  0  0  0
    4.6681   -3.4306    3.4627 H   0  0  0  0  0  0  0  0  0  0  0  0
    3.7201   -5.6777    3.2388 H   0  0  0  0  0  0  0  0  0  0  0  0
    3.3659   -5.4002    1.4662 H   0  0  0  0  0  0  0  0  0  0  0  0
    6.1523   -5.3155    2.9043 H   0  0  0  0  0  0  0  0  0  0  0  0
    7.0177   -4.3155    0.7667 H   0  0  0  0  0  0  0  0  0  0  0  0
    6.5031   -5.9668    0.5202 H   0  0  0  0  0  0  0  0  0  0  0  0
    5.6965   -4.4622   -1.3125 H   0  0  0  0  0  0  0  0  0  0  0  0
    4.4553   -5.3084   -0.4962 H   0  0  0  0  0  0  0  0  0  0  0  0
  1  2  1  0
  1 15  1  0
  2 14  1  0
  2  3  1  0
  2 16  1  1
  3  4  1  0
  3 17  1  0
  3 18  1  0
  4  5  1  0
  4 19  1  0
  4 20  1  0
  5 14  1  0
  5  6  1  0
  5 21  1  6
  6  7  1  0
  6 22  1  0
  6 23  1  0
  7  8  1  0
  7 24  1  0
  7 25  1  0
  8 14  1  0
  8  9  1  0
  8 26  1  1
  9 11  1  0
  9 10  1  0
  9 27  1  1
 10 11  1  0
 10 28  1  0
 10 29  1  0
 11 12  1  0
 11 30  1  1
 12 13  1  0
 12 31  1  0
 12 32  1  0
 14 13  1  1
 13 33  1  0
 13 34  1  0
M  END
>  <i_m_ct_stereo_status>  (32) 
1

>  <s_m_source_file>  (32) 
/var/tmp/pbs.5076255.sched01/tmp0qfm3vo4/0bcu552to.sdf

>  <i_m_source_file_index>  (32) 
12

>  <i_lp_mmshare_version>  (32) 
48012

>  <i_f3d_flags>  (32) 
0

>  <s_epik_input>  (32) 
W09IXVtDQEBIXTFbQ0gyXVtDSDJdW0NASF0oW0NAXTEyMylbQ0gyXVtDSDJdW0NAQEhdMltDQEBIXTRbQ0BASF0oW0NIMl00KVtDSDJdW0NIMl0z

>  <s_epik_cmdline>  (32) 
J2VwaWtfcHl0aG9uJywgJy1waHQnLCAnMi4wJywgJy1waCcsICc3LjAnLCAnLXRuJywgJzgnLCAnLW1hJywgJzIwMCcsICctaW1hZScsICc8aW5maWxlLm1hZT4nLCAnLW9tYWUnLCAnPG91dGZpbGUubWFlPic=

>  <r_lp_tautomer_probability>  (32) 
1

>  <r_epik_Ionization_Penalty>  (32) 
3.61865e-06

>  <r_epik_Ionization_Penalty_Charging>  (32) 
0

>  <r_epik_Ionization_Penalty_Neutral>  (32) 
3.61865e-06

>  <r_epik_State_Penalty>  (32) 
-0

>  <r_epik_Charging_Adjusted_Penalty>  (32) 
0

>  <i_epik_Tot_Q>  (32) 
0

>  <i_epik_Tot_abs_Q>  (32) 
0

>  <s_lp_Force_Field>  (32) 
OPLS3e

>  <r_lp_Energy>  (32) 
23.1923

>  <b_lp_Chiralities_Consistent>  (32) 
1

>  <s_lp_Variant>  (32) 
8:0-1

>  <s_i_glide_gridfile>  (32) 
pfpi4k_grid

>  <i_i_glide_lignum>  (32) 
12

>  <i_i_glide_rotatable_bonds>  (32) 
1

>  <r_i_docking_score>  (32) 
-4.3768

>  <r_i_glide_ligand_efficiency>  (32) 
-0.312628

>  <r_i_glide_ligand_efficiency_sa>  (32) 
-0.753479

>  <r_i_glide_ligand_efficiency_ln>  (32) 
-1.20273

>  <r_i_glide_gscore>  (32) 
-4.3768

>  <r_i_glide_lipo>  (32) 
-0.437786

>  <r_i_glide_hbond>  (32) 
-0.32

>  <r_i_glide_metal>  (32) 
-0

>  <r_i_glide_rewards>  (32) 
-2.09797

>  <r_i_glide_evdw>  (32) 
-17.1366

>  <r_i_glide_ecoul>  (32) 
-4.42808

>  <r_i_glide_erotb>  (32) 
0

>  <r_i_glide_esite>  (32) 
0

>  <r_i_glide_emodel>  (32) 
-28.0798

>  <r_i_glide_energy>  (32) 
-21.5646

>  <r_i_glide_einternal>  (32) 
0.157092

>  <r_i_glide_intrahb_reward>  (32) 
-0

>  <i_i_glide_confnum>  (32) 
2

>  <i_i_glide_posenum>  (32) 
6

>  <r_i_glide_eff_state_penalty>  (32) 
0

>  <ligand_id>  (32) 
8

>  <original_smiles>  (32) 
OC1CCC2CCC3C4CC4CCC123

>  <smiles>  (32) 
[H]OC1([H])C([H])([H])C([H])([H])C2([H])C([H])([H])C([H])([H])C3([H])C4([H])C([H])([H])C4([H])C([H])([H])C([H])([H])C123

$$$$
8:0:2
     RDKit          3D

 34 37  0  0  1  0  0  0  0  0999 V2000
    3.0170   -0.9520   -2.3765 O   0  0  0  0  0  0  0  0  0  0  0  0
    4.2411   -1.6479   -2.3279 C   0  0  2  0  0  0  0  0  0  0  0  0
    4.2208   -2.7567   -3.3566 C   0  0  0  0  0  0  0  0  0  0  0  0
    5.4098   -3.6089   -2.9635 C   0  0  0  0  0  0  0  0  0  0  0  0
    5.5949   -3.4281   -1.4407 C   0  0  1  0  0  0  0  0  0  0  0  0
    7.0238   -3.0470   -1.0159 C   0  0  0  0  0  0  0  0  0  0  0  0
    6.8274   -2.1376    0.1922 C   0  0  0  0  0  0  0  0  0  0  0  0
    5.5524   -1.3379   -0.1202 C   0  0  2  0  0  0  0  0  0  0  0  0
    4.9372   -0.7643    1.1415 C   0  0  1  0  0  0  0  0  0  0  0  0
    3.5171   -0.2587    1.2264 C   0  0  0  0  0  0  0  0  0  0  0  0
    3.9151   -1.5642    1.8915 C   0  0  1  0  0  0  0  0  0  0  0  0
    3.5472   -2.9198    1.3251 C   0  0  0  0  0  0  0  0  0  0  0  0
    3.4260   -2.8954   -0.2093 C   0  0  0  0  0  0  0  0  0  0  0  0
    4.6448   -2.2900   -0.9759 C   0  0  1  0  0  0  0  0  0  0  0  0
    2.3935   -1.3064   -1.7543 H   0  0  0  0  0  0  0  0  0  0  0  0
    5.0110   -0.9474   -2.6503 H   0  0  0  0  0  0  0  0  0  0  0  0
    3.3043   -3.3425   -3.2935 H   0  0  0  0  0  0  0  0  0  0  0  0
    4.3076   -2.3676   -4.3689 H   0  0  0  0  0  0  0  0  0  0  0  0
    5.2446   -4.6523   -3.2337 H   0  0  0  0  0  0  0  0  0  0  0  0
    6.2955   -3.2689   -3.5048 H   0  0  0  0  0  0  0  0  0  0  0  0
    5.3423   -4.3663   -0.9377 H   0  0  0  0  0  0  0  0  0  0  0  0
    7.6380   -3.9144   -0.7657 H   0  0  0  0  0  0  0  0  0  0  0  0
    7.5433   -2.4983   -1.8031 H   0  0  0  0  0  0  0  0  0  0  0  0
    6.6812   -2.7530    1.0817 H   0  0  0  0  0  0  0  0  0  0  0  0
    7.6910   -1.5006    0.3825 H   0  0  0  0  0  0  0  0  0  0  0  0
    5.8504   -0.4831   -0.7254 H   0  0  0  0  0  0  0  0  0  0  0  0
    5.6501   -0.2136    1.7558 H   0  0  0  0  0  0  0  0  0  0  0  0
    3.3442    0.5917    1.8693 H   0  0  0  0  0  0  0  0  0  0  0  0
    2.9093   -0.2768    0.3207 H   0  0  0  0  0  0  0  0  0  0  0  0
    3.9732   -1.5347    2.9821 H   0  0  0  0  0  0  0  0  0  0  0  0
    4.2970   -3.6412    1.6449 H   0  0  0  0  0  0  0  0  0  0  0  0
    2.6003   -3.2362    1.7728 H   0  0  0  0  0  0  0  0  0  0  0  0
    3.2077   -3.9029   -0.5636 H   0  0  0  0  0  0  0  0  0  0  0  0
    2.5231   -2.3438   -0.4236 H   0  0  0  0  0  0  0  0  0  0  0  0
  1  2  1  0
  1 15  1  0
  2 14  1  0
  2  3  1  0
  2 16  1  6
  3  4  1  0
  3 17  1  0
  3 18  1  0
  4  5  1  0
  4 19  1  0
  4 20  1  0
  5 14  1  0
  5  6  1  0
  5 21  1  1
  6  7  1  0
  6 22  1  0
  6 23  1  0
  7  8  1  0
  7 24  1  0
  7 25  1  0
  8 14  1  0
  8  9  1  0
  8 26  1  6
  9 11  1  0
  9 10  1  0
  9 27  1  1
 10 11  1  0
 10 28  1  0
 10 29  1  0
 11 12  1  0
 11 30  1  1
 12 13  1  0
 12 31  1  0
 12 32  1  0
 14 13  1  1
 13 33  1  0
 13 34  1  0
M  END
>  <i_m_ct_stereo_status>  (33) 
1

>  <s_m_source_file>  (33) 
/var/tmp/pbs.5076255.sched01/tmp0qfm3vo4/0bcu552to.sdf

>  <i_m_source_file_index>  (33) 
12

>  <i_lp_mmshare_version>  (33) 
48012

>  <i_f3d_flags>  (33) 
0

>  <s_epik_input>  (33) 
W09IXVtDQEBIXTFbQ0gyXVtDSDJdW0NASF0oW0NAXTEyMylbQ0gyXVtDSDJdW0NAQEhdMltDQEBIXTRbQ0BASF0oW0NIMl00KVtDSDJdW0NIMl0z

>  <s_epik_cmdline>  (33) 
J2VwaWtfcHl0aG9uJywgJy1waHQnLCAnMi4wJywgJy1waCcsICc3LjAnLCAnLXRuJywgJzgnLCAnLW1hJywgJzIwMCcsICctaW1hZScsICc8aW5maWxlLm1hZT4nLCAnLW9tYWUnLCAnPG91dGZpbGUubWFlPic=

>  <r_lp_tautomer_probability>  (33) 
1

>  <r_epik_Ionization_Penalty>  (33) 
3.61865e-06

>  <r_epik_Ionization_Penalty_Charging>  (33) 
0

>  <r_epik_Ionization_Penalty_Neutral>  (33) 
3.61865e-06

>  <r_epik_State_Penalty>  (33) 
-0

>  <r_epik_Charging_Adjusted_Penalty>  (33) 
0

>  <i_epik_Tot_Q>  (33) 
0

>  <i_epik_Tot_abs_Q>  (33) 
0

>  <s_lp_Force_Field>  (33) 
OPLS3e

>  <r_lp_Energy>  (33) 
23.1923

>  <b_lp_Chiralities_Consistent>  (33) 
1

>  <s_lp_Variant>  (33) 
8:0-1

>  <s_i_glide_gridfile>  (33) 
pfpi4k_grid

>  <i_i_glide_lignum>  (33) 
12

>  <i_i_glide_rotatable_bonds>  (33) 
1

>  <r_i_docking_score>  (33) 
-4.20588

>  <r_i_glide_ligand_efficiency>  (33) 
-0.30042

>  <r_i_glide_ligand_efficiency_sa>  (33) 
-0.724056

>  <r_i_glide_ligand_efficiency_ln>  (33) 
-1.15576

>  <r_i_glide_gscore>  (33) 
-4.20588

>  <r_i_glide_lipo>  (33) 
-0.598677

>  <r_i_glide_hbond>  (33) 
-0.142672

>  <r_i_glide_metal>  (33) 
-0

>  <r_i_glide_rewards>  (33) 
-2.09797

>  <r_i_glide_evdw>  (33) 
-20.9729

>  <r_i_glide_ecoul>  (33) 
-2.11944

>  <r_i_glide_erotb>  (33) 
0

>  <r_i_glide_esite>  (33) 
0

>  <r_i_glide_emodel>  (33) 
-28.6363

>  <r_i_glide_energy>  (33) 
-23.0923

>  <r_i_glide_einternal>  (33) 
0.481541

>  <r_i_glide_intrahb_reward>  (33) 
-0

>  <i_i_glide_confnum>  (33) 
2

>  <i_i_glide_posenum>  (33) 
10

>  <r_i_glide_eff_state_penalty>  (33) 
0

>  <ligand_id>  (33) 
8

>  <original_smiles>  (33) 
OC1CCC2CCC3C4CC4CCC123

>  <smiles>  (33) 
[H]OC1([H])C([H])([H])C([H])([H])C2([H])C([H])([H])C([H])([H])C3([H])C4([H])C([H])([H])C4([H])C([H])([H])C([H])([H])C123

$$$$
9:0:0
     RDKit          3D

 62 66  0  0  1  0  0  0  0  0999 V2000
    2.5252    4.4859    2.3774 C   0  0  0  0  0  0  0  0  0  0  0  0
    2.3089    4.1605    3.7532 O   0  0  0  0  0  0  0  0  0  0  0  0
    0.9164    4.0830    4.1372 C   0  0  1  0  0  0  0  0  0  0  0  0
    0.2472    5.4407    4.1274 C   0  0  0  0  0  0  0  0  0  0  0  0
   -0.8804    5.4195    3.2605 O   0  0  0  0  0  0  0  0  0  0  0  0
    0.1636    2.8208    3.7588 C   0  0  1  0  0  0  0  0  0  0  0  0
    0.7760    1.6404    3.0724 C   0  0  0  0  0  0  0  0  0  0  0  0
    1.9183    1.1873    4.0133 C   0  0  2  0  0  0  0  0  0  0  0  0
    2.3829   -0.2846    3.8438 C   0  0  2  0  0  0  0  0  0  0  0  0
    2.6967   -0.6151    2.3735 C   0  0  0  0  0  0  0  0  0  0  0  0
    2.7922   -2.0960    2.0663 C   0  0  0  0  0  0  0  0  0  0  0  0
    2.4638   -3.0925    2.9224 C   0  0  0  0  0  0  0  0  0  0  0  0
    2.6668   -4.5761    2.5284 C   0  0  2  0  0  0  0  0  0  0  0  0
    3.1481   -4.8618    0.8340 Cl  0  0  0  0  0  0  0  0  0  0  0  0
    1.4226   -5.3865    2.9005 C   0  0  0  0  0  0  0  0  0  0  0  0
    0.8546   -6.1423    2.0987 O   0  0  0  0  0  0  0  0  0  0  0  0
    0.9009   -5.2199    4.3101 C   0  0  0  0  0  0  0  0  0  0  0  0
    0.6621   -3.7281    4.5991 C   0  0  0  0  0  0  0  0  0  0  0  0
    1.8922   -2.8096    4.3191 C   0  0  1  0  0  0  0  0  0  0  0  0
    3.0063   -3.1320    5.3490 C   0  0  0  0  0  0  0  0  0  0  0  0
    1.4116   -1.3111    4.4669 C   0  0  1  0  0  0  0  0  0  0  0  0
    1.0904   -0.8875    5.9154 C   0  0  0  0  0  0  0  0  0  0  0  0
    0.5160    0.5365    5.9889 C   0  0  0  0  0  0  0  0  0  0  0  0
    1.4551    1.6472    5.4336 C   0  0  1  0  0  0  0  0  0  0  0  0
    2.6708    1.8648    6.3591 C   0  0  0  0  0  0  0  0  0  0  0  0
    0.6681    2.9518    5.1637 C   0  0  1  0  0  0  0  0  0  0  0  0
   -0.2778    3.3631    6.2942 C   0  0  0  0  0  0  0  0  0  0  0  0
    0.2746    3.6571    7.6956 C   0  0  0  0  0  0  0  0  0  0  0  0
   -1.4889    3.5074    6.1054 O   0  0  0  0  0  0  0  0  0  0  0  0
    3.5874    4.6702    2.2206 H   0  0  0  0  0  0  0  0  0  0  0  0
    1.9818    5.3738    2.0620 H   0  0  0  0  0  0  0  0  0  0  0  0
    2.2341    3.6871    1.7073 H   0  0  0  0  0  0  0  0  0  0  0  0
   -0.0439    5.7674    5.1279 H   0  0  0  0  0  0  0  0  0  0  0  0
    0.9220    6.2178    3.7725 H   0  0  0  0  0  0  0  0  0  0  0  0
   -0.5837    5.0927    2.4076 H   0  0  0  0  0  0  0  0  0  0  0  0
   -0.9254    2.8995    3.5948 H   0  0  0  0  0  0  0  0  0  0  0  0
    0.0163    0.8670    2.9532 H   0  0  0  0  0  0  0  0  0  0  0  0
    1.1259    1.8972    2.0781 H   0  0  0  0  0  0  0  0  0  0  0  0
    2.7892    1.7904    3.7592 H   0  0  0  0  0  0  0  0  0  0  0  0
    3.3253   -0.3803    4.3946 H   0  0  0  0  0  0  0  0  0  0  0  0
    1.9393   -0.2237    1.6890 H   0  0  0  0  0  0  0  0  0  0  0  0
    3.6423   -0.1436    2.0954 H   0  0  0  0  0  0  0  0  0  0  0  0
    3.1781   -2.2987    1.0820 H   0  0  0  0  0  0  0  0  0  0  0  0
    3.4905   -4.9609    3.1301 H   0  0  0  0  0  0  0  0  0  0  0  0
   -0.0226   -5.7846    4.4343 H   0  0  0  0  0  0  0  0  0  0  0  0
    1.6220   -5.6402    5.0129 H   0  0  0  0  0  0  0  0  0  0  0  0
   -0.1758   -3.3901    3.9910 H   0  0  0  0  0  0  0  0  0  0  0  0
    0.3257   -3.6330    5.6287 H   0  0  0  0  0  0  0  0  0  0  0  0
    2.6480   -3.0780    6.3752 H   0  0  0  0  0  0  0  0  0  0  0  0
    3.8468   -2.4442    5.2453 H   0  0  0  0  0  0  0  0  0  0  0  0
    3.4051   -4.1382    5.2132 H   0  0  0  0  0  0  0  0  0  0  0  0
    0.4814   -1.2282    3.8949 H   0  0  0  0  0  0  0  0  0  0  0  0
    0.3717   -1.5657    6.3646 H   0  0  0  0  0  0  0  0  0  0  0  0
    1.9867   -0.9222    6.5357 H   0  0  0  0  0  0  0  0  0  0  0  0
   -0.4265    0.5448    5.4403 H   0  0  0  0  0  0  0  0  0  0  0  0
    0.2543    0.7348    7.0316 H   0  0  0  0  0  0  0  0  0  0  0  0
    2.3862    2.1019    7.3826 H   0  0  0  0  0  0  0  0  0  0  0  0
    3.2924    2.6839    5.9978 H   0  0  0  0  0  0  0  0  0  0  0  0
    3.2996    0.9776    6.4174 H   0  0  0  0  0  0  0  0  0  0  0  0
    1.2457    4.1624    7.6302 H   0  0  0  0  0  0  0  0  0  0  0  0
    0.3990    2.7296    8.2658 H   0  0  0  0  0  0  0  0  0  0  0  0
   -0.4021    4.3026    8.2602 H   0  0  0  0  0  0  0  0  0  0  0  0
  1  2  1  0
  1 30  1  0
  1 31  1  0
  1 32  1  0
  3  2  1  6
  3 26  1  0
  3  4  1  0
  3  6  1  0
  4  5  1  0
  4 33  1  0
  4 34  1  0
  5 35  1  0
  6 26  1  0
  6  7  1  0
  6 36  1  1
  7  8  1  0
  7 37  1  0
  7 38  1  0
  8 24  1  0
  8  9  1  0
  8 39  1  6
  9 21  1  0
  9 10  1  0
  9 40  1  1
 10 11  1  0
 10 41  1  0
 10 42  1  0
 11 12  2  0
 11 43  1  0
 12 19  1  0
 12 13  1  0
 13 14  1  0
 13 15  1  0
 13 44  1  1
 15 16  2  0
 15 17  1  0
 17 18  1  0
 17 45  1  0
 17 46  1  0
 18 19  1  0
 18 47  1  0
 18 48  1  0
 19 20  1  1
 19 21  1  0
 20 49  1  0
 20 50  1  0
 20 51  1  0
 21 22  1  0
 21 52  1  6
 22 23  1  0
 22 53  1  0
 22 54  1  0
 23 24  1  0
 23 55  1  0
 23 56  1  0
 24 25  1  1
 24 26  1  0
 25 57  1  0
 25 58  1  0
 25 59  1  0
 26 27  1  1
 27 28  1  0
 27 29  2  0
 28 60  1  0
 28 61  1  0
 28 62  1  0
M  END
>  <i_m_ct_stereo_status>  (34) 
1

>  <s_m_source_file>  (34) 
/var/tmp/pbs.5076255.sched01/tmp0qfm3vo4/0bcu552to.sdf

>  <i_m_source_file_index>  (34) 
13

>  <i_lp_mmshare_version>  (34) 
48012

>  <i_f3d_flags>  (34) 
0

>  <s_epik_input>  (34) 
W0NIM11PW0NAQF0xKFtDSDJdW09IXSlbQ0BASF0oW0NIMl0yKVtDQEBdMShDKD1PKVtDSDNdKVtDQEBdKFtDSDNdKShbQ0gyXVtDSDJdW0NAQEhdMzQpW0NASF0yW0NAQEhdM1tDSDJdW0NIXT1DKFtDQEBdNDVbQ0gzXSlbQ0BIXShDbClDKD1PKVtDSDJdW0NIMl01

>  <s_epik_cmdline>  (34) 
J2VwaWtfcHl0aG9uJywgJy1waHQnLCAnMi4wJywgJy1waCcsICc3LjAnLCAnLXRuJywgJzgnLCAnLW1hJywgJzIwMCcsICctaW1hZScsICc8aW5maWxlLm1hZT4nLCAnLW9tYWUnLCAnPG91dGZpbGUubWFlPic=

>  <r_lp_tautomer_probability>  (34) 
1

>  <r_epik_Ionization_Penalty>  (34) 
5.06017e-08

>  <r_epik_Ionization_Penalty_Charging>  (34) 
0

>  <r_epik_Ionization_Penalty_Neutral>  (34) 
5.06017e-08

>  <r_epik_State_Penalty>  (34) 
-0

>  <r_epik_Charging_Adjusted_Penalty>  (34) 
0

>  <i_epik_Tot_Q>  (34) 
0

>  <i_epik_Tot_abs_Q>  (34) 
0

>  <s_lp_Force_Field>  (34) 
OPLS3e

>  <r_lp_Energy>  (34) 
38.309

>  <b_lp_Chiralities_Consistent>  (34) 
1

>  <s_lp_Variant>  (34) 
9:0-1

>  <s_i_glide_gridfile>  (34) 
pfpi4k_grid

>  <i_i_glide_lignum>  (34) 
13

>  <i_i_glide_rotatable_bonds>  (34) 
4

>  <r_i_docking_score>  (34) 
-2.8424

>  <r_i_glide_ligand_efficiency>  (34) 
-0.0980137

>  <r_i_glide_ligand_efficiency_sa>  (34) 
-0.301129

>  <r_i_glide_ligand_efficiency_ln>  (34) 
-0.650837

>  <r_i_glide_gscore>  (34) 
-2.8424

>  <r_i_glide_lipo>  (34) 
-0.0117606

>  <r_i_glide_hbond>  (34) 
-0.0654381

>  <r_i_glide_metal>  (34) 
-0

>  <r_i_glide_rewards>  (34) 
-0.538847

>  <r_i_glide_evdw>  (34) 
-18.6916

>  <r_i_glide_ecoul>  (34) 
-9.12961

>  <r_i_glide_erotb>  (34) 
0.111713

>  <r_i_glide_esite>  (34) 
-0.0340422

>  <r_i_glide_emodel>  (34) 
-31.3295

>  <r_i_glide_energy>  (34) 
-27.8212

>  <r_i_glide_einternal>  (34) 
3.56369

>  <r_i_glide_intrahb_reward>  (34) 
-0

>  <i_i_glide_confnum>  (34) 
2

>  <i_i_glide_posenum>  (34) 
33

>  <r_i_glide_eff_state_penalty>  (34) 
0

>  <ligand_id>  (34) 
9

>  <original_smiles>  (34) 
COC1(CO)C2CC3C4CC=C5C(Cl)C(=O)CCC5(C)C4CCC3(C)C21C(C)=O

>  <smiles>  (34) 
[H]OC([H])([H])C1(OC([H])([H])[H])C2([H])C([H])([H])C3([H])C4([H])C([H])([H])C([H])=C5C([H])(Cl)C(=O)C([H])([H])C([H])([H])C5(C([H])([H])[H])C4([H])C([H])([H])C([H])([H])C3(C([H])([H])[H])C21C(=O)C([H])([H])[H]

$$$$
9:0:1
     RDKit          3D

 62 66  0  0  1  0  0  0  0  0999 V2000
    0.8811    4.1487    4.7296 C   0  0  0  0  0  0  0  0  0  0  0  0
    0.6505    3.2589    3.6572 O   0  0  0  0  0  0  0  0  0  0  0  0
   -0.5492    2.4808    3.7223 C   0  0  1  0  0  0  0  0  0  0  0  0
   -1.8208    3.3153    3.7874 C   0  0  0  0  0  0  0  0  0  0  0  0
   -1.7879    4.3861    2.8821 O   0  0  0  0  0  0  0  0  0  0  0  0
   -0.5343    1.2325    2.8748 C   0  0  1  0  0  0  0  0  0  0  0  0
    0.6836    0.7793    2.1122 C   0  0  0  0  0  0  0  0  0  0  0  0
    1.7993    0.6079    3.1724 C   0  0  2  0  0  0  0  0  0  0  0  0
    2.9823   -0.3349    2.8020 C   0  0  2  0  0  0  0  0  0  0  0  0
    3.5591   -0.0155    1.4122 C   0  0  0  0  0  0  0  0  0  0  0  0
    4.4534   -1.0846    0.8318 C   0  0  0  0  0  0  0  0  0  0  0  0
    4.6241   -2.3209    1.3441 C   0  0  0  0  0  0  0  0  0  0  0  0
    5.6033   -3.3213    0.7064 C   0  0  2  0  0  0  0  0  0  0  0  0
    6.3450   -2.7989   -0.8405 Cl  0  0  0  0  0  0  0  0  0  0  0  0
    4.9566   -4.7008    0.5931 C   0  0  0  0  0  0  0  0  0  0  0  0
    5.0154   -5.3824   -0.4322 O   0  0  0  0  0  0  0  0  0  0  0  0
    4.2899   -5.2416    1.8411 C   0  0  0  0  0  0  0  0  0  0  0  0
    3.2789   -4.2212    2.3722 C   0  0  0  0  0  0  0  0  0  0  0  0
    3.8586   -2.7914    2.6028 C   0  0  1  0  0  0  0  0  0  0  0  0
    4.8820   -2.8380    3.7681 C   0  0  0  0  0  0  0  0  0  0  0  0
    2.6520   -1.8358    2.9443 C   0  0  1  0  0  0  0  0  0  0  0  0
    2.0280   -2.0800    4.3337 C   0  0  0  0  0  0  0  0  0  0  0  0
    0.7826   -1.2146    4.5661 C   0  0  0  0  0  0  0  0  0  0  0  0
    1.0388    0.3183    4.5031 C   0  0  1  0  0  0  0  0  0  0  0  0
    1.8501    0.7802    5.7280 C   0  0  0  0  0  0  0  0  0  0  0  0
   -0.2982    1.1009    4.3577 C   0  0  1  0  0  0  0  0  0  0  0  0
   -1.4129    0.6450    5.2905 C   0  0  0  0  0  0  0  0  0  0  0  0
   -1.6983    1.4592    6.5675 C   0  0  0  0  0  0  0  0  0  0  0  0
   -2.0943   -0.3519    5.0657 O   0  0  0  0  0  0  0  0  0  0  0  0
    1.8929    4.5301    4.6103 H   0  0  0  0  0  0  0  0  0  0  0  0
    0.8066    3.6570    5.7006 H   0  0  0  0  0  0  0  0  0  0  0  0
    0.1957    4.9950    4.7128 H   0  0  0  0  0  0  0  0  0  0  0  0
   -2.6860    2.6787    3.5453 H   0  0  0  0  0  0  0  0  0  0  0  0
   -1.9917    3.7425    4.7734 H   0  0  0  0  0  0  0  0  0  0  0  0
   -1.1382    4.1969    2.2029 H   0  0  0  0  0  0  0  0  0  0  0  0
   -1.4862    0.8809    2.4642 H   0  0  0  0  0  0  0  0  0  0  0  0
    0.4613   -0.1662    1.6152 H   0  0  0  0  0  0  0  0  0  0  0  0
    0.9383    1.5156    1.3506 H   0  0  0  0  0  0  0  0  0  0  0  0
    2.2615    1.5863    3.2717 H   0  0  0  0  0  0  0  0  0  0  0  0
    3.7811   -0.1274    3.5227 H   0  0  0  0  0  0  0  0  0  0  0  0
    2.7647    0.1325    0.6757 H   0  0  0  0  0  0  0  0  0  0  0  0
    4.1370    0.9027    1.4607 H   0  0  0  0  0  0  0  0  0  0  0  0
    4.9780   -0.7650   -0.0547 H   0  0  0  0  0  0  0  0  0  0  0  0
    6.4430   -3.4420    1.3883 H   0  0  0  0  0  0  0  0  0  0  0  0
    3.7968   -6.1911    1.6178 H   0  0  0  0  0  0  0  0  0  0  0  0
    5.0566   -5.4576    2.5819 H   0  0  0  0  0  0  0  0  0  0  0  0
    2.4589   -4.1653    1.6537 H   0  0  0  0  0  0  0  0  0  0  0  0
    2.8458   -4.6195    3.2909 H   0  0  0  0  0  0  0  0  0  0  0  0
    4.4579   -3.2778    4.6702 H   0  0  0  0  0  0  0  0  0  0  0  0
    5.2415   -1.8382    4.0143 H   0  0  0  0  0  0  0  0  0  0  0  0
    5.7602   -3.4332    3.5179 H   0  0  0  0  0  0  0  0  0  0  0  0
    1.8761   -2.0387    2.2035 H   0  0  0  0  0  0  0  0  0  0  0  0
    1.7332   -3.1226    4.4436 H   0  0  0  0  0  0  0  0  0  0  0  0
    2.7463   -1.8711    5.1248 H   0  0  0  0  0  0  0  0  0  0  0  0
    0.0385   -1.4940    3.8209 H   0  0  0  0  0  0  0  0  0  0  0  0
    0.3612   -1.4898    5.5389 H   0  0  0  0  0  0  0  0  0  0  0  0
    1.3519    0.5510    6.6665 H   0  0  0  0  0  0  0  0  0  0  0  0
    2.0418    1.8453    5.7017 H   0  0  0  0  0  0  0  0  0  0  0  0
    2.8352    0.3098    5.7513 H   0  0  0  0  0  0  0  0  0  0  0  0
   -1.5902    2.5339    6.4099 H   0  0  0  0  0  0  0  0  0  0  0  0
   -1.0134    1.1833    7.3750 H   0  0  0  0  0  0  0  0  0  0  0  0
   -2.7275    1.2895    6.8946 H   0  0  0  0  0  0  0  0  0  0  0  0
  1  2  1  0
  1 30  1  0
  1 31  1  0
  1 32  1  0
  3  2  1  6
  3 26  1  0
  3  4  1  0
  3  6  1  0
  4  5  1  0
  4 33  1  0
  4 34  1  0
  5 35  1  0
  6 26  1  0
  6  7  1  0
  6 36  1  6
  7  8  1  0
  7 37  1  0
  7 38  1  0
  8 24  1  0
  8  9  1  0
  8 39  1  1
  9 21  1  0
  9 10  1  0
  9 40  1  1
 10 11  1  0
 10 41  1  0
 10 42  1  0
 11 12  2  0
 11 43  1  0
 12 19  1  0
 12 13  1  0
 13 14  1  0
 13 15  1  0
 13 44  1  1
 15 16  2  0
 15 17  1  0
 17 18  1  0
 17 45  1  0
 17 46  1  0
 18 19  1  0
 18 47  1  0
 18 48  1  0
 19 20  1  1
 19 21  1  0
 20 49  1  0
 20 50  1  0
 20 51  1  0
 21 22  1  0
 21 52  1  6
 22 23  1  0
 22 53  1  0
 22 54  1  0
 23 24  1  0
 23 55  1  0
 23 56  1  0
 24 25  1  1
 24 26  1  0
 25 57  1  0
 25 58  1  0
 25 59  1  0
 26 27  1  1
 27 28  1  0
 27 29  2  0
 28 60  1  0
 28 61  1  0
 28 62  1  0
M  END
>  <i_m_ct_stereo_status>  (35) 
1

>  <s_m_source_file>  (35) 
/var/tmp/pbs.5076255.sched01/tmp0qfm3vo4/0bcu552to.sdf

>  <i_m_source_file_index>  (35) 
13

>  <i_lp_mmshare_version>  (35) 
48012

>  <i_f3d_flags>  (35) 
0

>  <s_epik_input>  (35) 
W0NIM11PW0NAQF0xKFtDSDJdW09IXSlbQ0BASF0oW0NIMl0yKVtDQEBdMShDKD1PKVtDSDNdKVtDQEBdKFtDSDNdKShbQ0gyXVtDSDJdW0NAQEhdMzQpW0NASF0yW0NAQEhdM1tDSDJdW0NIXT1DKFtDQEBdNDVbQ0gzXSlbQ0BIXShDbClDKD1PKVtDSDJdW0NIMl01

>  <s_epik_cmdline>  (35) 
J2VwaWtfcHl0aG9uJywgJy1waHQnLCAnMi4wJywgJy1waCcsICc3LjAnLCAnLXRuJywgJzgnLCAnLW1hJywgJzIwMCcsICctaW1hZScsICc8aW5maWxlLm1hZT4nLCAnLW9tYWUnLCAnPG91dGZpbGUubWFlPic=

>  <r_lp_tautomer_probability>  (35) 
1

>  <r_epik_Ionization_Penalty>  (35) 
5.06017e-08

>  <r_epik_Ionization_Penalty_Charging>  (35) 
0

>  <r_epik_Ionization_Penalty_Neutral>  (35) 
5.06017e-08

>  <r_epik_State_Penalty>  (35) 
-0

>  <r_epik_Charging_Adjusted_Penalty>  (35) 
0

>  <i_epik_Tot_Q>  (35) 
0

>  <i_epik_Tot_abs_Q>  (35) 
0

>  <s_lp_Force_Field>  (35) 
OPLS3e

>  <r_lp_Energy>  (35) 
38.309

>  <b_lp_Chiralities_Consistent>  (35) 
1

>  <s_lp_Variant>  (35) 
9:0-1

>  <s_i_glide_gridfile>  (35) 
pfpi4k_grid

>  <i_i_glide_lignum>  (35) 
13

>  <i_i_glide_rotatable_bonds>  (35) 
4

>  <r_i_docking_score>  (35) 
-2.64189

>  <r_i_glide_ligand_efficiency>  (35) 
-0.0910996

>  <r_i_glide_ligand_efficiency_sa>  (35) 
-0.279887

>  <r_i_glide_ligand_efficiency_ln>  (35) 
-0.604925

>  <r_i_glide_gscore>  (35) 
-2.64189

>  <r_i_glide_lipo>  (35) 
-0.182387

>  <r_i_glide_hbond>  (35) 
0

>  <r_i_glide_metal>  (35) 
-0

>  <r_i_glide_rewards>  (35) 
-0.616303

>  <r_i_glide_evdw>  (35) 
-26.1295

>  <r_i_glide_ecoul>  (35) 
-4.09357

>  <r_i_glide_erotb>  (35) 
0.111713

>  <r_i_glide_esite>  (35) 
-0.0343999

>  <r_i_glide_emodel>  (35) 
-31.8421

>  <r_i_glide_energy>  (35) 
-30.2231

>  <r_i_glide_einternal>  (35) 
5.79513

>  <r_i_glide_intrahb_reward>  (35) 
-0

>  <i_i_glide_confnum>  (35) 
5

>  <i_i_glide_posenum>  (35) 
27

>  <r_i_glide_eff_state_penalty>  (35) 
0

>  <ligand_id>  (35) 
9

>  <original_smiles>  (35) 
COC1(CO)C2CC3C4CC=C5C(Cl)C(=O)CCC5(C)C4CCC3(C)C21C(C)=O

>  <smiles>  (35) 
[H]OC([H])([H])C1(OC([H])([H])[H])C2([H])C([H])([H])C3([H])C4([H])C([H])([H])C([H])=C5C([H])(Cl)C(=O)C([H])([H])C([H])([H])C5(C([H])([H])[H])C4([H])C([H])([H])C([H])([H])C3(C([H])([H])[H])C21C(=O)C([H])([H])[H]

$$$$
9:0:2
     RDKit          3D

 62 66  0  0  1  0  0  0  0  0999 V2000
    0.5468    4.4128    4.8402 C   0  0  0  0  0  0  0  0  0  0  0  0
    0.1577    3.4481    3.8733 O   0  0  0  0  0  0  0  0  0  0  0  0
   -0.8621    2.5208    4.2771 C   0  0  1  0  0  0  0  0  0  0  0  0
   -2.2102    3.1824    4.5129 C   0  0  0  0  0  0  0  0  0  0  0  0
   -2.9251    3.3274    3.3005 O   0  0  0  0  0  0  0  0  0  0  0  0
   -0.8200    1.2000    3.5478 C   0  0  1  0  0  0  0  0  0  0  0  0
    0.2799    0.8279    2.5875 C   0  0  0  0  0  0  0  0  0  0  0  0
    1.5884    0.9073    3.4115 C   0  0  2  0  0  0  0  0  0  0  0  0
    2.7996    0.0796    2.8896 C   0  0  2  0  0  0  0  0  0  0  0  0
    3.0582    0.3295    1.3967 C   0  0  0  0  0  0  0  0  0  0  0  0
    3.9674   -0.6835    0.7313 C   0  0  0  0  0  0  0  0  0  0  0  0
    4.3942   -1.8339    1.2947 C   0  0  0  0  0  0  0  0  0  0  0  0
    5.3715   -2.7734    0.5495 C   0  0  2  0  0  0  0  0  0  0  0  0
    5.7399   -2.3257   -1.1433 Cl  0  0  0  0  0  0  0  0  0  0  0  0
    4.9128   -4.2297    0.6722 C   0  0  0  0  0  0  0  0  0  0  0  0
    4.8756   -4.9995   -0.2903 O   0  0  0  0  0  0  0  0  0  0  0  0
    4.5730   -4.7106    2.0692 C   0  0  0  0  0  0  0  0  0  0  0  0
    3.5462   -3.7660    2.7125 C   0  0  0  0  0  0  0  0  0  0  0  0
    3.9523   -2.2596    2.7067 C   0  0  1  0  0  0  0  0  0  0  0  0
    5.1643   -2.0554    3.6476 C   0  0  0  0  0  0  0  0  0  0  0  0
    2.7094   -1.4267    3.2103 C   0  0  1  0  0  0  0  0  0  0  0  0
    2.3975   -1.6025    4.7110 C   0  0  0  0  0  0  0  0  0  0  0  0
    1.1090   -0.8716    5.1194 C   0  0  0  0  0  0  0  0  0  0  0  0
    1.1428    0.6648    4.8877 C   0  0  1  0  0  0  0  0  0  0  0  0
    2.1223    1.3324    5.8748 C   0  0  0  0  0  0  0  0  0  0  0  0
   -0.2899    1.2585    4.9502 C   0  0  1  0  0  0  0  0  0  0  0  0
   -1.1310    0.7705    6.1199 C   0  0  0  0  0  0  0  0  0  0  0  0
   -0.9182    1.3927    7.5016 C   0  0  0  0  0  0  0  0  0  0  0  0
   -2.0150   -0.0836    5.9900 O   0  0  0  0  0  0  0  0  0  0  0  0
    1.4674    4.8715    4.4823 H   0  0  0  0  0  0  0  0  0  0  0  0
    0.7327    3.9811    5.8219 H   0  0  0  0  0  0  0  0  0  0  0  0
   -0.1914    5.2024    4.9554 H   0  0  0  0  0  0  0  0  0  0  0  0
   -2.8509    2.5712    5.1567 H   0  0  0  0  0  0  0  0  0  0  0  0
   -2.1161    4.1434    5.0077 H   0  0  0  0  0  0  0  0  0  0  0  0
   -2.9882    2.4863    2.8826 H   0  0  0  0  0  0  0  0  0  0  0  0
   -1.7771    0.6927    3.3720 H   0  0  0  0  0  0  0  0  0  0  0  0
    0.1129   -0.1822    2.2148 H   0  0  0  0  0  0  0  0  0  0  0  0
    0.2824    1.5081    1.7349 H   0  0  0  0  0  0  0  0  0  0  0  0
    1.9179    1.9418    3.3372 H   0  0  0  0  0  0  0  0  0  0  0  0
    3.6808    0.4563    3.4176 H   0  0  0  0  0  0  0  0  0  0  0  0
    2.1302    0.3194    0.8236 H   0  0  0  0  0  0  0  0  0  0  0  0
    3.4986    1.3205    1.2839 H   0  0  0  0  0  0  0  0  0  0  0  0
    4.2690   -0.4000   -0.2640 H   0  0  0  0  0  0  0  0  0  0  0  0
    6.3285   -2.7184    1.0650 H   0  0  0  0  0  0  0  0  0  0  0  0
    4.1858   -5.7283    2.0310 H   0  0  0  0  0  0  0  0  0  0  0  0
    5.4883   -4.7473    2.6591 H   0  0  0  0  0  0  0  0  0  0  0  0
    2.6063   -3.8866    2.1720 H   0  0  0  0  0  0  0  0  0  0  0  0
    3.3538   -4.1160    3.7259 H   0  0  0  0  0  0  0  0  0  0  0  0
    4.9903   -2.4513    4.6469 H   0  0  0  0  0  0  0  0  0  0  0  0
    5.4252   -1.0000    3.7391 H   0  0  0  0  0  0  0  0  0  0  0  0
    6.0422   -2.5656    3.2592 H   0  0  0  0  0  0  0  0  0  0  0  0
    1.8437   -1.7982    2.6548 H   0  0  0  0  0  0  0  0  0  0  0  0
    2.2818   -2.6532    4.9610 H   0  0  0  0  0  0  0  0  0  0  0  0
    3.2162   -1.2241    5.3240 H   0  0  0  0  0  0  0  0  0  0  0  0
    0.2806   -1.3152    4.5645 H   0  0  0  0  0  0  0  0  0  0  0  0
    0.9198   -1.0901    6.1735 H   0  0  0  0  0  0  0  0  0  0  0  0
    1.8458    1.1534    6.9130 H   0  0  0  0  0  0  0  0  0  0  0  0
    2.1842    2.4011    5.7238 H   0  0  0  0  0  0  0  0  0  0  0  0
    3.1404    0.9671    5.7437 H   0  0  0  0  0  0  0  0  0  0  0  0
   -0.7112    2.4649    7.4132 H   0  0  0  0  0  0  0  0  0  0  0  0
   -0.0851    0.9100    8.0190 H   0  0  0  0  0  0  0  0  0  0  0  0
   -1.8137    1.2791    8.1163 H   0  0  0  0  0  0  0  0  0  0  0  0
  1  2  1  0
  1 30  1  0
  1 31  1  0
  1 32  1  0
  3  2  1  6
  3 26  1  0
  3  4  1  0
  3  6  1  0
  4  5  1  0
  4 33  1  0
  4 34  1  0
  5 35  1  0
  6 26  1  0
  6  7  1  0
  6 36  1  1
  7  8  1  0
  7 37  1  0
  7 38  1  0
  8 24  1  0
  8  9  1  0
  8 39  1  1
  9 21  1  0
  9 10  1  0
  9 40  1  1
 10 11  1  0
 10 41  1  0
 10 42  1  0
 11 12  2  0
 11 43  1  0
 12 19  1  0
 12 13  1  0
 13 14  1  0
 13 15  1  0
 13 44  1  1
 15 16  2  0
 15 17  1  0
 17 18  1  0
 17 45  1  0
 17 46  1  0
 18 19  1  0
 18 47  1  0
 18 48  1  0
 19 20  1  1
 19 21  1  0
 20 49  1  0
 20 50  1  0
 20 51  1  0
 21 22  1  0
 21 52  1  6
 22 23  1  0
 22 53  1  0
 22 54  1  0
 23 24  1  0
 23 55  1  0
 23 56  1  0
 24 25  1  1
 24 26  1  0
 25 57  1  0
 25 58  1  0
 25 59  1  0
 26 27  1  1
 27 28  1  0
 27 29  2  0
 28 60  1  0
 28 61  1  0
 28 62  1  0
M  END
>  <i_m_ct_stereo_status>  (36) 
1

>  <s_m_source_file>  (36) 
/var/tmp/pbs.5076255.sched01/tmp0qfm3vo4/0bcu552to.sdf

>  <i_m_source_file_index>  (36) 
13

>  <i_lp_mmshare_version>  (36) 
48012

>  <i_f3d_flags>  (36) 
0

>  <s_epik_input>  (36) 
W0NIM11PW0NAQF0xKFtDSDJdW09IXSlbQ0BASF0oW0NIMl0yKVtDQEBdMShDKD1PKVtDSDNdKVtDQEBdKFtDSDNdKShbQ0gyXVtDSDJdW0NAQEhdMzQpW0NASF0yW0NAQEhdM1tDSDJdW0NIXT1DKFtDQEBdNDVbQ0gzXSlbQ0BIXShDbClDKD1PKVtDSDJdW0NIMl01

>  <s_epik_cmdline>  (36) 
J2VwaWtfcHl0aG9uJywgJy1waHQnLCAnMi4wJywgJy1waCcsICc3LjAnLCAnLXRuJywgJzgnLCAnLW1hJywgJzIwMCcsICctaW1hZScsICc8aW5maWxlLm1hZT4nLCAnLW9tYWUnLCAnPG91dGZpbGUubWFlPic=

>  <r_lp_tautomer_probability>  (36) 
1

>  <r_epik_Ionization_Penalty>  (36) 
5.06017e-08

>  <r_epik_Ionization_Penalty_Charging>  (36) 
0

>  <r_epik_Ionization_Penalty_Neutral>  (36) 
5.06017e-08

>  <r_epik_State_Penalty>  (36) 
-0

>  <r_epik_Charging_Adjusted_Penalty>  (36) 
0

>  <i_epik_Tot_Q>  (36) 
0

>  <i_epik_Tot_abs_Q>  (36) 
0

>  <s_lp_Force_Field>  (36) 
OPLS3e

>  <r_lp_Energy>  (36) 
38.309

>  <b_lp_Chiralities_Consistent>  (36) 
1

>  <s_lp_Variant>  (36) 
9:0-1

>  <s_i_glide_gridfile>  (36) 
pfpi4k_grid

>  <i_i_glide_lignum>  (36) 
13

>  <i_i_glide_rotatable_bonds>  (36) 
4

>  <r_i_docking_score>  (36) 
-2.55237

>  <r_i_glide_ligand_efficiency>  (36) 
-0.0880127

>  <r_i_glide_ligand_efficiency_sa>  (36) 
-0.270403

>  <r_i_glide_ligand_efficiency_ln>  (36) 
-0.584428

>  <r_i_glide_gscore>  (36) 
-2.55237

>  <r_i_glide_lipo>  (36) 
-0.233766

>  <r_i_glide_hbond>  (36) 
-0.16

>  <r_i_glide_metal>  (36) 
-0

>  <r_i_glide_rewards>  (36) 
-0.594347

>  <r_i_glide_evdw>  (36) 
-24.7073

>  <r_i_glide_ecoul>  (36) 
-2.64945

>  <r_i_glide_erotb>  (36) 
0.111713

>  <r_i_glide_esite>  (36) 
-0.0431877

>  <r_i_glide_emodel>  (36) 
-32.0954

>  <r_i_glide_energy>  (36) 
-27.3567

>  <r_i_glide_einternal>  (36) 
0.927475

>  <r_i_glide_intrahb_reward>  (36) 
-0

>  <i_i_glide_confnum>  (36) 
2

>  <i_i_glide_posenum>  (36) 
8

>  <r_i_glide_eff_state_penalty>  (36) 
0

>  <ligand_id>  (36) 
9

>  <original_smiles>  (36) 
COC1(CO)C2CC3C4CC=C5C(Cl)C(=O)CCC5(C)C4CCC3(C)C21C(C)=O

>  <smiles>  (36) 
[H]OC([H])([H])C1(OC([H])([H])[H])C2([H])C([H])([H])C3([H])C4([H])C([H])([H])C([H])=C5C([H])(Cl)C(=O)C([H])([H])C([H])([H])C5(C([H])([H])[H])C4([H])C([H])([H])C([H])([H])C3(C([H])([H])[H])C21C(=O)C([H])([H])[H]

$$$$
10:0:0
     RDKit          3D

 62 68  0  0  1  0  0  0  0  0999 V2000
    3.5970   -6.0672    7.0665 C   0  0  0  0  0  0  0  0  0  0  0  0
    2.7666   -5.9149    5.8050 C   0  0  0  0  0  0  0  0  0  0  0  0
    1.8818   -4.9126    5.6483 C   0  0  0  0  0  0  0  0  0  0  0  0
    1.0426   -4.6776    4.3978 C   0  0  1  0  0  0  0  0  0  0  0  0
    0.8141   -3.1697    4.1738 C   0  0  0  0  0  0  0  0  0  0  0  0
    1.6058   -5.4783    3.1721 C   0  0  1  0  0  0  0  0  0  0  0  0
    0.6656   -5.8522    2.1550 O   0  0  0  0  0  0  0  0  0  0  0  0
    1.2882   -6.8470    1.3831 C   0  0  1  0  0  0  0  0  0  0  0  0
    2.1796   -6.2494    0.4880 O   0  0  0  0  0  0  0  0  0  0  0  0
    2.5833   -4.9292    0.8078 C   0  0  2  0  0  0  0  0  0  0  0  0
    3.8026   -4.5005    0.0079 C   0  0  0  0  0  0  0  0  0  0  0  0
    5.0340   -5.2852    0.4423 C   0  0  1  0  0  0  0  0  0  0  0  0
    6.1595   -4.6438   -0.1346 O   0  0  0  0  0  0  0  0  0  0  0  0
    7.2704   -4.8257    0.7092 C   0  0  1  0  0  0  0  0  0  0  0  0
    8.3520   -3.8003    0.3537 C   0  0  0  0  0  0  0  0  0  0  0  0
    6.6485   -4.6512    2.0922 C   0  0  0  0  0  0  0  0  0  0  0  0
    5.2708   -5.3124    1.9713 C   0  0  1  0  0  0  0  0  0  0  0  0
    4.1727   -4.6380    2.8194 C   0  0  0  0  0  0  0  0  0  0  0  0
    4.4645   -4.0586    3.8711 O   0  0  0  0  0  0  0  0  0  0  0  0
    2.7063   -4.6879    2.3378 C   0  0  2  0  0  0  0  0  0  0  0  0
    2.0926   -7.7393    2.3868 C   0  0  2  0  0  0  0  0  0  0  0  0
    3.4495   -7.9256    2.0200 O   0  0  0  0  0  0  0  0  0  0  0  0
    1.4469   -9.1529    2.5994 C   0  0  0  0  0  0  0  0  0  0  0  0
    0.4413   -9.0347    3.7401 C   0  0  2  0  0  0  0  0  0  0  0  0
    0.5412  -10.2103    4.7049 C   0  0  0  0  0  0  0  0  0  0  0  0
   -0.9584   -8.5502    3.3706 C   0  0  0  0  0  0  0  0  0  0  0  0
   -0.6788   -7.2396    3.8066 O   0  0  0  0  0  0  0  0  0  0  0  0
    0.6076   -7.6340    4.2990 C   0  0  2  0  0  0  0  0  0  0  0  0
    1.8692   -6.9389    3.6708 C   0  0  2  0  0  0  0  0  0  0  0  0
    2.9915   -6.9783    4.7355 C   0  0  0  0  0  0  0  0  0  0  0  0
    4.6598   -6.0796    6.8226 H   0  0  0  0  0  0  0  0  0  0  0  0
    3.3537   -6.9918    7.5893 H   0  0  0  0  0  0  0  0  0  0  0  0
    3.4208   -5.2366    7.7514 H   0  0  0  0  0  0  0  0  0  0  0  0
    1.7503   -4.1902    6.4419 H   0  0  0  0  0  0  0  0  0  0  0  0
    0.0593   -5.0707    4.6427 H   0  0  0  0  0  0  0  0  0  0  0  0
    0.2288   -2.7597    5.0029 H   0  0  0  0  0  0  0  0  0  0  0  0
    0.2564   -2.9719    3.2635 H   0  0  0  0  0  0  0  0  0  0  0  0
    1.7493   -2.6081    4.1457 H   0  0  0  0  0  0  0  0  0  0  0  0
    0.5488   -7.4156    0.8183 H   0  0  0  0  0  0  0  0  0  0  0  0
    1.8133   -4.2698    0.4302 H   0  0  0  0  0  0  0  0  0  0  0  0
    3.6361   -4.6411   -1.0643 H   0  0  0  0  0  0  0  0  0  0  0  0
    3.9708   -3.4292    0.1390 H   0  0  0  0  0  0  0  0  0  0  0  0
    4.9717   -6.3138    0.0833 H   0  0  0  0  0  0  0  0  0  0  0  0
    7.6436   -5.8463    0.6010 H   0  0  0  0  0  0  0  0  0  0  0  0
    9.2166   -3.8797    1.0091 H   0  0  0  0  0  0  0  0  0  0  0  0
    7.9651   -2.7842    0.4297 H   0  0  0  0  0  0  0  0  0  0  0  0
    8.6902   -3.9388   -0.6747 H   0  0  0  0  0  0  0  0  0  0  0  0
    7.2482   -5.1250    2.8663 H   0  0  0  0  0  0  0  0  0  0  0  0
    6.5467   -3.5906    2.3056 H   0  0  0  0  0  0  0  0  0  0  0  0
    5.3683   -6.3446    2.2885 H   0  0  0  0  0  0  0  0  0  0  0  0
    2.4309   -3.6373    2.4028 H   0  0  0  0  0  0  0  0  0  0  0  0
    3.8330   -8.5493    2.5906 H   0  0  0  0  0  0  0  0  0  0  0  0
    1.0060   -9.5448    1.6830 H   0  0  0  0  0  0  0  0  0  0  0  0
    2.2246   -9.8668    2.8768 H   0  0  0  0  0  0  0  0  0  0  0  0
   -0.1540  -10.0846    5.5411 H   0  0  0  0  0  0  0  0  0  0  0  0
    1.5319  -10.3106    5.1449 H   0  0  0  0  0  0  0  0  0  0  0  0
    0.2836  -11.1562    4.2328 H   0  0  0  0  0  0  0  0  0  0  0  0
   -1.1681   -8.6208    2.2912 H   0  0  0  0  0  0  0  0  0  0  0  0
   -1.7582   -9.0336    3.9455 H   0  0  0  0  0  0  0  0  0  0  0  0
    0.6107   -7.6564    5.3998 H   0  0  0  0  0  0  0  0  0  0  0  0
    3.9792   -6.8313    4.3039 H   0  0  0  0  0  0  0  0  0  0  0  0
    3.0237   -7.9673    5.1985 H   0  0  0  0  0  0  0  0  0  0  0  0
  1  2  1  0
  1 31  1  0
  1 32  1  0
  1 33  1  0
  2 30  1  0
  2  3  2  0
  3  4  1  0
  3 34  1  0
  4  5  1  0
  4  6  1  0
  4 35  1  1
  5 36  1  0
  5 37  1  0
  5 38  1  0
  6 20  1  0
  6 29  1  0
  6  7  1  6
  7  8  1  0
  8  9  1  0
  8 21  1  0
  8 39  1  6
  9 10  1  0
 10 20  1  0
 10 11  1  0
 10 40  1  6
 11 12  1  0
 11 41  1  0
 11 42  1  0
 12 17  1  0
 12 13  1  0
 12 43  1  6
 13 14  1  0
 14 15  1  0
 14 16  1  0
 14 44  1  1
 15 45  1  0
 15 46  1  0
 15 47  1  0
 16 17  1  0
 16 48  1  0
 16 49  1  0
 17 18  1  0
 17 50  1  1
 18 19  2  0
 18 20  1  0
 20 51  1  6
 21 29  1  0
 21 22  1  6
 21 23  1  0
 22 52  1  0
 23 24  1  0
 23 53  1  0
 23 54  1  0
 24 28  1  0
 24 25  1  1
 24 26  1  0
 25 55  1  0
 25 56  1  0
 25 57  1  0
 26 27  1  0
 26 58  1  0
 26 59  1  0
 27 28  1  0
 28 29  1  0
 28 60  1  1
 29 30  1  1
 30 61  1  0
 30 62  1  0
M  END
>  <i_m_ct_stereo_status>  (37) 
1

>  <s_m_source_file>  (37) 
/var/tmp/pbs.5076255.sched01/tmp0qfm3vo4/0bcu552to.sdf

>  <i_m_source_file_index>  (37) 
14

>  <i_lp_mmshare_version>  (37) 
48012

>  <i_f3d_flags>  (37) 
0

>  <s_epik_input>  (37) 
W0NIM11bQ0BASF0xW0NIXT1DKFtDSDNdKVtDSDJdW0NAQF0yKFtDQF0xMzQpW0NAQF0oW09IXSkoW0NIMl1bQ0BAXTUoW0NIM10pW0NAQEhdMk9bQ0gyXTUpW0NAQEhdKE8zKU9bQ0BIXTZbQ0BASF00Qyg9TylbQ0BIXTdbQ0BASF0oW0NIMl02KU9bQ0BASF0oW0NIM10pW0NIMl03

>  <s_epik_cmdline>  (37) 
J2VwaWtfcHl0aG9uJywgJy1waHQnLCAnMi4wJywgJy1waCcsICc3LjAnLCAnLXRuJywgJzgnLCAnLW1hJywgJzIwMCcsICctaW1hZScsICc8aW5maWxlLm1hZT4nLCAnLW9tYWUnLCAnPG91dGZpbGUubWFlPic=

>  <r_lp_tautomer_probability>  (37) 
1

>  <r_epik_Ionization_Penalty>  (37) 
7.08716e-07

>  <r_epik_Ionization_Penalty_Charging>  (37) 
0

>  <r_epik_Ionization_Penalty_Neutral>  (37) 
7.08716e-07

>  <r_epik_State_Penalty>  (37) 
-0

>  <r_epik_Charging_Adjusted_Penalty>  (37) 
0

>  <i_epik_Tot_Q>  (37) 
0

>  <i_epik_Tot_abs_Q>  (37) 
0

>  <s_epik_Chemistry_Notes>  (37) 
This compound contains an acetal/aminal-like group ( X-CH(R)-Y where X, Y are N, S, or O) that may be acid/base labile, releasing an aldehyde.

>  <s_lp_Force_Field>  (37) 
OPLS3e

>  <r_lp_Energy>  (37) 
35.4721

>  <b_lp_Chiralities_Consistent>  (37) 
1

>  <s_lp_Variant>  (37) 
10:0-1

>  <s_i_glide_gridfile>  (37) 
pfpi4k_grid

>  <i_i_glide_lignum>  (37) 
14

>  <i_i_glide_rotatable_bonds>  (37) 
1

>  <r_i_docking_score>  (37) 
-3.0674

>  <r_i_glide_ligand_efficiency>  (37) 
-0.102247

>  <r_i_glide_ligand_efficiency_sa>  (37) 
-0.317704

>  <r_i_glide_ligand_efficiency_ln>  (37) 
-0.696946

>  <r_i_glide_gscore>  (37) 
-3.0674

>  <r_i_glide_lipo>  (37) 
-0.507611

>  <r_i_glide_hbond>  (37) 
-0.153055

>  <r_i_glide_metal>  (37) 
-0

>  <r_i_glide_rewards>  (37) 
-0.570452

>  <r_i_glide_evdw>  (37) 
-20.5534

>  <r_i_glide_ecoul>  (37) 
-4.99731

>  <r_i_glide_erotb>  (37) 
0

>  <r_i_glide_esite>  (37) 
-0.0590123

>  <r_i_glide_emodel>  (37) 
-30.6157

>  <r_i_glide_energy>  (37) 
-25.5507

>  <r_i_glide_einternal>  (37) 
0.0735144

>  <r_i_glide_intrahb_reward>  (37) 
-0

>  <i_i_glide_confnum>  (37) 
1

>  <i_i_glide_posenum>  (37) 
30

>  <r_i_glide_eff_state_penalty>  (37) 
0

>  <ligand_id>  (37) 
10

>  <original_smiles>  (37) 
CC1=CC(C)C23OC(OC4CC5OC(C)CC5C(=O)C42)C2(O)CC4(C)COC4C23C1

>  <smiles>  (37) 
[H]OC12C3([H])OC4([H])C([H])([H])C5([H])OC([H])(C([H])([H])[H])C([H])([H])C5([H])C(=O)C4([H])C4(O3)C([H])(C([H])([H])[H])C([H])=C(C([H])([H])[H])C([H])([H])C14C1([H])OC([H])([H])C1(C([H])([H])[H])C2([H])[H]

$$$$
10:0:1
     RDKit          3D

 62 68  0  0  1  0  0  0  0  0999 V2000
    5.5854   -9.5778    1.5175 C   0  0  0  0  0  0  0  0  0  0  0  0
    4.8301   -8.5318    2.3146 C   0  0  0  0  0  0  0  0  0  0  0  0
    5.3564   -7.9957    3.4351 C   0  0  0  0  0  0  0  0  0  0  0  0
    4.6856   -6.9249    4.2786 C   0  0  1  0  0  0  0  0  0  0  0  0
    5.7292   -5.9831    4.8969 C   0  0  0  0  0  0  0  0  0  0  0  0
    3.5223   -6.2360    3.4921 C   0  0  1  0  0  0  0  0  0  0  0  0
    2.4705   -5.6821    4.2792 O   0  0  0  0  0  0  0  0  0  0  0  0
    1.3886   -5.4659    3.4018 C   0  0  1  0  0  0  0  0  0  0  0  0
    1.6032   -4.3172    2.6468 O   0  0  0  0  0  0  0  0  0  0  0  0
    2.9361   -3.8186    2.6816 C   0  0  2  0  0  0  0  0  0  0  0  0
    3.1401   -2.7665    1.5966 C   0  0  0  0  0  0  0  0  0  0  0  0
    3.0437   -3.3805    0.1999 C   0  0  1  0  0  0  0  0  0  0  0  0
    3.5143   -2.4251   -0.7350 O   0  0  0  0  0  0  0  0  0  0  0  0
    4.0870   -3.0978   -1.8300 C   0  0  1  0  0  0  0  0  0  0  0  0
    4.9869   -2.1283   -2.6080 C   0  0  0  0  0  0  0  0  0  0  0  0
    4.8332   -4.2548   -1.1594 C   0  0  0  0  0  0  0  0  0  0  0  0
    3.8955   -4.6584   -0.0113 C   0  0  1  0  0  0  0  0  0  0  0  0
    4.6315   -5.1706    1.2466 C   0  0  0  0  0  0  0  0  0  0  0  0
    5.7216   -5.7283    1.1413 O   0  0  0  0  0  0  0  0  0  0  0  0
    3.9800   -4.9743    2.6374 C   0  0  2  0  0  0  0  0  0  0  0  0
    1.3655   -6.6783    2.4188 C   0  0  2  0  0  0  0  0  0  0  0  0
    1.3113   -6.2832    1.0478 O   0  0  0  0  0  0  0  0  0  0  0  0
    0.1790   -7.6649    2.6531 C   0  0  0  0  0  0  0  0  0  0  0  0
    0.6389   -8.6988    3.6669 C   0  0  2  0  0  0  0  0  0  0  0  0
    0.2109  -10.1087    3.2851 C   0  0  0  0  0  0  0  0  0  0  0  0
    0.5006   -8.3182    5.1377 C   0  0  0  0  0  0  0  0  0  0  0  0
    1.8661   -7.9708    5.2288 O   0  0  0  0  0  0  0  0  0  0  0  0
    2.1172   -8.4304    3.8969 C   0  0  2  0  0  0  0  0  0  0  0  0
    2.6517   -7.3777    2.8557 C   0  0  2  0  0  0  0  0  0  0  0  0
    3.4540   -8.1561    1.7916 C   0  0  0  0  0  0  0  0  0  0  0  0
    5.6860   -9.2444    0.4873 H   0  0  0  0  0  0  0  0  0  0  0  0
    5.0503  -10.5213    1.5292 H   0  0  0  0  0  0  0  0  0  0  0  0
    6.5791   -9.7451    1.9122 H   0  0  0  0  0  0  0  0  0  0  0  0
    6.3296   -8.3186    3.7736 H   0  0  0  0  0  0  0  0  0  0  0  0
    4.2569   -7.4608    5.1227 H   0  0  0  0  0  0  0  0  0  0  0  0
    6.3637   -6.5457    5.5930 H   0  0  0  0  0  0  0  0  0  0  0  0
    5.2641   -5.1751    5.4611 H   0  0  0  0  0  0  0  0  0  0  0  0
    6.3974   -5.5555    4.1485 H   0  0  0  0  0  0  0  0  0  0  0  0
    0.4664   -5.3597    3.9730 H   0  0  0  0  0  0  0  0  0  0  0  0
    3.0449   -3.3159    3.6480 H   0  0  0  0  0  0  0  0  0  0  0  0
    2.4096   -1.9522    1.6899 H   0  0  0  0  0  0  0  0  0  0  0  0
    4.1242   -2.2963    1.7219 H   0  0  0  0  0  0  0  0  0  0  0  0
    2.0048   -3.6268   -0.0386 H   0  0  0  0  0  0  0  0  0  0  0  0
    3.2924   -3.4889   -2.4674 H   0  0  0  0  0  0  0  0  0  0  0  0
    5.4630   -2.6174   -3.4493 H   0  0  0  0  0  0  0  0  0  0  0  0
    5.7588   -1.7156   -1.9605 H   0  0  0  0  0  0  0  0  0  0  0  0
    4.4003   -1.2885   -2.9867 H   0  0  0  0  0  0  0  0  0  0  0  0
    4.9977   -5.0720   -1.8516 H   0  0  0  0  0  0  0  0  0  0  0  0
    5.7952   -3.9115   -0.7886 H   0  0  0  0  0  0  0  0  0  0  0  0
    3.2534   -5.4478   -0.3750 H   0  0  0  0  0  0  0  0  0  0  0  0
    4.8028   -4.5211    3.1856 H   0  0  0  0  0  0  0  0  0  0  0  0
    2.1320   -5.9155    0.8389 H   0  0  0  0  0  0  0  0  0  0  0  0
   -0.7344   -7.1482    2.9629 H   0  0  0  0  0  0  0  0  0  0  0  0
   -0.0593   -8.1677    1.7152 H   0  0  0  0  0  0  0  0  0  0  0  0
    0.5930  -10.8382    4.0091 H   0  0  0  0  0  0  0  0  0  0  0  0
    0.6072  -10.4053    2.3093 H   0  0  0  0  0  0  0  0  0  0  0  0
   -0.8614  -10.2222    3.2740 H   0  0  0  0  0  0  0  0  0  0  0  0
   -0.1748   -7.4588    5.3055 H   0  0  0  0  0  0  0  0  0  0  0  0
    0.2232   -9.1596    5.7776 H   0  0  0  0  0  0  0  0  0  0  0  0
    2.6848   -9.3735    3.9096 H   0  0  0  0  0  0  0  0  0  0  0  0
    3.5747   -7.5852    0.8668 H   0  0  0  0  0  0  0  0  0  0  0  0
    2.9026   -9.0538    1.5060 H   0  0  0  0  0  0  0  0  0  0  0  0
  1  2  1  0
  1 31  1  0
  1 32  1  0
  1 33  1  0
  2 30  1  0
  2  3  2  0
  3  4  1  0
  3 34  1  0
  4  5  1  0
  4  6  1  0
  4 35  1  1
  5 36  1  0
  5 37  1  0
  5 38  1  0
  6 20  1  0
  6 29  1  0
  6  7  1  1
  7  8  1  0
  8  9  1  0
  8 21  1  0
  8 39  1  1
  9 10  1  0
 10 20  1  0
 10 11  1  0
 10 40  1  1
 11 12  1  0
 11 41  1  0
 11 42  1  0
 12 17  1  0
 12 13  1  0
 12 43  1  6
 13 14  1  0
 14 15  1  0
 14 16  1  0
 14 44  1  6
 15 45  1  0
 15 46  1  0
 15 47  1  0
 16 17  1  0
 16 48  1  0
 16 49  1  0
 17 18  1  0
 17 50  1  6
 18 19  2  0
 18 20  1  0
 20 51  1  1
 21 29  1  0
 21 22  1  6
 21 23  1  0
 22 52  1  0
 23 24  1  0
 23 53  1  0
 23 54  1  0
 24 28  1  0
 24 25  1  1
 24 26  1  0
 25 55  1  0
 25 56  1  0
 25 57  1  0
 26 27  1  0
 26 58  1  0
 26 59  1  0
 27 28  1  0
 28 29  1  0
 28 60  1  1
 29 30  1  6
 30 61  1  0
 30 62  1  0
M  END
>  <i_m_ct_stereo_status>  (38) 
1

>  <s_m_source_file>  (38) 
/var/tmp/pbs.5076255.sched01/tmp0qfm3vo4/0bcu552to.sdf

>  <i_m_source_file_index>  (38) 
14

>  <i_lp_mmshare_version>  (38) 
48012

>  <i_f3d_flags>  (38) 
0

>  <s_epik_input>  (38) 
W0NIM11bQ0BASF0xW0NIXT1DKFtDSDNdKVtDSDJdW0NAQF0yKFtDQF0xMzQpW0NAQF0oW09IXSkoW0NIMl1bQ0BAXTUoW0NIM10pW0NAQEhdMk9bQ0gyXTUpW0NAQEhdKE8zKU9bQ0BIXTZbQ0BASF00Qyg9TylbQ0BIXTdbQ0BASF0oW0NIMl02KU9bQ0BASF0oW0NIM10pW0NIMl03

>  <s_epik_cmdline>  (38) 
J2VwaWtfcHl0aG9uJywgJy1waHQnLCAnMi4wJywgJy1waCcsICc3LjAnLCAnLXRuJywgJzgnLCAnLW1hJywgJzIwMCcsICctaW1hZScsICc8aW5maWxlLm1hZT4nLCAnLW9tYWUnLCAnPG91dGZpbGUubWFlPic=

>  <r_lp_tautomer_probability>  (38) 
1

>  <r_epik_Ionization_Penalty>  (38) 
7.08716e-07

>  <r_epik_Ionization_Penalty_Charging>  (38) 
0

>  <r_epik_Ionization_Penalty_Neutral>  (38) 
7.08716e-07

>  <r_epik_State_Penalty>  (38) 
-0

>  <r_epik_Charging_Adjusted_Penalty>  (38) 
0

>  <i_epik_Tot_Q>  (38) 
0

>  <i_epik_Tot_abs_Q>  (38) 
0

>  <s_epik_Chemistry_Notes>  (38) 
This compound contains an acetal/aminal-like group ( X-CH(R)-Y where X, Y are N, S, or O) that may be acid/base labile, releasing an aldehyde.

>  <s_lp_Force_Field>  (38) 
OPLS3e

>  <r_lp_Energy>  (38) 
35.4721

>  <b_lp_Chiralities_Consistent>  (38) 
1

>  <s_lp_Variant>  (38) 
10:0-1

>  <s_i_glide_gridfile>  (38) 
pfpi4k_grid

>  <i_i_glide_lignum>  (38) 
14

>  <i_i_glide_rotatable_bonds>  (38) 
1

>  <r_i_docking_score>  (38) 
-2.16205

>  <r_i_glide_ligand_efficiency>  (38) 
-0.0720683

>  <r_i_glide_ligand_efficiency_sa>  (38) 
-0.223933

>  <r_i_glide_ligand_efficiency_ln>  (38) 
-0.491241

>  <r_i_glide_gscore>  (38) 
-2.16205

>  <r_i_glide_lipo>  (38) 
-0.101537

>  <r_i_glide_hbond>  (38) 
0

>  <r_i_glide_metal>  (38) 
-0

>  <r_i_glide_rewards>  (38) 
-0.622359

>  <r_i_glide_evdw>  (38) 
-22.8744

>  <r_i_glide_ecoul>  (38) 
-1.84519

>  <r_i_glide_erotb>  (38) 
0

>  <r_i_glide_esite>  (38) 
-0.0176549

>  <r_i_glide_emodel>  (38) 
-28.174

>  <r_i_glide_energy>  (38) 
-24.7196

>  <r_i_glide_einternal>  (38) 
0.3215

>  <r_i_glide_intrahb_reward>  (38) 
-0

>  <i_i_glide_confnum>  (38) 
2

>  <i_i_glide_posenum>  (38) 
37

>  <r_i_glide_eff_state_penalty>  (38) 
0

>  <ligand_id>  (38) 
10

>  <original_smiles>  (38) 
CC1=CC(C)C23OC(OC4CC5OC(C)CC5C(=O)C42)C2(O)CC4(C)COC4C23C1

>  <smiles>  (38) 
[H]OC12C3([H])OC4([H])C([H])([H])C5([H])OC([H])(C([H])([H])[H])C([H])([H])C5([H])C(=O)C4([H])C4(O3)C([H])(C([H])([H])[H])C([H])=C(C([H])([H])[H])C([H])([H])C14C1([H])OC([H])([H])C1(C([H])([H])[H])C2([H])[H]

$$$$
10:0:2
     RDKit          3D

 62 68  0  0  1  0  0  0  0  0999 V2000
    5.8138   -9.6660    1.5096 C   0  0  0  0  0  0  0  0  0  0  0  0
    5.0156   -8.6681    2.3179 C   0  0  0  0  0  0  0  0  0  0  0  0
    5.5193   -8.1004    3.4385 C   0  0  0  0  0  0  0  0  0  0  0  0
    4.7978   -7.0595    4.2884 C   0  0  1  0  0  0  0  0  0  0  0  0
    5.8060   -6.0784    4.9098 C   0  0  0  0  0  0  0  0  0  0  0  0
    3.5954   -6.4325    3.5067 C   0  0  1  0  0  0  0  0  0  0  0  0
    2.5257   -5.9316    4.3059 O   0  0  0  0  0  0  0  0  0  0  0  0
    1.4274   -5.7662    3.4326 C   0  0  1  0  0  0  0  0  0  0  0  0
    1.5712   -4.5872    2.6912 O   0  0  0  0  0  0  0  0  0  0  0  0
    2.8897   -4.0426    2.7110 C   0  0  2  0  0  0  0  0  0  0  0  0
    3.0447   -2.9707    1.6266 C   0  0  0  0  0  0  0  0  0  0  0  0
    2.9754   -3.5981    0.2301 C   0  0  1  0  0  0  0  0  0  0  0  0
    3.4015   -2.6121   -0.7015 O   0  0  0  0  0  0  0  0  0  0  0  0
    4.0012   -3.2562   -1.8041 C   0  0  1  0  0  0  0  0  0  0  0  0
    4.8422   -2.2348   -2.5793 C   0  0  0  0  0  0  0  0  0  0  0  0
    4.7969   -4.3721   -1.1325 C   0  0  0  0  0  0  0  0  0  0  0  0
    3.8878   -4.8229    0.0145 C   0  0  1  0  0  0  0  0  0  0  0  0
    4.6426   -5.3136    1.2651 C   0  0  0  0  0  0  0  0  0  0  0  0
    5.7648   -5.8123    1.1575 O   0  0  0  0  0  0  0  0  0  0  0  0
    3.9888   -5.1442    2.6559 C   0  0  2  0  0  0  0  0  0  0  0  0
    1.4606   -6.9719    2.4404 C   0  0  2  0  0  0  0  0  0  0  0  0
    1.3722   -6.5711    1.0794 O   0  0  0  0  0  0  0  0  0  0  0  0
    0.3289   -8.0123    2.6815 C   0  0  0  0  0  0  0  0  0  0  0  0
    0.8446   -9.0216    3.6943 C   0  0  2  0  0  0  0  0  0  0  0  0
    0.4914  -10.4570    3.3092 C   0  0  0  0  0  0  0  0  0  0  0  0
    0.6746   -8.6600    5.1607 C   0  0  0  0  0  0  0  0  0  0  0  0
    2.0507   -8.2496    5.2648 O   0  0  0  0  0  0  0  0  0  0  0  0
    2.3125   -8.6955    3.9044 C   0  0  2  0  0  0  0  0  0  0  0  0
    2.7840   -7.6066    2.8757 C   0  0  2  0  0  0  0  0  0  0  0  0
    3.6160   -8.3447    1.7966 C   0  0  0  0  0  0  0  0  0  0  0  0
    5.9002   -9.3229    0.4834 H   0  0  0  0  0  0  0  0  0  0  0  0
    5.3385  -10.6457    1.5074 H   0  0  0  0  0  0  0  0  0  0  0  0
    6.8209   -9.7856    1.9049 H   0  0  0  0  0  0  0  0  0  0  0  0
    6.5082   -8.3783    3.7698 H   0  0  0  0  0  0  0  0  0  0  0  0
    4.4031   -7.6219    5.1329 H   0  0  0  0  0  0  0  0  0  0  0  0
    6.4644   -6.6101    5.5976 H   0  0  0  0  0  0  0  0  0  0  0  0
    5.3025   -5.2949    5.4756 H   0  0  0  0  0  0  0  0  0  0  0  0
    6.4456   -5.6152    4.1581 H   0  0  0  0  0  0  0  0  0  0  0  0
    0.5026   -5.7101    4.0066 H   0  0  0  0  0  0  0  0  0  0  0  0
    2.9835   -3.5375    3.6746 H   0  0  0  0  0  0  0  0  0  0  0  0
    2.2800   -2.2005    1.7260 H   0  0  0  0  0  0  0  0  0  0  0  0
    4.0055   -2.4679    1.7530 H   0  0  0  0  0  0  0  0  0  0  0  0
    1.9502   -3.8923   -0.0044 H   0  0  0  0  0  0  0  0  0  0  0  0
    3.2207   -3.6785   -2.4393 H   0  0  0  0  0  0  0  0  0  0  0  0
    5.3472   -2.6916   -3.4301 H   0  0  0  0  0  0  0  0  0  0  0  0
    5.5980   -1.7860   -1.9345 H   0  0  0  0  0  0  0  0  0  0  0  0
    4.2143   -1.4251   -2.9539 H   0  0  0  0  0  0  0  0  0  0  0  0
    5.0139   -5.1803   -1.8309 H   0  0  0  0  0  0  0  0  0  0  0  0
    5.7471   -3.9793   -0.7635 H   0  0  0  0  0  0  0  0  0  0  0  0
    3.2696   -5.6489   -0.3298 H   0  0  0  0  0  0  0  0  0  0  0  0
    4.7918   -4.6557    3.2015 H   0  0  0  0  0  0  0  0  0  0  0  0
    1.5534   -7.3291    0.5462 H   0  0  0  0  0  0  0  0  0  0  0  0
   -0.6046   -7.5444    2.9962 H   0  0  0  0  0  0  0  0  0  0  0  0
    0.1054   -8.5282    1.7456 H   0  0  0  0  0  0  0  0  0  0  0  0
    0.9012  -11.1683    4.0262 H   0  0  0  0  0  0  0  0  0  0  0  0
    0.8891  -10.7213    2.3322 H   0  0  0  0  0  0  0  0  0  0  0  0
   -0.5839  -10.6142    3.2896 H   0  0  0  0  0  0  0  0  0  0  0  0
   -0.0220   -7.8355    5.3360 H   0  0  0  0  0  0  0  0  0  0  0  0
    0.4548   -9.5154    5.8006 H   0  0  0  0  0  0  0  0  0  0  0  0
    2.9210   -9.6028    3.9211 H   0  0  0  0  0  0  0  0  0  0  0  0
    3.7105   -7.7678    0.8787 H   0  0  0  0  0  0  0  0  0  0  0  0
    3.1127   -9.2691    1.5131 H   0  0  0  0  0  0  0  0  0  0  0  0
  1  2  1  0
  1 31  1  0
  1 32  1  0
  1 33  1  0
  2 30  1  0
  2  3  2  0
  3  4  1  0
  3 34  1  0
  4  5  1  0
  4  6  1  0
  4 35  1  1
  5 36  1  0
  5 37  1  0
  5 38  1  0
  6 20  1  0
  6 29  1  0
  6  7  1  1
  7  8  1  0
  8  9  1  0
  8 21  1  0
  8 39  1  1
  9 10  1  0
 10 20  1  0
 10 11  1  0
 10 40  1  1
 11 12  1  0
 11 41  1  0
 11 42  1  0
 12 17  1  0
 12 13  1  0
 12 43  1  6
 13 14  1  0
 14 15  1  0
 14 16  1  0
 14 44  1  6
 15 45  1  0
 15 46  1  0
 15 47  1  0
 16 17  1  0
 16 48  1  0
 16 49  1  0
 17 18  1  0
 17 50  1  6
 18 19  2  0
 18 20  1  0
 20 51  1  1
 21 29  1  0
 21 22  1  6
 21 23  1  0
 22 52  1  0
 23 24  1  0
 23 53  1  0
 23 54  1  0
 24 28  1  0
 24 25  1  1
 24 26  1  0
 25 55  1  0
 25 56  1  0
 25 57  1  0
 26 27  1  0
 26 58  1  0
 26 59  1  0
 27 28  1  0
 28 29  1  0
 28 60  1  1
 29 30  1  6
 30 61  1  0
 30 62  1  0
M  END
>  <i_m_ct_stereo_status>  (39) 
1

>  <s_m_source_file>  (39) 
/var/tmp/pbs.5076255.sched01/tmp0qfm3vo4/0bcu552to.sdf

>  <i_m_source_file_index>  (39) 
14

>  <i_lp_mmshare_version>  (39) 
48012

>  <i_f3d_flags>  (39) 
0

>  <s_epik_input>  (39) 
W0NIM11bQ0BASF0xW0NIXT1DKFtDSDNdKVtDSDJdW0NAQF0yKFtDQF0xMzQpW0NAQF0oW09IXSkoW0NIMl1bQ0BAXTUoW0NIM10pW0NAQEhdMk9bQ0gyXTUpW0NAQEhdKE8zKU9bQ0BIXTZbQ0BASF00Qyg9TylbQ0BIXTdbQ0BASF0oW0NIMl02KU9bQ0BASF0oW0NIM10pW0NIMl03

>  <s_epik_cmdline>  (39) 
J2VwaWtfcHl0aG9uJywgJy1waHQnLCAnMi4wJywgJy1waCcsICc3LjAnLCAnLXRuJywgJzgnLCAnLW1hJywgJzIwMCcsICctaW1hZScsICc8aW5maWxlLm1hZT4nLCAnLW9tYWUnLCAnPG91dGZpbGUubWFlPic=

>  <r_lp_tautomer_probability>  (39) 
1

>  <r_epik_Ionization_Penalty>  (39) 
7.08716e-07

>  <r_epik_Ionization_Penalty_Charging>  (39) 
0

>  <r_epik_Ionization_Penalty_Neutral>  (39) 
7.08716e-07

>  <r_epik_State_Penalty>  (39) 
-0

>  <r_epik_Charging_Adjusted_Penalty>  (39) 
0

>  <i_epik_Tot_Q>  (39) 
0

>  <i_epik_Tot_abs_Q>  (39) 
0

>  <s_epik_Chemistry_Notes>  (39) 
This compound contains an acetal/aminal-like group ( X-CH(R)-Y where X, Y are N, S, or O) that may be acid/base labile, releasing an aldehyde.

>  <s_lp_Force_Field>  (39) 
OPLS3e

>  <r_lp_Energy>  (39) 
35.4721

>  <b_lp_Chiralities_Consistent>  (39) 
1

>  <s_lp_Variant>  (39) 
10:0-1

>  <s_i_glide_gridfile>  (39) 
pfpi4k_grid

>  <i_i_glide_lignum>  (39) 
14

>  <i_i_glide_rotatable_bonds>  (39) 
1

>  <r_i_docking_score>  (39) 
-2.06721

>  <r_i_glide_ligand_efficiency>  (39) 
-0.0689069

>  <r_i_glide_ligand_efficiency_sa>  (39) 
-0.21411

>  <r_i_glide_ligand_efficiency_ln>  (39) 
-0.469692

>  <r_i_glide_gscore>  (39) 
-2.06721

>  <r_i_glide_lipo>  (39) 
-0.119755

>  <r_i_glide_hbond>  (39) 
0

>  <r_i_glide_metal>  (39) 
-0

>  <r_i_glide_rewards>  (39) 
-0.624556

>  <r_i_glide_evdw>  (39) 
-23.031

>  <r_i_glide_ecoul>  (39) 
-1.03654

>  <r_i_glide_erotb>  (39) 
0

>  <r_i_glide_esite>  (39) 
-0.0158629

>  <r_i_glide_emodel>  (39) 
-27.5161

>  <r_i_glide_energy>  (39) 
-24.0676

>  <r_i_glide_einternal>  (39) 
0.0205675

>  <r_i_glide_intrahb_reward>  (39) 
-0

>  <i_i_glide_confnum>  (39) 
2

>  <i_i_glide_posenum>  (39) 
17

>  <r_i_glide_eff_state_penalty>  (39) 
0

>  <ligand_id>  (39) 
10

>  <original_smiles>  (39) 
CC1=CC(C)C23OC(OC4CC5OC(C)CC5C(=O)C42)C2(O)CC4(C)COC4C23C1

>  <smiles>  (39) 
[H]OC12C3([H])OC4([H])C([H])([H])C5([H])OC([H])(C([H])([H])[H])C([H])([H])C5([H])C(=O)C4([H])C4(O3)C([H])(C([H])([H])[H])C([H])=C(C([H])([H])[H])C([H])([H])C14C1([H])OC([H])([H])C1(C([H])([H])[H])C2([H])[H]

$$$$
11:0:0
     RDKit          3D

 42 47  0  0  1  0  0  0  0  0999 V2000
    4.4479   -2.0651    4.0252 O   0  0  0  0  0  0  0  0  0  0  0  0
    3.5208   -2.7207    3.1823 C   0  0  2  0  0  0  0  0  0  0  0  0
    3.7030   -4.2524    3.3777 C   0  0  2  0  0  0  0  0  0  0  0  0
    5.0137   -4.7970    2.8813 C   0  0  0  0  0  0  0  0  0  0  0  0
    4.3244   -5.2169    1.5901 C   0  0  2  0  0  0  0  0  0  0  0  0
    3.4339   -6.4163    1.7090 C   0  0  0  0  0  0  0  0  0  0  0  0
    2.9896   -5.0886    2.3201 C   0  0  1  0  0  0  0  0  0  0  0  0
    4.5414   -4.3381    0.3095 C   0  0  1  0  0  0  0  0  0  0  0  0
    4.9475   -5.2147   -0.7194 O   0  0  0  0  0  0  0  0  0  0  0  0
    3.2488   -3.5709   -0.1784 C   0  0  1  0  0  0  0  0  0  0  0  0
    2.7093   -2.7693    0.8723 O   0  0  0  0  0  0  0  0  0  0  0  0
    3.6549   -2.1314    1.7284 C   0  0  2  0  0  0  0  0  0  0  0  0
    5.0452   -1.9495    1.0090 C   0  0  2  0  0  0  0  0  0  0  0  0
    4.8623   -0.9249   -0.1412 C   0  0  0  0  0  0  0  0  0  0  0  0
    4.1618   -1.4480   -1.3942 C   0  0  0  0  0  0  0  0  0  0  0  0
    4.2386   -0.6673   -2.5699 C   0  0  0  0  0  0  0  0  0  0  0  0
    3.6249   -1.0767   -3.7621 C   0  0  0  0  0  0  0  0  0  0  0  0
    2.9055   -2.2877   -3.7798 C   0  0  0  0  0  0  0  0  0  0  0  0
    2.8058   -3.0561   -2.6141 C   0  0  0  0  0  0  0  0  0  0  0  0
    3.4358   -2.6684   -1.4127 C   0  0  0  0  0  0  0  0  0  0  0  0
    5.6352   -3.2538    0.4095 C   0  0  1  0  0  0  0  0  0  0  0  0
    6.8825   -3.6392    0.9532 O   0  0  0  0  0  0  0  0  0  0  0  0
    4.3357   -1.1304    3.9408 H   0  0  0  0  0  0  0  0  0  0  0  0
    2.5312   -2.4264    3.5411 H   0  0  0  0  0  0  0  0  0  0  0  0
    3.4999   -4.5978    4.3898 H   0  0  0  0  0  0  0  0  0  0  0  0
    5.8074   -4.0614    2.9271 H   0  0  0  0  0  0  0  0  0  0  0  0
    5.2945   -5.6443    3.5102 H   0  0  0  0  0  0  0  0  0  0  0  0
    2.9595   -6.7618    0.7948 H   0  0  0  0  0  0  0  0  0  0  0  0
    3.7627   -7.2264    2.3626 H   0  0  0  0  0  0  0  0  0  0  0  0
    2.0810   -4.6694    1.8954 H   0  0  0  0  0  0  0  0  0  0  0  0
    4.1715   -5.4599   -1.2021 H   0  0  0  0  0  0  0  0  0  0  0  0
    2.4766   -4.3053   -0.4098 H   0  0  0  0  0  0  0  0  0  0  0  0
    3.2755   -1.1181    1.8360 H   0  0  0  0  0  0  0  0  0  0  0  0
    5.7578   -1.5127    1.7080 H   0  0  0  0  0  0  0  0  0  0  0  0
    4.3407   -0.0323    0.1977 H   0  0  0  0  0  0  0  0  0  0  0  0
    5.8433   -0.5738   -0.4569 H   0  0  0  0  0  0  0  0  0  0  0  0
    4.7624    0.2814   -2.5659 H   0  0  0  0  0  0  0  0  0  0  0  0
    3.6722   -0.4666   -4.6551 H   0  0  0  0  0  0  0  0  0  0  0  0
    2.4013   -2.6244   -4.6783 H   0  0  0  0  0  0  0  0  0  0  0  0
    2.2069   -3.9504   -2.6583 H   0  0  0  0  0  0  0  0  0  0  0  0
    5.9612   -3.0502   -0.6080 H   0  0  0  0  0  0  0  0  0  0  0  0
    7.1176   -4.4667    0.5604 H   0  0  0  0  0  0  0  0  0  0  0  0
  1  2  1  0
  1 23  1  0
  2 12  1  0
  2  3  1  0
  2 24  1  1
  3  7  1  0
  3  4  1  0
  3 25  1  1
  5  4  1  1
  4 26  1  0
  4 27  1  0
  5  7  1  0
  5  6  1  0
  5  8  1  0
  6  7  1  0
  6 28  1  0
  6 29  1  0
  7 30  1  6
  8 21  1  0
  8  9  1  6
  8 10  1  0
  9 31  1  0
 10 20  1  0
 10 11  1  0
 10 32  1  6
 11 12  1  0
 12 13  1  0
 12 33  1  1
 13 14  1  0
 13 21  1  0
 13 34  1  1
 14 15  1  0
 14 35  1  0
 14 36  1  0
 15 20  2  0
 15 16  1  0
 16 17  2  0
 16 37  1  0
 17 18  1  0
 17 38  1  0
 18 19  2  0
 18 39  1  0
 19 20  1  0
 19 40  1  0
 21 22  1  0
 21 41  1  6
 22 42  1  0
M  END
>  <i_m_ct_stereo_status>  (40) 
1

>  <s_m_source_file>  (40) 
/var/tmp/pbs.5076255.sched01/tmp0qfm3vo4/0bcu552to.sdf

>  <i_m_source_file_index>  (40) 
15

>  <i_lp_mmshare_version>  (40) 
48012

>  <i_f3d_flags>  (40) 
0

>  <s_epik_input>  (40) 
W0NAXTEyM1tDQEBIXShbQ0gyXTIpW0NAQEhdKFtDSDJdMSlbQ0BASF0oW09IXSlbQ0BIXTRbQ0BASF01W0NIMl1jNmMoW0NASF0oTzQpW0NAQF0zKFtPSF0pW0NAQEhdNVtPSF0pW2NIXVtjSF1bY0hdW2NIXTY=

>  <s_epik_cmdline>  (40) 
J2VwaWtfcHl0aG9uJywgJy1waHQnLCAnMi4wJywgJy1waCcsICc3LjAnLCAnLXRuJywgJzgnLCAnLW1hJywgJzIwMCcsICctaW1hZScsICc8aW5maWxlLm1hZT4nLCAnLW9tYWUnLCAnPG91dGZpbGUubWFlPic=

>  <r_lp_tautomer_probability>  (40) 
1

>  <r_epik_Ionization_Penalty>  (40) 
2.46963e-07

>  <r_epik_Ionization_Penalty_Charging>  (40) 
0

>  <r_epik_Ionization_Penalty_Neutral>  (40) 
2.46963e-07

>  <r_epik_State_Penalty>  (40) 
-0

>  <r_epik_Charging_Adjusted_Penalty>  (40) 
0

>  <i_epik_Tot_Q>  (40) 
0

>  <i_epik_Tot_abs_Q>  (40) 
0

>  <s_lp_Force_Field>  (40) 
OPLS3e

>  <r_lp_Energy>  (40) 
74.4085

>  <b_lp_Chiralities_Consistent>  (40) 
1

>  <s_lp_Variant>  (40) 
11:0-1

>  <s_i_glide_gridfile>  (40) 
pfpi4k_grid

>  <i_i_glide_lignum>  (40) 
15

>  <i_i_glide_rotatable_bonds>  (40) 
3

>  <r_i_docking_score>  (40) 
-3.84081

>  <r_i_glide_ligand_efficiency>  (40) 
-0.174582

>  <r_i_glide_ligand_efficiency_sa>  (40) 
-0.489186

>  <r_i_glide_ligand_efficiency_ln>  (40) 
-0.938833

>  <r_i_glide_gscore>  (40) 
-3.84081

>  <r_i_glide_lipo>  (40) 
-0.666886

>  <r_i_glide_hbond>  (40) 
0

>  <r_i_glide_metal>  (40) 
-0

>  <r_i_glide_rewards>  (40) 
-1.36126

>  <r_i_glide_evdw>  (40) 
-24.9486

>  <r_i_glide_ecoul>  (40) 
-3.76822

>  <r_i_glide_erotb>  (40) 
0

>  <r_i_glide_esite>  (40) 
0

>  <r_i_glide_emodel>  (40) 
-33.6973

>  <r_i_glide_energy>  (40) 
-28.7168

>  <r_i_glide_einternal>  (40) 
1.66213

>  <r_i_glide_intrahb_reward>  (40) 
-0

>  <i_i_glide_confnum>  (40) 
2

>  <i_i_glide_posenum>  (40) 
4

>  <r_i_glide_eff_state_penalty>  (40) 
0

>  <ligand_id>  (40) 
11

>  <original_smiles>  (40) 
OC1C2CC3(CC23)C2(O)C3OC1C(Cc1ccccc13)C2O

>  <smiles>  (40) 
[H]OC1([H])C2([H])OC3([H])c4c([H])c([H])c([H])c([H])c4C([H])([H])C2([H])C([H])(O[H])C3(O[H])C23C([H])([H])C1([H])C2([H])C3([H])[H]

$$$$
11:0:1
     RDKit          3D

 42 47  0  0  1  0  0  0  0  0999 V2000
    4.3986   -2.1065    4.0452 O   0  0  0  0  0  0  0  0  0  0  0  0
    3.4807   -2.7599    3.1936 C   0  0  2  0  0  0  0  0  0  0  0  0
    3.6775   -4.2905    3.3787 C   0  0  2  0  0  0  0  0  0  0  0  0
    4.9996   -4.8193    2.8949 C   0  0  0  0  0  0  0  0  0  0  0  0
    4.3333   -5.2399    1.5890 C   0  0  2  0  0  0  0  0  0  0  0  0
    3.4505   -6.4436    1.6878 C   0  0  0  0  0  0  0  0  0  0  0  0
    2.9841   -5.1252    2.3072 C   0  0  1  0  0  0  0  0  0  0  0  0
    4.5526   -4.3452    0.3180 C   0  0  1  0  0  0  0  0  0  0  0  0
    4.9586   -5.2118   -0.7162 O   0  0  0  0  0  0  0  0  0  0  0  0
    3.2556   -3.5864   -0.1819 C   0  0  1  0  0  0  0  0  0  0  0  0
    2.6955   -2.7996    0.8725 O   0  0  0  0  0  0  0  0  0  0  0  0
    3.6241   -2.1579    1.7456 C   0  0  2  0  0  0  0  0  0  0  0  0
    5.0204   -1.9549    1.0441 C   0  0  2  0  0  0  0  0  0  0  0  0
    4.8378   -0.9258   -0.1018 C   0  0  0  0  0  0  0  0  0  0  0  0
    4.1600   -1.4516   -1.3746 C   0  0  0  0  0  0  0  0  0  0  0  0
    4.2431   -0.6602   -2.5341 C   0  0  0  0  0  0  0  0  0  0  0  0
    3.6418   -1.0679   -3.7457 C   0  0  0  0  0  0  0  0  0  0  0  0
    2.9390   -2.2809   -3.7857 C   0  0  0  0  0  0  0  0  0  0  0  0
    2.8282   -3.0601   -2.6256 C   0  0  0  0  0  0  0  0  0  0  0  0
    3.4414   -2.6787   -1.4078 C   0  0  0  0  0  0  0  0  0  0  0  0
    5.6365   -3.2469    0.4419 C   0  0  1  0  0  0  0  0  0  0  0  0
    6.8777   -3.6065    1.0168 O   0  0  0  0  0  0  0  0  0  0  0  0
    4.2337   -1.1756    4.0235 H   0  0  0  0  0  0  0  0  0  0  0  0
    2.4867   -2.4795    3.5478 H   0  0  0  0  0  0  0  0  0  0  0  0
    3.4680   -4.6471    4.3855 H   0  0  0  0  0  0  0  0  0  0  0  0
    5.7825   -4.0728    2.9710 H   0  0  0  0  0  0  0  0  0  0  0  0
    5.2773   -5.6712    3.5187 H   0  0  0  0  0  0  0  0  0  0  0  0
    2.9856   -6.7854    0.7675 H   0  0  0  0  0  0  0  0  0  0  0  0
    3.7754   -7.2556    2.3395 H   0  0  0  0  0  0  0  0  0  0  0  0
    2.0771   -4.7098    1.8726 H   0  0  0  0  0  0  0  0  0  0  0  0
    4.1854   -5.4969   -1.1805 H   0  0  0  0  0  0  0  0  0  0  0  0
    2.4913   -4.3272   -0.4216 H   0  0  0  0  0  0  0  0  0  0  0  0
    3.2325   -1.1480    1.8577 H   0  0  0  0  0  0  0  0  0  0  0  0
    5.7156   -1.5103    1.7539 H   0  0  0  0  0  0  0  0  0  0  0  0
    4.3042   -0.0375    0.2372 H   0  0  0  0  0  0  0  0  0  0  0  0
    5.8179   -0.5600   -0.4030 H   0  0  0  0  0  0  0  0  0  0  0  0
    4.7526    0.2823   -2.5191 H   0  0  0  0  0  0  0  0  0  0  0  0
    3.6945   -0.4401   -4.6215 H   0  0  0  0  0  0  0  0  0  0  0  0
    2.4589   -2.6051   -4.7045 H   0  0  0  0  0  0  0  0  0  0  0  0
    2.2370   -3.9563   -2.6746 H   0  0  0  0  0  0  0  0  0  0  0  0
    5.9730   -3.0331   -0.5696 H   0  0  0  0  0  0  0  0  0  0  0  0
    6.6990   -3.9289    1.8884 H   0  0  0  0  0  0  0  0  0  0  0  0
  1  2  1  0
  1 23  1  0
  2 12  1  0
  2  3  1  0
  2 24  1  1
  3  7  1  0
  3  4  1  0
  3 25  1  1
  5  4  1  1
  4 26  1  0
  4 27  1  0
  5  7  1  0
  5  6  1  0
  5  8  1  0
  6  7  1  0
  6 28  1  0
  6 29  1  0
  7 30  1  6
  8 21  1  0
  8  9  1  6
  8 10  1  0
  9 31  1  0
 10 20  1  0
 10 11  1  0
 10 32  1  6
 11 12  1  0
 12 13  1  0
 12 33  1  1
 13 14  1  0
 13 21  1  0
 13 34  1  1
 14 15  1  0
 14 35  1  0
 14 36  1  0
 15 20  2  0
 15 16  1  0
 16 17  2  0
 16 37  1  0
 17 18  1  0
 17 38  1  0
 18 19  2  0
 18 39  1  0
 19 20  1  0
 19 40  1  0
 21 22  1  0
 21 41  1  6
 22 42  1  0
M  END
>  <i_m_ct_stereo_status>  (41) 
1

>  <s_m_source_file>  (41) 
/var/tmp/pbs.5076255.sched01/tmp0qfm3vo4/0bcu552to.sdf

>  <i_m_source_file_index>  (41) 
15

>  <i_lp_mmshare_version>  (41) 
48012

>  <i_f3d_flags>  (41) 
0

>  <s_epik_input>  (41) 
W0NAXTEyM1tDQEBIXShbQ0gyXTIpW0NAQEhdKFtDSDJdMSlbQ0BASF0oW09IXSlbQ0BIXTRbQ0BASF01W0NIMl1jNmMoW0NASF0oTzQpW0NAQF0zKFtPSF0pW0NAQEhdNVtPSF0pW2NIXVtjSF1bY0hdW2NIXTY=

>  <s_epik_cmdline>  (41) 
J2VwaWtfcHl0aG9uJywgJy1waHQnLCAnMi4wJywgJy1waCcsICc3LjAnLCAnLXRuJywgJzgnLCAnLW1hJywgJzIwMCcsICctaW1hZScsICc8aW5maWxlLm1hZT4nLCAnLW9tYWUnLCAnPG91dGZpbGUubWFlPic=

>  <r_lp_tautomer_probability>  (41) 
1

>  <r_epik_Ionization_Penalty>  (41) 
2.46963e-07

>  <r_epik_Ionization_Penalty_Charging>  (41) 
0

>  <r_epik_Ionization_Penalty_Neutral>  (41) 
2.46963e-07

>  <r_epik_State_Penalty>  (41) 
-0

>  <r_epik_Charging_Adjusted_Penalty>  (41) 
0

>  <i_epik_Tot_Q>  (41) 
0

>  <i_epik_Tot_abs_Q>  (41) 
0

>  <s_lp_Force_Field>  (41) 
OPLS3e

>  <r_lp_Energy>  (41) 
74.4085

>  <b_lp_Chiralities_Consistent>  (41) 
1

>  <s_lp_Variant>  (41) 
11:0-1

>  <s_i_glide_gridfile>  (41) 
pfpi4k_grid

>  <i_i_glide_lignum>  (41) 
15

>  <i_i_glide_rotatable_bonds>  (41) 
3

>  <r_i_docking_score>  (41) 
-3.83924

>  <r_i_glide_ligand_efficiency>  (41) 
-0.174511

>  <r_i_glide_ligand_efficiency_sa>  (41) 
-0.488987

>  <r_i_glide_ligand_efficiency_ln>  (41) 
-0.938451

>  <r_i_glide_gscore>  (41) 
-3.83924

>  <r_i_glide_lipo>  (41) 
-0.660353

>  <r_i_glide_hbond>  (41) 
0

>  <r_i_glide_metal>  (41) 
-0

>  <r_i_glide_rewards>  (41) 
-1.36126

>  <r_i_glide_evdw>  (41) 
-24.7874

>  <r_i_glide_ecoul>  (41) 
-3.85511

>  <r_i_glide_erotb>  (41) 
0

>  <r_i_glide_esite>  (41) 
0

>  <r_i_glide_emodel>  (41) 
-33.873

>  <r_i_glide_energy>  (41) 
-28.6425

>  <r_i_glide_einternal>  (41) 
1.13499

>  <r_i_glide_intrahb_reward>  (41) 
-0

>  <i_i_glide_confnum>  (41) 
1

>  <i_i_glide_posenum>  (41) 
1

>  <r_i_glide_eff_state_penalty>  (41) 
0

>  <ligand_id>  (41) 
11

>  <original_smiles>  (41) 
OC1C2CC3(CC23)C2(O)C3OC1C(Cc1ccccc13)C2O

>  <smiles>  (41) 
[H]OC1([H])C2([H])OC3([H])c4c([H])c([H])c([H])c([H])c4C([H])([H])C2([H])C([H])(O[H])C3(O[H])C23C([H])([H])C1([H])C2([H])C3([H])[H]

$$$$
11:0:2
     RDKit          3D

 42 47  0  0  1  0  0  0  0  0999 V2000
    4.8317   -2.0391    3.9986 O   0  0  0  0  0  0  0  0  0  0  0  0
    3.8391   -2.6903    3.2251 C   0  0  2  0  0  0  0  0  0  0  0  0
    3.9922   -4.2297    3.4249 C   0  0  2  0  0  0  0  0  0  0  0  0
    5.2457   -4.8188    2.8565 C   0  0  0  0  0  0  0  0  0  0  0  0
    4.4568   -5.2071    1.6167 C   0  0  2  0  0  0  0  0  0  0  0  0
    3.5400   -6.3968    1.8050 C   0  0  0  0  0  0  0  0  0  0  0  0
    3.1751   -5.0462    2.4257 C   0  0  1  0  0  0  0  0  0  0  0  0
    4.6185   -4.3625    0.3096 C   0  0  1  0  0  0  0  0  0  0  0  0
    4.9407   -5.2711   -0.7084 O   0  0  0  0  0  0  0  0  0  0  0  0
    3.3217   -3.5635   -0.1067 C   0  0  1  0  0  0  0  0  0  0  0  0
    2.8782   -2.7314    0.9705 O   0  0  0  0  0  0  0  0  0  0  0  0
    3.8940   -2.1168    1.7593 C   0  0  2  0  0  0  0  0  0  0  0  0
    5.2360   -1.9879    0.9525 C   0  0  2  0  0  0  0  0  0  0  0  0
    5.0112   -0.9723   -0.1974 C   0  0  0  0  0  0  0  0  0  0  0  0
    4.2130   -1.4879   -1.4004 C   0  0  0  0  0  0  0  0  0  0  0  0
    4.2417   -0.7172   -2.5908 C   0  0  0  0  0  0  0  0  0  0  0  0
    3.5424   -1.1237   -3.7332 C   0  0  0  0  0  0  0  0  0  0  0  0
    2.7966   -2.3091   -3.6907 C   0  0  0  0  0  0  0  0  0  0  0  0
    2.7409   -3.0669   -2.5198 C   0  0  0  0  0  0  0  0  0  0  0  0
    3.4504   -2.6865   -1.3641 C   0  0  0  0  0  0  0  0  0  0  0  0
    5.7476   -3.3141    0.3319 C   0  0  1  0  0  0  0  0  0  0  0  0
    7.0187   -3.7224    0.8018 O   0  0  0  0  0  0  0  0  0  0  0  0
    5.6720   -2.2927    3.6453 H   0  0  0  0  0  0  0  0  0  0  0  0
    2.8853   -2.3624    3.6472 H   0  0  0  0  0  0  0  0  0  0  0  0
    3.8431   -4.5566    4.4526 H   0  0  0  0  0  0  0  0  0  0  0  0
    6.0566   -4.1103    2.8309 H   0  0  0  0  0  0  0  0  0  0  0  0
    5.5459   -5.6622    3.4860 H   0  0  0  0  0  0  0  0  0  0  0  0
    2.9879   -6.7332    0.9348 H   0  0  0  0  0  0  0  0  0  0  0  0
    3.8654   -7.2153    2.4481 H   0  0  0  0  0  0  0  0  0  0  0  0
    2.2677   -4.5859    2.0512 H   0  0  0  0  0  0  0  0  0  0  0  0
    4.1437   -5.4389   -1.2061 H   0  0  0  0  0  0  0  0  0  0  0  0
    2.5127   -4.2798   -0.2697 H   0  0  0  0  0  0  0  0  0  0  0  0
    3.5556   -1.0931    1.8844 H   0  0  0  0  0  0  0  0  0  0  0  0
    6.0091   -1.5638    1.5963 H   0  0  0  0  0  0  0  0  0  0  0  0
    4.5445   -0.0594    0.1661 H   0  0  0  0  0  0  0  0  0  0  0  0
    5.9833   -0.6568   -0.5770 H   0  0  0  0  0  0  0  0  0  0  0  0
    4.7963    0.2069   -2.6220 H   0  0  0  0  0  0  0  0  0  0  0  0
    3.5574   -0.5258   -4.6319 H   0  0  0  0  0  0  0  0  0  0  0  0
    2.2332   -2.6332   -4.5491 H   0  0  0  0  0  0  0  0  0  0  0  0
    2.1186   -3.9471   -2.5064 H   0  0  0  0  0  0  0  0  0  0  0  0
    6.0105   -3.1356   -0.7038 H   0  0  0  0  0  0  0  0  0  0  0  0
    7.2215   -4.5474    0.3853 H   0  0  0  0  0  0  0  0  0  0  0  0
  1  2  1  0
  1 23  1  0
  2 12  1  0
  2  3  1  0
  2 24  1  1
  3  7  1  0
  3  4  1  0
  3 25  1  1
  5  4  1  1
  4 26  1  0
  4 27  1  0
  5  7  1  0
  5  6  1  0
  5  8  1  0
  6  7  1  0
  6 28  1  0
  6 29  1  0
  7 30  1  6
  8 21  1  0
  8  9  1  6
  8 10  1  0
  9 31  1  0
 10 20  1  0
 10 11  1  0
 10 32  1  6
 11 12  1  0
 12 13  1  0
 12 33  1  1
 13 14  1  0
 13 21  1  0
 13 34  1  1
 14 15  1  0
 14 35  1  0
 14 36  1  0
 15 20  2  0
 15 16  1  0
 16 17  2  0
 16 37  1  0
 17 18  1  0
 17 38  1  0
 18 19  2  0
 18 39  1  0
 19 20  1  0
 19 40  1  0
 21 22  1  0
 21 41  1  6
 22 42  1  0
M  END
>  <i_m_ct_stereo_status>  (42) 
1

>  <s_m_source_file>  (42) 
/var/tmp/pbs.5076255.sched01/tmp0qfm3vo4/0bcu552to.sdf

>  <i_m_source_file_index>  (42) 
15

>  <i_lp_mmshare_version>  (42) 
48012

>  <i_f3d_flags>  (42) 
0

>  <s_epik_input>  (42) 
W0NAXTEyM1tDQEBIXShbQ0gyXTIpW0NAQEhdKFtDSDJdMSlbQ0BASF0oW09IXSlbQ0BIXTRbQ0BASF01W0NIMl1jNmMoW0NASF0oTzQpW0NAQF0zKFtPSF0pW0NAQEhdNVtPSF0pW2NIXVtjSF1bY0hdW2NIXTY=

>  <s_epik_cmdline>  (42) 
J2VwaWtfcHl0aG9uJywgJy1waHQnLCAnMi4wJywgJy1waCcsICc3LjAnLCAnLXRuJywgJzgnLCAnLW1hJywgJzIwMCcsICctaW1hZScsICc8aW5maWxlLm1hZT4nLCAnLW9tYWUnLCAnPG91dGZpbGUubWFlPic=

>  <r_lp_tautomer_probability>  (42) 
1

>  <r_epik_Ionization_Penalty>  (42) 
2.46963e-07

>  <r_epik_Ionization_Penalty_Charging>  (42) 
0

>  <r_epik_Ionization_Penalty_Neutral>  (42) 
2.46963e-07

>  <r_epik_State_Penalty>  (42) 
-0

>  <r_epik_Charging_Adjusted_Penalty>  (42) 
0

>  <i_epik_Tot_Q>  (42) 
0

>  <i_epik_Tot_abs_Q>  (42) 
0

>  <s_lp_Force_Field>  (42) 
OPLS3e

>  <r_lp_Energy>  (42) 
74.4085

>  <b_lp_Chiralities_Consistent>  (42) 
1

>  <s_lp_Variant>  (42) 
11:0-1

>  <s_i_glide_gridfile>  (42) 
pfpi4k_grid

>  <i_i_glide_lignum>  (42) 
15

>  <i_i_glide_rotatable_bonds>  (42) 
3

>  <r_i_docking_score>  (42) 
-3.83612

>  <r_i_glide_ligand_efficiency>  (42) 
-0.174369

>  <r_i_glide_ligand_efficiency_sa>  (42) 
-0.488589

>  <r_i_glide_ligand_efficiency_ln>  (42) 
-0.937688

>  <r_i_glide_gscore>  (42) 
-3.83612

>  <r_i_glide_lipo>  (42) 
-0.726682

>  <r_i_glide_hbond>  (42) 
0

>  <r_i_glide_metal>  (42) 
-0

>  <r_i_glide_rewards>  (42) 
-1.36126

>  <r_i_glide_evdw>  (42) 
-25.0161

>  <r_i_glide_ecoul>  (42) 
-3.31586

>  <r_i_glide_erotb>  (42) 
0

>  <r_i_glide_esite>  (42) 
0

>  <r_i_glide_emodel>  (42) 
-33.3372

>  <r_i_glide_energy>  (42) 
-28.3319

>  <r_i_glide_einternal>  (42) 
1.42533

>  <r_i_glide_intrahb_reward>  (42) 
-0

>  <i_i_glide_confnum>  (42) 
2

>  <i_i_glide_posenum>  (42) 
16

>  <r_i_glide_eff_state_penalty>  (42) 
0

>  <ligand_id>  (42) 
11

>  <original_smiles>  (42) 
OC1C2CC3(CC23)C2(O)C3OC1C(Cc1ccccc13)C2O

>  <smiles>  (42) 
[H]OC1([H])C2([H])OC3([H])c4c([H])c([H])c([H])c([H])c4C([H])([H])C2([H])C([H])(O[H])C3(O[H])C23C([H])([H])C1([H])C2([H])C3([H])[H]

$$$$
12:0:0
     RDKit          3D

 40 44  0  0  1  0  0  0  0  0999 V2000
    7.8899   -2.8068   -1.4089 C   0  0  0  0  0  0  0  0  0  0  0  0
    6.4369   -2.6957   -1.2665 N   0  0  0  0  0  0  0  0  0  0  0  0
    5.6839   -3.1784   -2.4239 C   0  0  0  0  0  0  0  0  0  0  0  0
    4.5585   -2.2170   -2.8391 C   0  0  0  0  0  0  0  0  0  0  0  0
    4.3287   -2.0709   -4.0406 O   0  0  0  0  0  0  0  0  0  0  0  0
    3.7915   -1.4676   -1.8253 C   0  0  0  0  0  0  0  0  0  0  0  0
    3.7137   -1.7535   -0.5074 C   0  0  0  0  0  0  0  0  0  0  0  0
    4.3333   -2.9323    0.2406 C   0  0  1  0  0  0  0  0  0  0  0  0
    3.6891   -4.1182   -0.2013 O   0  0  0  0  0  0  0  0  0  0  0  0
    5.8896   -3.0281    0.0669 C   0  0  1  0  0  0  0  0  0  0  0  0
    6.4769   -4.3014    0.7335 C   0  0  0  0  0  0  0  0  0  0  0  0
    5.8724   -4.7258    2.0747 C   0  0  0  0  0  0  0  0  0  0  0  0
    6.2735   -5.7997    2.8923 C   0  0  0  0  0  0  0  0  0  0  0  0
    5.4881   -6.1734    4.0127 C   0  0  0  0  0  0  0  0  0  0  0  0
    4.2750   -5.5065    4.3056 C   0  0  0  0  0  0  0  0  0  0  0  0
    3.4917   -5.9249    5.3443 O   0  0  0  0  0  0  0  0  0  0  0  0
    3.8572   -4.4183    3.5079 C   0  0  0  0  0  0  0  0  0  0  0  0
    4.7004   -4.0550    2.4690 C   0  0  0  0  0  0  0  0  0  0  0  0
    4.0554   -2.8969    1.7663 C   0  0  1  0  0  0  0  0  0  0  0  0
    4.3216   -1.5321    2.4163 C   0  0  0  0  0  0  0  0  0  0  0  0
    3.0826   -1.4148    2.9124 C   0  0  0  0  0  0  0  0  0  0  0  0
    2.6660   -2.7974    2.4582 C   0  0  2  0  0  0  0  0  0  0  0  0
    2.6773   -3.7205    3.5636 O   0  0  0  0  0  0  0  0  0  0  0  0
    8.2451   -2.3207   -2.3129 H   0  0  0  0  0  0  0  0  0  0  0  0
    8.2132   -3.8498   -1.4495 H   0  0  0  0  0  0  0  0  0  0  0  0
    8.3988   -2.3279   -0.5745 H   0  0  0  0  0  0  0  0  0  0  0  0
    6.3452   -3.2521   -3.2901 H   0  0  0  0  0  0  0  0  0  0  0  0
    5.3023   -4.1895   -2.2668 H   0  0  0  0  0  0  0  0  0  0  0  0
    3.2222   -0.6251   -2.1941 H   0  0  0  0  0  0  0  0  0  0  0  0
    3.0732   -1.1132    0.0807 H   0  0  0  0  0  0  0  0  0  0  0  0
    3.8183   -4.2218   -1.1315 H   0  0  0  0  0  0  0  0  0  0  0  0
    6.2770   -2.2219    0.6917 H   0  0  0  0  0  0  0  0  0  0  0  0
    6.3539   -5.1529    0.0664 H   0  0  0  0  0  0  0  0  0  0  0  0
    7.5464   -4.1788    0.8898 H   0  0  0  0  0  0  0  0  0  0  0  0
    7.1562   -6.3679    2.6433 H   0  0  0  0  0  0  0  0  0  0  0  0
    5.7988   -7.0131    4.6151 H   0  0  0  0  0  0  0  0  0  0  0  0
    3.8304   -6.6948    5.7769 H   0  0  0  0  0  0  0  0  0  0  0  0
    5.1908   -0.8781    2.4330 H   0  0  0  0  0  0  0  0  0  0  0  0
    2.5795   -0.6465    3.4895 H   0  0  0  0  0  0  0  0  0  0  0  0
    1.8188   -2.8963    1.7815 H   0  0  0  0  0  0  0  0  0  0  0  0
  1  2  1  0
  1 24  1  0
  1 25  1  0
  1 26  1  0
  2 10  1  0
  2  3  1  0
  3  4  1  0
  3 27  1  0
  3 28  1  0
  4  5  2  0
  4  6  1  0
  6  7  2  0
  6 29  1  0
  7  8  1  0
  7 30  1  0
  8 19  1  0
  8  9  1  6
  8 10  1  0
  9 31  1  0
 10 11  1  0
 10 32  1  1
 11 12  1  0
 11 33  1  0
 11 34  1  0
 12 18  2  0
 12 13  1  0
 13 14  2  0
 13 35  1  0
 14 15  1  0
 14 36  1  0
 15 16  1  0
 15 17  2  0
 16 37  1  0
 17 23  1  0
 17 18  1  0
 18 19  1  0
 19 22  1  0
 19 20  1  1
 20 21  2  0
 20 38  1  0
 21 22  1  0
 21 39  1  0
 22 23  1  0
 22 40  1  6
M  END
>  <i_m_ct_stereo_status>  (43) 
1

>  <s_m_source_file>  (43) 
/var/tmp/pbs.5076255.sched01/tmp0qfm3vo4/0bcu552to.sdf

>  <i_m_source_file_index>  (43) 
16

>  <i_lp_mmshare_version>  (43) 
48012

>  <i_f3d_flags>  (43) 
0

>  <s_epik_input>  (43) 
W0NIXTE9W0NIXUMoPU8pW0NIMl1OKFtDSDNdKVtDQEBIXShbQ0BdMShbQ0BAXTIzNClbT0hdKVtDSDJdYzVjMmMoYyhbT0hdKVtjSF1bY0hdNSlPW0NASF00W0NIXT1bQ0hdMw==

>  <s_epik_cmdline>  (43) 
J2VwaWtfcHl0aG9uJywgJy1waHQnLCAnMi4wJywgJy1waCcsICc3LjAnLCAnLXRuJywgJzgnLCAnLW1hJywgJzIwMCcsICctaW1hZScsICc8aW5maWxlLm1hZT4nLCAnLW9tYWUnLCAnPG91dGZpbGUubWFlPic=

>  <r_lp_tautomer_probability>  (43) 
1

>  <r_epik_Ionization_Penalty>  (43) 
0.260043

>  <r_epik_Ionization_Penalty_Charging>  (43) 
0

>  <r_epik_Ionization_Penalty_Neutral>  (43) 
0.260043

>  <r_epik_State_Penalty>  (43) 
0.167671

>  <r_epik_Charging_Adjusted_Penalty>  (43) 
0.167671

>  <i_epik_Tot_Q>  (43) 
0

>  <i_epik_Tot_abs_Q>  (43) 
0

>  <s_lp_Force_Field>  (43) 
OPLS3e

>  <r_lp_Energy>  (43) 
54.6049

>  <b_lp_Chiralities_Consistent>  (43) 
1

>  <s_lp_Variant>  (43) 
12:0-1

>  <s_i_glide_gridfile>  (43) 
pfpi4k_grid

>  <i_i_glide_lignum>  (43) 
16

>  <i_i_glide_rotatable_bonds>  (43) 
2

>  <r_i_docking_score>  (43) 
-4.07211

>  <r_i_glide_ligand_efficiency>  (43) 
-0.177048

>  <r_i_glide_ligand_efficiency_sa>  (43) 
-0.503502

>  <r_i_glide_ligand_efficiency_ln>  (43) 
-0.984673

>  <r_i_glide_gscore>  (43) 
-4.07211

>  <r_i_glide_lipo>  (43) 
-0.475133

>  <r_i_glide_hbond>  (43) 
-0.242279

>  <r_i_glide_metal>  (43) 
-0

>  <r_i_glide_rewards>  (43) 
-1.42416

>  <r_i_glide_evdw>  (43) 
-22.6906

>  <r_i_glide_ecoul>  (43) 
-5.30676

>  <r_i_glide_erotb>  (43) 
0

>  <r_i_glide_esite>  (43) 
0

>  <r_i_glide_emodel>  (43) 
-35.3986

>  <r_i_glide_energy>  (43) 
-27.9973

>  <r_i_glide_einternal>  (43) 
0.0261899

>  <r_i_glide_intrahb_reward>  (43) 
-0

>  <i_i_glide_confnum>  (43) 
2

>  <i_i_glide_posenum>  (43) 
31

>  <r_i_glide_eff_state_penalty>  (43) 
0

>  <ligand_id>  (43) 
12

>  <original_smiles>  (43) 
CN1CC(=O)C=CC2(O)C1Cc1ccc(O)c3c1C21C=CC1O3

>  <smiles>  (43) 
[H]Oc1c([H])c([H])c2c3c1OC1([H])C([H])=C([H])C31C1(O[H])C([H])=C([H])C(=O)C([H])([H])N(C([H])([H])[H])C1([H])C2([H])[H]

$$$$
12:0:1
     RDKit          3D

 40 44  0  0  1  0  0  0  0  0999 V2000
    1.5988   -1.7775    8.3281 C   0  0  0  0  0  0  0  0  0  0  0  0
    1.0794   -1.9454    6.9739 N   0  0  0  0  0  0  0  0  0  0  0  0
   -0.0053   -2.9127    6.8563 C   0  0  0  0  0  0  0  0  0  0  0  0
    0.1987   -3.8843    5.6911 C   0  0  0  0  0  0  0  0  0  0  0  0
   -0.1462   -5.0532    5.8620 O   0  0  0  0  0  0  0  0  0  0  0  0
    0.7894   -3.4339    4.4104 C   0  0  0  0  0  0  0  0  0  0  0  0
    0.9041   -2.1531    3.9966 C   0  0  0  0  0  0  0  0  0  0  0  0
    0.4279   -0.8830    4.6994 C   0  0  1  0  0  0  0  0  0  0  0  0
   -0.9919   -0.8920    4.7037 O   0  0  0  0  0  0  0  0  0  0  0  0
    0.9805   -0.7238    6.1583 C   0  0  1  0  0  0  0  0  0  0  0  0
    0.3835    0.5140    6.8866 C   0  0  0  0  0  0  0  0  0  0  0  0
    0.1785    1.7766    6.0537 C   0  0  0  0  0  0  0  0  0  0  0  0
   -0.2992    3.0270    6.5040 C   0  0  0  0  0  0  0  0  0  0  0  0
   -0.6148    4.0411    5.5694 C   0  0  0  0  0  0  0  0  0  0  0  0
   -0.4986    3.8105    4.1735 C   0  0  0  0  0  0  0  0  0  0  0  0
   -0.8686    4.7781    3.2786 O   0  0  0  0  0  0  0  0  0  0  0  0
   -0.0174    2.5704    3.7031 C   0  0  0  0  0  0  0  0  0  0  0  0
    0.3387    1.6410    4.6653 C   0  0  0  0  0  0  0  0  0  0  0  0
    0.8081    0.4158    3.9338 C   0  0  1  0  0  0  0  0  0  0  0  0
    2.2772    0.4732    3.4860 C   0  0  0  0  0  0  0  0  0  0  0  0
    1.9814    0.6539    2.1923 C   0  0  0  0  0  0  0  0  0  0  0  0
    0.4943    0.7554    2.4449 C   0  0  2  0  0  0  0  0  0  0  0  0
    0.0630    2.1280    2.4111 O   0  0  0  0  0  0  0  0  0  0  0  0
    1.8838   -2.7386    8.7654 H   0  0  0  0  0  0  0  0  0  0  0  0
    0.8605   -1.3201    8.9940 H   0  0  0  0  0  0  0  0  0  0  0  0
    2.4895   -1.1545    8.3261 H   0  0  0  0  0  0  0  0  0  0  0  0
   -0.0378   -3.5355    7.7538 H   0  0  0  0  0  0  0  0  0  0  0  0
   -0.9812   -2.4271    6.7950 H   0  0  0  0  0  0  0  0  0  0  0  0
    1.1544   -4.2119    3.7546 H   0  0  0  0  0  0  0  0  0  0  0  0
    1.3462   -2.0004    3.0231 H   0  0  0  0  0  0  0  0  0  0  0  0
   -1.2745   -0.1957    4.1277 H   0  0  0  0  0  0  0  0  0  0  0  0
    2.0214   -0.4437    6.0138 H   0  0  0  0  0  0  0  0  0  0  0  0
   -0.5905    0.2535    7.2978 H   0  0  0  0  0  0  0  0  0  0  0  0
    1.0119    0.7841    7.7315 H   0  0  0  0  0  0  0  0  0  0  0  0
   -0.4592    3.1953    7.5578 H   0  0  0  0  0  0  0  0  0  0  0  0
   -0.9869    4.9902    5.9185 H   0  0  0  0  0  0  0  0  0  0  0  0
   -0.5809    4.5636    2.3882 H   0  0  0  0  0  0  0  0  0  0  0  0
    3.2202    0.3615    4.0162 H   0  0  0  0  0  0  0  0  0  0  0  0
    2.5783    0.7585    1.2915 H   0  0  0  0  0  0  0  0  0  0  0  0
   -0.1746    0.0560    1.9504 H   0  0  0  0  0  0  0  0  0  0  0  0
  1  2  1  0
  1 24  1  0
  1 25  1  0
  1 26  1  0
  2 10  1  0
  2  3  1  0
  3  4  1  0
  3 27  1  0
  3 28  1  0
  4  5  2  0
  4  6  1  0
  6  7  2  0
  6 29  1  0
  7  8  1  0
  7 30  1  0
  8 19  1  0
  8  9  1  1
  8 10  1  0
  9 31  1  0
 10 11  1  0
 10 32  1  6
 11 12  1  0
 11 33  1  0
 11 34  1  0
 12 18  2  0
 12 13  1  0
 13 14  2  0
 13 35  1  0
 14 15  1  0
 14 36  1  0
 15 16  1  0
 15 17  2  0
 16 37  1  0
 17 23  1  0
 17 18  1  0
 18 19  1  0
 19 22  1  0
 19 20  1  6
 20 21  2  0
 20 38  1  0
 21 22  1  0
 21 39  1  0
 22 23  1  0
 22 40  1  6
M  END
>  <i_m_ct_stereo_status>  (44) 
1

>  <s_m_source_file>  (44) 
/var/tmp/pbs.5076255.sched01/tmp0qfm3vo4/0bcu552to.sdf

>  <i_m_source_file_index>  (44) 
16

>  <i_lp_mmshare_version>  (44) 
48012

>  <i_f3d_flags>  (44) 
0

>  <s_epik_input>  (44) 
W0NIXTE9W0NIXUMoPU8pW0NIMl1OKFtDSDNdKVtDQEBIXShbQ0BdMShbQ0BAXTIzNClbT0hdKVtDSDJdYzVjMmMoYyhbT0hdKVtjSF1bY0hdNSlPW0NASF00W0NIXT1bQ0hdMw==

>  <s_epik_cmdline>  (44) 
J2VwaWtfcHl0aG9uJywgJy1waHQnLCAnMi4wJywgJy1waCcsICc3LjAnLCAnLXRuJywgJzgnLCAnLW1hJywgJzIwMCcsICctaW1hZScsICc8aW5maWxlLm1hZT4nLCAnLW9tYWUnLCAnPG91dGZpbGUubWFlPic=

>  <r_lp_tautomer_probability>  (44) 
1

>  <r_epik_Ionization_Penalty>  (44) 
0.260043

>  <r_epik_Ionization_Penalty_Charging>  (44) 
0

>  <r_epik_Ionization_Penalty_Neutral>  (44) 
0.260043

>  <r_epik_State_Penalty>  (44) 
0.167671

>  <r_epik_Charging_Adjusted_Penalty>  (44) 
0.167671

>  <i_epik_Tot_Q>  (44) 
0

>  <i_epik_Tot_abs_Q>  (44) 
0

>  <s_lp_Force_Field>  (44) 
OPLS3e

>  <r_lp_Energy>  (44) 
54.6049

>  <b_lp_Chiralities_Consistent>  (44) 
1

>  <s_lp_Variant>  (44) 
12:0-1

>  <s_i_glide_gridfile>  (44) 
pfpi4k_grid

>  <i_i_glide_lignum>  (44) 
16

>  <i_i_glide_rotatable_bonds>  (44) 
2

>  <r_i_docking_score>  (44) 
-3.1283

>  <r_i_glide_ligand_efficiency>  (44) 
-0.136013

>  <r_i_glide_ligand_efficiency_sa>  (44) 
-0.386803

>  <r_i_glide_ligand_efficiency_ln>  (44) 
-0.756452

>  <r_i_glide_gscore>  (44) 
-3.1283

>  <r_i_glide_lipo>  (44) 
-0.0452097

>  <r_i_glide_hbond>  (44) 
0

>  <r_i_glide_metal>  (44) 
-0

>  <r_i_glide_rewards>  (44) 
-1.28637

>  <r_i_glide_evdw>  (44) 
-17.4926

>  <r_i_glide_ecoul>  (44) 
-6.10413

>  <r_i_glide_erotb>  (44) 
0

>  <r_i_glide_esite>  (44) 
-0.00646777

>  <r_i_glide_emodel>  (44) 
-28.7352

>  <r_i_glide_energy>  (44) 
-23.5968

>  <r_i_glide_einternal>  (44) 
0.853471

>  <r_i_glide_intrahb_reward>  (44) 
-0

>  <i_i_glide_confnum>  (44) 
2

>  <i_i_glide_posenum>  (44) 
27

>  <r_i_glide_eff_state_penalty>  (44) 
0

>  <ligand_id>  (44) 
12

>  <original_smiles>  (44) 
CN1CC(=O)C=CC2(O)C1Cc1ccc(O)c3c1C21C=CC1O3

>  <smiles>  (44) 
[H]Oc1c([H])c([H])c2c3c1OC1([H])C([H])=C([H])C31C1(O[H])C([H])=C([H])C(=O)C([H])([H])N(C([H])([H])[H])C1([H])C2([H])[H]

$$$$
12:0:2
     RDKit          3D

 40 44  0  0  1  0  0  0  0  0999 V2000
    1.6960   -3.1505    4.7123 C   0  0  0  0  0  0  0  0  0  0  0  0
    2.4635   -2.1351    3.9915 N   0  0  0  0  0  0  0  0  0  0  0  0
    2.9196   -2.5526    2.6681 C   0  0  0  0  0  0  0  0  0  0  0  0
    4.3968   -2.2116    2.4196 C   0  0  0  0  0  0  0  0  0  0  0  0
    5.0794   -3.0423    1.8187 O   0  0  0  0  0  0  0  0  0  0  0  0
    4.9861   -0.9527    2.9301 C   0  0  0  0  0  0  0  0  0  0  0  0
    4.2960    0.1283    3.3595 C   0  0  0  0  0  0  0  0  0  0  0  0
    2.7831    0.3559    3.3486 C   0  0  1  0  0  0  0  0  0  0  0  0
    2.3686    0.4020    1.9936 O   0  0  0  0  0  0  0  0  0  0  0  0
    1.9845   -0.7453    4.1224 C   0  0  1  0  0  0  0  0  0  0  0  0
    0.4510   -0.5576    3.9881 C   0  0  0  0  0  0  0  0  0  0  0  0
   -0.0820    0.8772    4.0282 C   0  0  0  0  0  0  0  0  0  0  0  0
   -1.4191    1.2913    3.9989 C   0  0  0  0  0  0  0  0  0  0  0  0
   -1.7528    2.6602    3.8406 C   0  0  0  0  0  0  0  0  0  0  0  0
   -0.7453    3.6368    3.6793 C   0  0  0  0  0  0  0  0  0  0  0  0
   -1.0802    4.9333    3.4080 O   0  0  0  0  0  0  0  0  0  0  0  0
    0.6121    3.2505    3.7334 C   0  0  0  0  0  0  0  0  0  0  0  0
    0.8733    1.9038    3.9455 C   0  0  0  0  0  0  0  0  0  0  0  0
    2.3593    1.7263    3.9549 C   0  0  1  0  0  0  0  0  0  0  0  0
    3.0255    2.0308    5.3050 C   0  0  0  0  0  0  0  0  0  0  0  0
    3.5575    3.1891    4.8890 C   0  0  0  0  0  0  0  0  0  0  0  0
    2.8566    3.1407    3.5417 C   0  0  2  0  0  0  0  0  0  0  0  0
    1.7220    4.0267    3.5364 O   0  0  0  0  0  0  0  0  0  0  0  0
    2.2501   -4.0897    4.7819 H   0  0  0  0  0  0  0  0  0  0  0  0
    0.7439   -3.3629    4.2240 H   0  0  0  0  0  0  0  0  0  0  0  0
    1.4964   -2.8264    5.7327 H   0  0  0  0  0  0  0  0  0  0  0  0
    2.8611   -3.6395    2.5892 H   0  0  0  0  0  0  0  0  0  0  0  0
    2.2843   -2.1652    1.8695 H   0  0  0  0  0  0  0  0  0  0  0  0
    6.0663   -0.9113    2.9760 H   0  0  0  0  0  0  0  0  0  0  0  0
    4.8758    0.9678    3.7027 H   0  0  0  0  0  0  0  0  0  0  0  0
    1.4674    0.6964    1.9704 H   0  0  0  0  0  0  0  0  0  0  0  0
    2.1690   -0.5220    5.1728 H   0  0  0  0  0  0  0  0  0  0  0  0
    0.1223   -0.9916    3.0431 H   0  0  0  0  0  0  0  0  0  0  0  0
   -0.0614   -1.1147    4.7742 H   0  0  0  0  0  0  0  0  0  0  0  0
   -2.1947    0.5472    4.0341 H   0  0  0  0  0  0  0  0  0  0  0  0
   -2.7884    2.9554    3.7739 H   0  0  0  0  0  0  0  0  0  0  0  0
   -0.4703    5.2711    2.7596 H   0  0  0  0  0  0  0  0  0  0  0  0
    3.0921    1.4849    6.2403 H   0  0  0  0  0  0  0  0  0  0  0  0
    4.1849    3.9331    5.3666 H   0  0  0  0  0  0  0  0  0  0  0  0
    3.4160    3.1413    2.6120 H   0  0  0  0  0  0  0  0  0  0  0  0
  1  2  1  0
  1 24  1  0
  1 25  1  0
  1 26  1  0
  2 10  1  0
  2  3  1  0
  3  4  1  0
  3 27  1  0
  3 28  1  0
  4  5  2  0
  4  6  1  0
  6  7  2  0
  6 29  1  0
  7  8  1  0
  7 30  1  0
  8 19  1  0
  8  9  1  6
  8 10  1  0
  9 31  1  0
 10 11  1  0
 10 32  1  1
 11 12  1  0
 11 33  1  0
 11 34  1  0
 12 18  2  0
 12 13  1  0
 13 14  2  0
 13 35  1  0
 14 15  1  0
 14 36  1  0
 15 16  1  0
 15 17  2  0
 16 37  1  0
 17 23  1  0
 17 18  1  0
 18 19  1  0
 19 22  1  0
 19 20  1  1
 20 21  2  0
 20 38  1  0
 21 22  1  0
 21 39  1  0
 22 23  1  0
 22 40  1  6
M  END
>  <i_m_ct_stereo_status>  (45) 
1

>  <s_m_source_file>  (45) 
/var/tmp/pbs.5076255.sched01/tmp0qfm3vo4/0bcu552to.sdf

>  <i_m_source_file_index>  (45) 
16

>  <i_lp_mmshare_version>  (45) 
48012

>  <i_f3d_flags>  (45) 
0

>  <s_epik_input>  (45) 
W0NIXTE9W0NIXUMoPU8pW0NIMl1OKFtDSDNdKVtDQEBIXShbQ0BdMShbQ0BAXTIzNClbT0hdKVtDSDJdYzVjMmMoYyhbT0hdKVtjSF1bY0hdNSlPW0NASF00W0NIXT1bQ0hdMw==

>  <s_epik_cmdline>  (45) 
J2VwaWtfcHl0aG9uJywgJy1waHQnLCAnMi4wJywgJy1waCcsICc3LjAnLCAnLXRuJywgJzgnLCAnLW1hJywgJzIwMCcsICctaW1hZScsICc8aW5maWxlLm1hZT4nLCAnLW9tYWUnLCAnPG91dGZpbGUubWFlPic=

>  <r_lp_tautomer_probability>  (45) 
1

>  <r_epik_Ionization_Penalty>  (45) 
0.260043

>  <r_epik_Ionization_Penalty_Charging>  (45) 
0

>  <r_epik_Ionization_Penalty_Neutral>  (45) 
0.260043

>  <r_epik_State_Penalty>  (45) 
0.167671

>  <r_epik_Charging_Adjusted_Penalty>  (45) 
0.167671

>  <i_epik_Tot_Q>  (45) 
0

>  <i_epik_Tot_abs_Q>  (45) 
0

>  <s_lp_Force_Field>  (45) 
OPLS3e

>  <r_lp_Energy>  (45) 
54.6049

>  <b_lp_Chiralities_Consistent>  (45) 
1

>  <s_lp_Variant>  (45) 
12:0-1

>  <s_i_glide_gridfile>  (45) 
pfpi4k_grid

>  <i_i_glide_lignum>  (45) 
16

>  <i_i_glide_rotatable_bonds>  (45) 
2

>  <r_i_docking_score>  (45) 
-3.12713

>  <r_i_glide_ligand_efficiency>  (45) 
-0.135962

>  <r_i_glide_ligand_efficiency_sa>  (45) 
-0.386659

>  <r_i_glide_ligand_efficiency_ln>  (45) 
-0.756169

>  <r_i_glide_gscore>  (45) 
-3.12713

>  <r_i_glide_lipo>  (45) 
-0.121615

>  <r_i_glide_hbond>  (45) 
0

>  <r_i_glide_metal>  (45) 
-0

>  <r_i_glide_rewards>  (45) 
-1.3138

>  <r_i_glide_evdw>  (45) 
-18.061

>  <r_i_glide_ecoul>  (45) 
-5.25778

>  <r_i_glide_erotb>  (45) 
0

>  <r_i_glide_esite>  (45) 
0

>  <r_i_glide_emodel>  (45) 
-27.5339

>  <r_i_glide_energy>  (45) 
-23.3188

>  <r_i_glide_einternal>  (45) 
1.79786

>  <r_i_glide_intrahb_reward>  (45) 
-0

>  <i_i_glide_confnum>  (45) 
1

>  <i_i_glide_posenum>  (45) 
3

>  <r_i_glide_eff_state_penalty>  (45) 
0

>  <ligand_id>  (45) 
12

>  <original_smiles>  (45) 
CN1CC(=O)C=CC2(O)C1Cc1ccc(O)c3c1C21C=CC1O3

>  <smiles>  (45) 
[H]Oc1c([H])c([H])c2c3c1OC1([H])C([H])=C([H])C31C1(O[H])C([H])=C([H])C(=O)C([H])([H])N(C([H])([H])[H])C1([H])C2([H])[H]

$$$$
12:1:0
     RDKit          3D

 41 45  0  0  1  0  0  0  0  0999 V2000
    4.6541   -4.4495   -3.7777 C   0  0  0  0  0  0  0  0  0  0  0  0
    3.8983   -3.7172   -2.7384 N   0  0  2  0  0  0  0  0  0  0  0  0
    3.0750   -2.6289   -3.3171 C   0  0  0  0  0  0  0  0  0  0  0  0
    3.8860   -1.3663   -3.4837 C   0  0  0  0  0  0  0  0  0  0  0  0
    4.1909   -1.0360   -4.6288 O   0  0  0  0  0  0  0  0  0  0  0  0
    4.2476   -0.5887   -2.2961 C   0  0  0  0  0  0  0  0  0  0  0  0
    4.2137   -1.0374   -1.0223 C   0  0  0  0  0  0  0  0  0  0  0  0
    3.9954   -2.4460   -0.4821 C   0  0  1  0  0  0  0  0  0  0  0  0
    2.6151   -2.7050   -0.3810 O   0  0  0  0  0  0  0  0  0  0  0  0
    4.6294   -3.5147   -1.4356 C   0  0  1  0  0  0  0  0  0  0  0  0
    5.0118   -4.8731   -0.7349 C   0  0  0  0  0  0  0  0  0  0  0  0
    4.5969   -5.1258    0.7053 C   0  0  0  0  0  0  0  0  0  0  0  0
    4.3633   -6.3598    1.3497 C   0  0  0  0  0  0  0  0  0  0  0  0
    3.9225   -6.3495    2.7002 C   0  0  0  0  0  0  0  0  0  0  0  0
    3.7331   -5.1383    3.4096 C   0  0  0  0  0  0  0  0  0  0  0  0
    3.2557   -5.1465    4.6855 O   0  0  0  0  0  0  0  0  0  0  0  0
    4.0060   -3.8974    2.7846 C   0  0  0  0  0  0  0  0  0  0  0  0
    4.4286   -3.9697    1.4684 C   0  0  0  0  0  0  0  0  0  0  0  0
    4.5669   -2.5763    0.9561 C   0  0  1  0  0  0  0  0  0  0  0  0
    5.9454   -1.9583    1.2016 C   0  0  0  0  0  0  0  0  0  0  0  0
    5.5423   -1.2140    2.2269 C   0  0  0  0  0  0  0  0  0  0  0  0
    4.1146   -1.7200    2.1753 C   0  0  2  0  0  0  0  0  0  0  0  0
    3.8396   -2.6277    3.2580 O   0  0  0  0  0  0  0  0  0  0  0  0
    5.5040   -3.8798   -4.1693 H   0  0  0  0  0  0  0  0  0  0  0  0
    4.0076   -4.7350   -4.6073 H   0  0  0  0  0  0  0  0  0  0  0  0
    4.9748   -5.4019   -3.3809 H   0  0  0  0  0  0  0  0  0  0  0  0
    2.7562   -2.9123   -4.3208 H   0  0  0  0  0  0  0  0  0  0  0  0
    2.1544   -2.4192   -2.7712 H   0  0  0  0  0  0  0  0  0  0  0  0
    4.4688    0.4539   -2.4469 H   0  0  0  0  0  0  0  0  0  0  0  0
    4.4384   -0.3126   -0.2556 H   0  0  0  0  0  0  0  0  0  0  0  0
    2.0756   -1.9120   -0.5381 H   0  0  0  0  0  0  0  0  0  0  0  0
    5.5851   -3.0928   -1.7612 H   0  0  0  0  0  0  0  0  0  0  0  0
    4.7043   -5.7508   -1.2986 H   0  0  0  0  0  0  0  0  0  0  0  0
    6.0949   -4.8911   -0.7105 H   0  0  0  0  0  0  0  0  0  0  0  0
    4.4759   -7.3016    0.8219 H   0  0  0  0  0  0  0  0  0  0  0  0
    3.6954   -7.2876    3.1832 H   0  0  0  0  0  0  0  0  0  0  0  0
    3.1176   -6.0137    5.0258 H   0  0  0  0  0  0  0  0  0  0  0  0
    6.9168   -2.0697    0.7306 H   0  0  0  0  0  0  0  0  0  0  0  0
    6.0495   -0.5234    2.8955 H   0  0  0  0  0  0  0  0  0  0  0  0
    3.3275   -1.0051    1.9297 H   0  0  0  0  0  0  0  0  0  0  0  0
    3.1945   -4.4189   -2.4970 H   0  0  0  0  0  0  0  0  0  0  0  0
  1  2  1  0
  1 24  1  0
  1 25  1  0
  1 26  1  0
  2 10  1  0
  2  3  1  0
  2 41  1  1
  3  4  1  0
  3 27  1  0
  3 28  1  0
  4  5  2  0
  4  6  1  0
  6  7  2  0
  6 29  1  0
  7  8  1  0
  7 30  1  0
  8 19  1  0
  8  9  1  1
  8 10  1  0
  9 31  1  0
 10 11  1  0
 10 32  1  6
 11 12  1  0
 11 33  1  0
 11 34  1  0
 12 18  2  0
 12 13  1  0
 13 14  2  0
 13 35  1  0
 14 15  1  0
 14 36  1  0
 15 16  1  0
 15 17  2  0
 16 37  1  0
 17 23  1  0
 17 18  1  0
 18 19  1  0
 19 22  1  0
 19 20  1  6
 20 21  2  0
 20 38  1  0
 21 22  1  0
 21 39  1  0
 22 23  1  0
 22 40  1  6
M  CHG  1   2   1
M  END
>  <i_m_ct_stereo_status>  (46) 
1

>  <s_m_source_file>  (46) 
/var/tmp/pbs.5076255.sched01/tmp0qfm3vo4/0bcu552to.sdf

>  <i_m_source_file_index>  (46) 
17

>  <i_lp_mmshare_version>  (46) 
48012

>  <i_f3d_flags>  (46) 
0

>  <s_epik_input>  (46) 
W0NIXTE9W0NIXUMoPU8pW0NIMl1OKFtDSDNdKVtDQEBIXShbQ0BdMShbQ0BAXTIzNClbT0hdKVtDSDJdYzVjMmMoYyhbT0hdKVtjSF1bY0hdNSlPW0NASF00W0NIXT1bQ0hdMw==

>  <s_epik_cmdline>  (46) 
J2VwaWtfcHl0aG9uJywgJy1waHQnLCAnMi4wJywgJy1waCcsICc3LjAnLCAnLXRuJywgJzgnLCAnLW1hJywgJzIwMCcsICctaW1hZScsICc8aW5maWxlLm1hZT4nLCAnLW9tYWUnLCAnPG91dGZpbGUubWFlPic=

>  <r_lp_tautomer_probability>  (46) 
1

>  <r_epik_Ionization_Penalty>  (46) 
0.64836

>  <r_epik_Ionization_Penalty_Charging>  (46) 
0.620717

>  <r_epik_Ionization_Penalty_Neutral>  (46) 
0.0276429

>  <r_epik_State_Penalty>  (46) 
0.85858

>  <r_epik_Charging_Adjusted_Penalty>  (46) 
1.4793

>  <i_epik_Tot_Q>  (46) 
1

>  <i_epik_Tot_abs_Q>  (46) 
1

>  <s_lp_Force_Field>  (46) 
OPLS3e

>  <r_lp_Energy>  (46) 
60.4583

>  <b_lp_Chiralities_Consistent>  (46) 
1

>  <s_lp_Variant>  (46) 
12:0-2

>  <s_i_glide_gridfile>  (46) 
pfpi4k_grid

>  <i_i_glide_lignum>  (46) 
17

>  <i_i_glide_rotatable_bonds>  (46) 
2

>  <r_i_docking_score>  (46) 
-5.35256

>  <r_i_glide_ligand_efficiency>  (46) 
-0.23272

>  <r_i_glide_ligand_efficiency_sa>  (46) 
-0.661825

>  <r_i_glide_ligand_efficiency_ln>  (46) 
-1.2943

>  <r_i_glide_gscore>  (46) 
-5.35256

>  <r_i_glide_lipo>  (46) 
-0.572377

>  <r_i_glide_hbond>  (46) 
-0.449908

>  <r_i_glide_metal>  (46) 
-0

>  <r_i_glide_rewards>  (46) 
-1.52859

>  <r_i_glide_evdw>  (46) 
-18.71

>  <r_i_glide_ecoul>  (46) 
-12.1998

>  <r_i_glide_erotb>  (46) 
0

>  <r_i_glide_esite>  (46) 
-0.0362227

>  <r_i_glide_emodel>  (46) 
-40.0777

>  <r_i_glide_energy>  (46) 
-30.9098

>  <r_i_glide_einternal>  (46) 
1.02822

>  <r_i_glide_intrahb_reward>  (46) 
-0

>  <i_i_glide_confnum>  (46) 
1

>  <i_i_glide_posenum>  (46) 
25

>  <r_i_glide_eff_state_penalty>  (46) 
0

>  <ligand_id>  (46) 
12

>  <original_smiles>  (46) 
CN1CC(=O)C=CC2(O)C1Cc1ccc(O)c3c1C21C=CC1O3

>  <smiles>  (46) 
[H]Oc1c([H])c([H])c2c3c1OC1([H])C([H])=C([H])C31C1(O[H])C([H])=C([H])C(=O)C([H])([H])[N+]([H])(C([H])([H])[H])C1([H])C2([H])[H]

$$$$
12:1:1
     RDKit          3D

 41 45  0  0  1  0  0  0  0  0999 V2000
    4.8526   -4.3164   -3.8974 C   0  0  0  0  0  0  0  0  0  0  0  0
    3.8820   -3.7706   -2.9510 N   0  0  2  0  0  0  0  0  0  0  0  0
    3.0877   -2.7154   -3.5999 C   0  0  0  0  0  0  0  0  0  0  0  0
    3.8018   -1.3851   -3.5373 C   0  0  0  0  0  0  0  0  0  0  0  0
    4.2195   -0.9370   -4.6069 O   0  0  0  0  0  0  0  0  0  0  0  0
    3.9020   -0.6655   -2.2677 C   0  0  0  0  0  0  0  0  0  0  0  0
    3.6945   -1.2212   -1.0512 C   0  0  0  0  0  0  0  0  0  0  0  0
    3.5517   -2.6784   -0.6488 C   0  0  1  0  0  0  0  0  0  0  0  0
    2.2181   -3.0388   -0.8193 O   0  0  0  0  0  0  0  0  0  0  0  0
    4.4025   -3.6093   -1.5437 C   0  0  1  0  0  0  0  0  0  0  0  0
    4.8103   -4.9688   -0.8642 C   0  0  0  0  0  0  0  0  0  0  0  0
    4.1862   -5.3864    0.4651 C   0  0  0  0  0  0  0  0  0  0  0  0
    3.9618   -6.6848    0.9809 C   0  0  0  0  0  0  0  0  0  0  0  0
    3.2837   -6.8264    2.2193 C   0  0  0  0  0  0  0  0  0  0  0  0
    2.8357   -5.6905    2.9522 C   0  0  0  0  0  0  0  0  0  0  0  0
    2.1391   -5.8562    4.1144 O   0  0  0  0  0  0  0  0  0  0  0  0
    3.0788   -4.3923    2.4663 C   0  0  0  0  0  0  0  0  0  0  0  0
    3.7448   -4.3209    1.2527 C   0  0  0  0  0  0  0  0  0  0  0  0
    3.8228   -2.8866    0.8669 C   0  0  1  0  0  0  0  0  0  0  0  0
    5.0582   -2.1625    1.3958 C   0  0  0  0  0  0  0  0  0  0  0  0
    4.3912   -1.5397    2.3838 C   0  0  0  0  0  0  0  0  0  0  0  0
    3.0620   -2.1716    2.0219 C   0  0  2  0  0  0  0  0  0  0  0  0
    2.6914   -3.1794    2.9821 O   0  0  0  0  0  0  0  0  0  0  0  0
    5.7531   -3.7199   -4.0256 H   0  0  0  0  0  0  0  0  0  0  0  0
    4.4435   -4.6322   -4.8535 H   0  0  0  0  0  0  0  0  0  0  0  0
    5.0302   -5.2390   -3.4019 H   0  0  0  0  0  0  0  0  0  0  0  0
    2.9910   -2.9543   -4.6587 H   0  0  0  0  0  0  0  0  0  0  0  0
    2.0675   -2.6429   -3.2286 H   0  0  0  0  0  0  0  0  0  0  0  0
    4.0489    0.4017   -2.3325 H   0  0  0  0  0  0  0  0  0  0  0  0
    3.6767   -0.5521   -0.2150 H   0  0  0  0  0  0  0  0  0  0  0  0
    1.7142   -2.2311   -0.7606 H   0  0  0  0  0  0  0  0  0  0  0  0
    5.3457   -3.0793   -1.6678 H   0  0  0  0  0  0  0  0  0  0  0  0
    4.7061   -5.8387   -1.5029 H   0  0  0  0  0  0  0  0  0  0  0  0
    5.8782   -4.9044   -0.6752 H   0  0  0  0  0  0  0  0  0  0  0  0
    4.2623   -7.5668    0.4217 H   0  0  0  0  0  0  0  0  0  0  0  0
    3.0783   -7.8159    2.5943 H   0  0  0  0  0  0  0  0  0  0  0  0
    2.0716   -6.7566    4.3899 H   0  0  0  0  0  0  0  0  0  0  0  0
    6.0951   -2.1284    1.1002 H   0  0  0  0  0  0  0  0  0  0  0  0
    4.6931   -0.8547    3.1606 H   0  0  0  0  0  0  0  0  0  0  0  0
    2.2608   -1.5153    1.6784 H   0  0  0  0  0  0  0  0  0  0  0  0
    3.2273   -4.5436   -2.8541 H   0  0  0  0  0  0  0  0  0  0  0  0
  1  2  1  0
  1 24  1  0
  1 25  1  0
  1 26  1  0
  2 10  1  0
  2  3  1  0
  2 41  1  1
  3  4  1  0
  3 27  1  0
  3 28  1  0
  4  5  2  0
  4  6  1  0
  6  7  2  0
  6 29  1  0
  7  8  1  0
  7 30  1  0
  8 19  1  0
  8  9  1  1
  8 10  1  0
  9 31  1  0
 10 11  1  0
 10 32  1  6
 11 12  1  0
 11 33  1  0
 11 34  1  0
 12 18  2  0
 12 13  1  0
 13 14  2  0
 13 35  1  0
 14 15  1  0
 14 36  1  0
 15 16  1  0
 15 17  2  0
 16 37  1  0
 17 23  1  0
 17 18  1  0
 18 19  1  0
 19 22  1  0
 19 20  1  6
 20 21  2  0
 20 38  1  0
 21 22  1  0
 21 39  1  0
 22 23  1  0
 22 40  1  6
M  CHG  1   2   1
M  END
>  <i_m_ct_stereo_status>  (47) 
1

>  <s_m_source_file>  (47) 
/var/tmp/pbs.5076255.sched01/tmp0qfm3vo4/0bcu552to.sdf

>  <i_m_source_file_index>  (47) 
17

>  <i_lp_mmshare_version>  (47) 
48012

>  <i_f3d_flags>  (47) 
0

>  <s_epik_input>  (47) 
W0NIXTE9W0NIXUMoPU8pW0NIMl1OKFtDSDNdKVtDQEBIXShbQ0BdMShbQ0BAXTIzNClbT0hdKVtDSDJdYzVjMmMoYyhbT0hdKVtjSF1bY0hdNSlPW0NASF00W0NIXT1bQ0hdMw==

>  <s_epik_cmdline>  (47) 
J2VwaWtfcHl0aG9uJywgJy1waHQnLCAnMi4wJywgJy1waCcsICc3LjAnLCAnLXRuJywgJzgnLCAnLW1hJywgJzIwMCcsICctaW1hZScsICc8aW5maWxlLm1hZT4nLCAnLW9tYWUnLCAnPG91dGZpbGUubWFlPic=

>  <r_lp_tautomer_probability>  (47) 
1

>  <r_epik_Ionization_Penalty>  (47) 
0.64836

>  <r_epik_Ionization_Penalty_Charging>  (47) 
0.620717

>  <r_epik_Ionization_Penalty_Neutral>  (47) 
0.0276429

>  <r_epik_State_Penalty>  (47) 
0.85858

>  <r_epik_Charging_Adjusted_Penalty>  (47) 
1.4793

>  <i_epik_Tot_Q>  (47) 
1

>  <i_epik_Tot_abs_Q>  (47) 
1

>  <s_lp_Force_Field>  (47) 
OPLS3e

>  <r_lp_Energy>  (47) 
60.4583

>  <b_lp_Chiralities_Consistent>  (47) 
1

>  <s_lp_Variant>  (47) 
12:0-2

>  <s_i_glide_gridfile>  (47) 
pfpi4k_grid

>  <i_i_glide_lignum>  (47) 
17

>  <i_i_glide_rotatable_bonds>  (47) 
2

>  <r_i_docking_score>  (47) 
-5.15198

>  <r_i_glide_ligand_efficiency>  (47) 
-0.223999

>  <r_i_glide_ligand_efficiency_sa>  (47) 
-0.637024

>  <r_i_glide_ligand_efficiency_ln>  (47) 
-1.2458

>  <r_i_glide_gscore>  (47) 
-5.15198

>  <r_i_glide_lipo>  (47) 
-0.481323

>  <r_i_glide_hbond>  (47) 
-0.400217

>  <r_i_glide_metal>  (47) 
-0

>  <r_i_glide_rewards>  (47) 
-1.55743

>  <r_i_glide_evdw>  (47) 
-16.377

>  <r_i_glide_ecoul>  (47) 
-12.4572

>  <r_i_glide_erotb>  (47) 
0

>  <r_i_glide_esite>  (47) 
-0.0255812

>  <r_i_glide_emodel>  (47) 
-37.0395

>  <r_i_glide_energy>  (47) 
-28.8342

>  <r_i_glide_einternal>  (47) 
0.73706

>  <r_i_glide_intrahb_reward>  (47) 
-0

>  <i_i_glide_confnum>  (47) 
2

>  <i_i_glide_posenum>  (47) 
1

>  <r_i_glide_eff_state_penalty>  (47) 
0

>  <ligand_id>  (47) 
12

>  <original_smiles>  (47) 
CN1CC(=O)C=CC2(O)C1Cc1ccc(O)c3c1C21C=CC1O3

>  <smiles>  (47) 
[H]Oc1c([H])c([H])c2c3c1OC1([H])C([H])=C([H])C31C1(O[H])C([H])=C([H])C(=O)C([H])([H])[N+]([H])(C([H])([H])[H])C1([H])C2([H])[H]

$$$$
12:1:2
     RDKit          3D

 41 45  0  0  1  0  0  0  0  0999 V2000
    1.4803   -3.2218    3.5325 C   0  0  0  0  0  0  0  0  0  0  0  0
    1.9086   -1.9509    2.8805 N   0  0  2  0  0  0  0  0  0  0  0  0
    3.0979   -2.1666    2.0063 C   0  0  0  0  0  0  0  0  0  0  0  0
    4.4262   -2.1081    2.7531 C   0  0  0  0  0  0  0  0  0  0  0  0
    5.0479   -3.1626    2.8805 O   0  0  0  0  0  0  0  0  0  0  0  0
    4.9556   -0.8153    3.2191 C   0  0  0  0  0  0  0  0  0  0  0  0
    4.2077    0.2952    3.3740 C   0  0  0  0  0  0  0  0  0  0  0  0
    2.6950    0.4902    3.2809 C   0  0  1  0  0  0  0  0  0  0  0  0
    2.3416    0.7003    1.9280 O   0  0  0  0  0  0  0  0  0  0  0  0
    1.9000   -0.7553    3.7985 C   0  0  1  0  0  0  0  0  0  0  0  0
    0.4586   -0.4563    4.3320 C   0  0  0  0  0  0  0  0  0  0  0  0
   -0.1406    0.9359    4.1330 C   0  0  0  0  0  0  0  0  0  0  0  0
   -1.4876    1.3138    4.0319 C   0  0  0  0  0  0  0  0  0  0  0  0
   -1.8319    2.6656    3.7688 C   0  0  0  0  0  0  0  0  0  0  0  0
   -0.8330    3.6607    3.6339 C   0  0  0  0  0  0  0  0  0  0  0  0
   -1.1769    4.9275    3.3023 O   0  0  0  0  0  0  0  0  0  0  0  0
    0.5274    3.3042    3.7610 C   0  0  0  0  0  0  0  0  0  0  0  0
    0.7933    1.9699    4.0068 C   0  0  0  0  0  0  0  0  0  0  0  0
    2.2643    1.7879    4.0300 C   0  0  1  0  0  0  0  0  0  0  0  0
    2.8997    2.0082    5.4071 C   0  0  0  0  0  0  0  0  0  0  0  0
    3.3624    3.2269    5.1101 C   0  0  0  0  0  0  0  0  0  0  0  0
    2.7728    3.2259    3.7141 C   0  0  2  0  0  0  0  0  0  0  0  0
    1.6346    4.0969    3.6217 O   0  0  0  0  0  0  0  0  0  0  0  0
    2.1985   -3.5445    4.2857 H   0  0  0  0  0  0  0  0  0  0  0  0
    1.3879   -4.0229    2.7972 H   0  0  0  0  0  0  0  0  0  0  0  0
    0.5072   -3.1434    4.0106 H   0  0  0  0  0  0  0  0  0  0  0  0
    3.0433   -3.1620    1.5741 H   0  0  0  0  0  0  0  0  0  0  0  0
    3.1288   -1.4895    1.1529 H   0  0  0  0  0  0  0  0  0  0  0  0
    6.0266   -0.7392    3.3857 H   0  0  0  0  0  0  0  0  0  0  0  0
    4.7374    1.1802    3.6783 H   0  0  0  0  0  0  0  0  0  0  0  0
    1.4592    1.0498    1.8953 H   0  0  0  0  0  0  0  0  0  0  0  0
    2.4527   -1.0928    4.6794 H   0  0  0  0  0  0  0  0  0  0  0  0
   -0.2846   -1.1596    3.9545 H   0  0  0  0  0  0  0  0  0  0  0  0
    0.4880   -0.6117    5.4082 H   0  0  0  0  0  0  0  0  0  0  0  0
   -2.2656    0.5654    4.0960 H   0  0  0  0  0  0  0  0  0  0  0  0
   -2.8606    2.9372    3.6132 H   0  0  0  0  0  0  0  0  0  0  0  0
   -0.5569    5.2406    2.6430 H   0  0  0  0  0  0  0  0  0  0  0  0
    2.9718    1.4045    6.3083 H   0  0  0  0  0  0  0  0  0  0  0  0
    3.9212    3.9686    5.6717 H   0  0  0  0  0  0  0  0  0  0  0  0
    3.4157    3.2522    2.8438 H   0  0  0  0  0  0  0  0  0  0  0  0
    1.1978   -1.7522    2.1883 H   0  0  0  0  0  0  0  0  0  0  0  0
  1  2  1  0
  1 24  1  0
  1 25  1  0
  1 26  1  0
  2 10  1  0
  2  3  1  0
  2 41  1  6
  3  4  1  0
  3 27  1  0
  3 28  1  0
  4  5  2  0
  4  6  1  0
  6  7  2  0
  6 29  1  0
  7  8  1  0
  7 30  1  0
  8 19  1  0
  8  9  1  6
  8 10  1  0
  9 31  1  0
 10 11  1  0
 10 32  1  1
 11 12  1  0
 11 33  1  0
 11 34  1  0
 12 18  2  0
 12 13  1  0
 13 14  2  0
 13 35  1  0
 14 15  1  0
 14 36  1  0
 15 16  1  0
 15 17  2  0
 16 37  1  0
 17 23  1  0
 17 18  1  0
 18 19  1  0
 19 22  1  0
 19 20  1  1
 20 21  2  0
 20 38  1  0
 21 22  1  0
 21 39  1  0
 22 23  1  0
 22 40  1  6
M  CHG  1   2   1
M  END
>  <i_m_ct_stereo_status>  (48) 
1

>  <s_m_source_file>  (48) 
/var/tmp/pbs.5076255.sched01/tmp0qfm3vo4/0bcu552to.sdf

>  <i_m_source_file_index>  (48) 
17

>  <i_lp_mmshare_version>  (48) 
48012

>  <i_f3d_flags>  (48) 
0

>  <s_epik_input>  (48) 
W0NIXTE9W0NIXUMoPU8pW0NIMl1OKFtDSDNdKVtDQEBIXShbQ0BdMShbQ0BAXTIzNClbT0hdKVtDSDJdYzVjMmMoYyhbT0hdKVtjSF1bY0hdNSlPW0NASF00W0NIXT1bQ0hdMw==

>  <s_epik_cmdline>  (48) 
J2VwaWtfcHl0aG9uJywgJy1waHQnLCAnMi4wJywgJy1waCcsICc3LjAnLCAnLXRuJywgJzgnLCAnLW1hJywgJzIwMCcsICctaW1hZScsICc8aW5maWxlLm1hZT4nLCAnLW9tYWUnLCAnPG91dGZpbGUubWFlPic=

>  <r_lp_tautomer_probability>  (48) 
1

>  <r_epik_Ionization_Penalty>  (48) 
0.64836

>  <r_epik_Ionization_Penalty_Charging>  (48) 
0.620717

>  <r_epik_Ionization_Penalty_Neutral>  (48) 
0.0276429

>  <r_epik_State_Penalty>  (48) 
0.85858

>  <r_epik_Charging_Adjusted_Penalty>  (48) 
1.4793

>  <i_epik_Tot_Q>  (48) 
1

>  <i_epik_Tot_abs_Q>  (48) 
1

>  <s_lp_Force_Field>  (48) 
OPLS3e

>  <r_lp_Energy>  (48) 
60.4583

>  <b_lp_Chiralities_Consistent>  (48) 
1

>  <s_lp_Variant>  (48) 
12:0-2

>  <s_i_glide_gridfile>  (48) 
pfpi4k_grid

>  <i_i_glide_lignum>  (48) 
17

>  <i_i_glide_rotatable_bonds>  (48) 
2

>  <r_i_docking_score>  (48) 
-3.73246

>  <r_i_glide_ligand_efficiency>  (48) 
-0.162281

>  <r_i_glide_ligand_efficiency_sa>  (48) 
-0.461506

>  <r_i_glide_ligand_efficiency_ln>  (48) 
-0.902543

>  <r_i_glide_gscore>  (48) 
-3.73246

>  <r_i_glide_lipo>  (48) 
-0.142615

>  <r_i_glide_hbond>  (48) 
0

>  <r_i_glide_metal>  (48) 
-0

>  <r_i_glide_rewards>  (48) 
-1.31103

>  <r_i_glide_evdw>  (48) 
-17.5823

>  <r_i_glide_ecoul>  (48) 
-9.27936

>  <r_i_glide_erotb>  (48) 
0

>  <r_i_glide_esite>  (48) 
-0.00779863

>  <r_i_glide_emodel>  (48) 
-31.8348

>  <r_i_glide_energy>  (48) 
-26.8617

>  <r_i_glide_einternal>  (48) 
1.77761

>  <r_i_glide_intrahb_reward>  (48) 
-0

>  <i_i_glide_confnum>  (48) 
2

>  <i_i_glide_posenum>  (48) 
3

>  <r_i_glide_eff_state_penalty>  (48) 
0

>  <ligand_id>  (48) 
12

>  <original_smiles>  (48) 
CN1CC(=O)C=CC2(O)C1Cc1ccc(O)c3c1C21C=CC1O3

>  <smiles>  (48) 
[H]Oc1c([H])c([H])c2c3c1OC1([H])C([H])=C([H])C31C1(O[H])C([H])=C([H])C(=O)C([H])([H])[N+]([H])(C([H])([H])[H])C1([H])C2([H])[H]

$$$$
13:0:0
     RDKit          3D

 74 79  0  0  1  0  0  0  0  0999 V2000
    3.6848   -1.8340   -1.9126 C   0  0  0  0  0  0  0  0  0  0  0  0
    4.2780   -2.8231   -1.2264 C   0  0  0  0  0  0  0  0  0  0  0  0
    5.7167   -3.1221   -1.4003 C   0  0  0  0  0  0  0  0  0  0  0  0
    6.3959   -2.6377   -2.3018 O   0  0  0  0  0  0  0  0  0  0  0  0
    6.4024   -4.1345   -0.4607 C   0  0  0  0  0  0  0  0  0  0  0  0
    5.8490   -4.1455    0.9288 C   0  0  0  0  0  0  0  0  0  0  0  0
    6.4957   -4.4456    2.0596 C   0  0  0  0  0  0  0  0  0  0  0  0
    5.7804   -4.3062    3.3966 C   0  0  0  0  0  0  0  0  0  0  0  0
    4.2899   -4.8285    3.4151 C   0  0  1  0  0  0  0  0  0  0  0  0
    3.6301   -4.6995    2.0216 C   0  0  1  0  0  0  0  0  0  0  0  0
    2.2805   -3.9487    1.8370 C   0  0  0  0  0  0  0  0  0  0  0  0
    2.2558   -3.4070    0.3668 C   0  0  0  0  0  0  0  0  0  0  0  0
    3.6240   -3.7365   -0.1984 C   0  0  2  0  0  0  0  0  0  0  0  0
    4.4125   -3.7886    1.0774 C   0  0  2  0  0  0  0  0  0  0  0  0
    3.5576   -6.1779    1.5848 C   0  0  0  0  0  0  0  0  0  0  0  0
    3.2661   -7.0584    2.8200 C   0  0  2  0  0  0  0  0  0  0  0  0
    3.7731   -8.5180    2.4611 C   0  0  0  0  0  0  0  0  0  0  0  0
    3.3988   -9.0250    1.2008 O   0  0  0  0  0  0  0  0  0  0  0  0
    1.7118   -7.0299    3.1114 C   0  0  2  0  0  0  0  0  0  0  0  0
    1.0986   -8.1616    3.9297 C   0  0  0  0  0  0  0  0  0  0  0  0
    0.3235   -8.6095    2.9485 C   0  0  0  0  0  0  0  0  0  0  0  0
    0.7586   -7.5242    1.9967 C   0  0  1  0  0  0  0  0  0  0  0  0
   -0.3227   -6.6942    1.6376 O   0  0  0  0  0  0  0  0  0  0  0  0
    1.0476   -8.4305    5.4467 C   0  0  0  0  0  0  0  0  0  0  0  0
    0.3038   -7.2826    6.1756 C   0  0  0  0  0  0  0  0  0  0  0  0
    0.1263   -9.6492    5.7461 C   0  0  0  0  0  0  0  0  0  0  0  0
    2.4502   -8.6396    6.1079 C   0  0  1  0  0  0  0  0  0  0  0  0
    3.3257   -9.8612    5.7040 C   0  0  0  0  0  0  0  0  0  0  0  0
    2.7197  -11.0749    5.0012 C   0  0  0  0  0  0  0  0  0  0  0  0
    4.5175   -9.9038    6.0036 O   0  0  0  0  0  0  0  0  0  0  0  0
    3.2961   -7.3517    6.3625 C   0  0  0  0  0  0  0  0  0  0  0  0
    3.3997   -6.1827    5.3398 C   0  0  0  0  0  0  0  0  0  0  0  0
    4.0933   -6.3183    3.9482 C   0  0  2  0  0  0  0  0  0  0  0  0
    5.4643   -7.0135    4.2265 C   0  0  0  0  0  0  0  0  0  0  0  0
    2.6388   -1.5851   -1.8011 H   0  0  0  0  0  0  0  0  0  0  0  0
    4.2416   -1.2447   -2.6362 H   0  0  0  0  0  0  0  0  0  0  0  0
    6.1587   -5.1432   -0.7785 H   0  0  0  0  0  0  0  0  0  0  0  0
    7.4862   -3.9872   -0.4724 H   0  0  0  0  0  0  0  0  0  0  0  0
    7.5487   -4.6900    2.0541 H   0  0  0  0  0  0  0  0  0  0  0  0
    6.3903   -4.7014    4.2000 H   0  0  0  0  0  0  0  0  0  0  0  0
    5.7566   -3.2326    3.5908 H   0  0  0  0  0  0  0  0  0  0  0  0
    3.7643   -4.1344    4.0731 H   0  0  0  0  0  0  0  0  0  0  0  0
    1.4125   -4.5488    2.0558 H   0  0  0  0  0  0  0  0  0  0  0  0
    2.2482   -3.0931    2.5194 H   0  0  0  0  0  0  0  0  0  0  0  0
    1.5370   -3.8835   -0.3067 H   0  0  0  0  0  0  0  0  0  0  0  0
    2.0744   -2.3271    0.4004 H   0  0  0  0  0  0  0  0  0  0  0  0
    3.5840   -4.7211   -0.6660 H   0  0  0  0  0  0  0  0  0  0  0  0
    4.4333   -2.7771    1.4771 H   0  0  0  0  0  0  0  0  0  0  0  0
    2.8292   -6.3039    0.7898 H   0  0  0  0  0  0  0  0  0  0  0  0
    4.5291   -6.4838    1.1727 H   0  0  0  0  0  0  0  0  0  0  0  0
    4.8534   -8.6132    2.4227 H   0  0  0  0  0  0  0  0  0  0  0  0
    3.4321   -9.2195    3.1984 H   0  0  0  0  0  0  0  0  0  0  0  0
    3.5968   -9.9648    1.1644 H   0  0  0  0  0  0  0  0  0  0  0  0
    1.3485   -6.0537    3.4417 H   0  0  0  0  0  0  0  0  0  0  0  0
   -0.4461   -9.4097    2.8702 H   0  0  0  0  0  0  0  0  0  0  0  0
    1.2476   -7.8559    1.0690 H   0  0  0  0  0  0  0  0  0  0  0  0
   -0.8461   -7.2446    1.0379 H   0  0  0  0  0  0  0  0  0  0  0  0
    0.2076   -7.5086    7.2376 H   0  0  0  0  0  0  0  0  0  0  0  0
   -0.6861   -7.1561    5.7481 H   0  0  0  0  0  0  0  0  0  0  0  0
    0.7573   -6.3081    6.1061 H   0  0  0  0  0  0  0  0  0  0  0  0
    0.2565  -10.0276    6.7638 H   0  0  0  0  0  0  0  0  0  0  0  0
    0.2495  -10.4953    5.0755 H   0  0  0  0  0  0  0  0  0  0  0  0
   -0.9250   -9.3785    5.6626 H   0  0  0  0  0  0  0  0  0  0  0  0
    2.2043   -8.9517    7.1255 H   0  0  0  0  0  0  0  0  0  0  0  0
    2.0622  -11.6228    5.6787 H   0  0  0  0  0  0  0  0  0  0  0  0
    3.5104  -11.7531    4.6877 H   0  0  0  0  0  0  0  0  0  0  0  0
    2.1501  -10.7962    4.1180 H   0  0  0  0  0  0  0  0  0  0  0  0
    2.8791   -6.8991    7.2649 H   0  0  0  0  0  0  0  0  0  0  0  0
    4.3055   -7.6081    6.6837 H   0  0  0  0  0  0  0  0  0  0  0  0
    2.4535   -5.6675    5.2247 H   0  0  0  0  0  0  0  0  0  0  0  0
    3.9887   -5.4447    5.8860 H   0  0  0  0  0  0  0  0  0  0  0  0
    5.3496   -8.0588    4.4984 H   0  0  0  0  0  0  0  0  0  0  0  0
    5.9906   -6.5747    5.0757 H   0  0  0  0  0  0  0  0  0  0  0  0
    6.1325   -6.9776    3.3600 H   0  0  0  0  0  0  0  0  0  0  0  0
  1  2  2  0
  1 35  1  0
  1 36  1  0
  2 13  1  0
  2  3  1  0
  3  4  2  0
  3  5  1  0
  5  6  1  0
  5 37  1  0
  5 38  1  0
  6 14  1  0
  6  7  2  0
  7  8  1  0
  7 39  1  0
  8  9  1  0
  8 40  1  0
  8 41  1  0
  9 33  1  0
  9 10  1  0
  9 42  1  1
 10 14  1  0
 10 11  1  1
 10 15  1  0
 11 12  1  0
 11 43  1  0
 11 44  1  0
 12 13  1  0
 12 45  1  0
 12 46  1  0
 13 14  1  0
 13 47  1  6
 14 48  1  1
 15 16  1  0
 15 49  1  0
 15 50  1  0
 16 33  1  0
 16 17  1  6
 16 19  1  0
 17 18  1  0
 17 51  1  0
 17 52  1  0
 18 53  1  0
 19 22  1  0
 19 20  1  0
 19 54  1  1
 20 21  2  0
 20 24  1  0
 21 22  1  0
 21 55  1  0
 22 23  1  0
 22 56  1  6
 23 57  1  0
 24 25  1  0
 24 26  1  0
 24 27  1  0
 25 58  1  0
 25 59  1  0
 25 60  1  0
 26 61  1  0
 26 62  1  0
 26 63  1  0
 27 28  1  0
 27 31  1  0
 27 64  1  1
 28 29  1  0
 28 30  2  0
 29 65  1  0
 29 66  1  0
 29 67  1  0
 31 32  1  0
 31 68  1  0
 31 69  1  0
 32 33  1  0
 32 70  1  0
 32 71  1  0
 33 34  1  1
 34 72  1  0
 34 73  1  0
 34 74  1  0
M  END
>  <i_m_ct_stereo_status>  (49) 
1

>  <s_m_source_file>  (49) 
/var/tmp/pbs.5076255.sched01/tmp0qfm3vo4/0bcu552to.sdf

>  <i_m_source_file_index>  (49) 
18

>  <i_lp_mmshare_version>  (49) 
48012

>  <i_f3d_flags>  (49) 
0

>  <s_epik_input>  (49) 
Tz1DKFtDSDJdMSlDKD1bQ0gyXSlbQ0BIXShbQ0gyXVtDSDJdMilbQ0BASF0zQzE9W0NIXVtDSDJdW0NAQEhdKFtDQEBdMjM0KVtDQF01KFtDSDNdKVtDQEBdKFtDSDJdNCkoW0NIMl1bT0hdKVtDQEBIXTZDKD1bQ0hdW0NASF02W09IXSlDKFtDSDNdKShbQ0gzXSlbQ0BASF0oQyg9TylbQ0gzXSlbQ0gyXVtDSDJdNQ==

>  <s_epik_cmdline>  (49) 
J2VwaWtfcHl0aG9uJywgJy1waHQnLCAnMi4wJywgJy1waCcsICc3LjAnLCAnLXRuJywgJzgnLCAnLW1hJywgJzIwMCcsICctaW1hZScsICc8aW5maWxlLm1hZT4nLCAnLW9tYWUnLCAnPG91dGZpbGUubWFlPic=

>  <r_lp_tautomer_probability>  (49) 
1

>  <r_epik_Ionization_Penalty>  (49) 
6.34342e-07

>  <r_epik_Ionization_Penalty_Charging>  (49) 
0

>  <r_epik_Ionization_Penalty_Neutral>  (49) 
6.34342e-07

>  <r_epik_State_Penalty>  (49) 
-0

>  <r_epik_Charging_Adjusted_Penalty>  (49) 
0

>  <i_epik_Tot_Q>  (49) 
0

>  <i_epik_Tot_abs_Q>  (49) 
0

>  <s_lp_Force_Field>  (49) 
OPLS3e

>  <r_lp_Energy>  (49) 
103.168

>  <b_lp_Chiralities_Consistent>  (49) 
1

>  <s_lp_Variant>  (49) 
13:0-1

>  <s_i_glide_gridfile>  (49) 
pfpi4k_grid

>  <i_i_glide_lignum>  (49) 
18

>  <i_i_glide_rotatable_bonds>  (49) 
4

>  <r_i_docking_score>  (49) 
-2.85618

>  <r_i_glide_ligand_efficiency>  (49) 
-0.0840052

>  <r_i_glide_ligand_efficiency_sa>  (49) 
-0.272144

>  <r_i_glide_ligand_efficiency_ln>  (49) 
-0.631009

>  <r_i_glide_gscore>  (49) 
-2.85618

>  <r_i_glide_lipo>  (49) 
-0.226605

>  <r_i_glide_hbond>  (49) 
-0.262043

>  <r_i_glide_metal>  (49) 
-0

>  <r_i_glide_rewards>  (49) 
-0.340128

>  <r_i_glide_evdw>  (49) 
-21.6935

>  <r_i_glide_ecoul>  (49) 
-6.71005

>  <r_i_glide_erotb>  (49) 
0.0933865

>  <r_i_glide_esite>  (49) 
-0.0296043

>  <r_i_glide_emodel>  (49) 
-30.1902

>  <r_i_glide_energy>  (49) 
-28.4036

>  <r_i_glide_einternal>  (49) 
5.54484

>  <r_i_glide_intrahb_reward>  (49) 
-0

>  <i_i_glide_confnum>  (49) 
6

>  <i_i_glide_posenum>  (49) 
11

>  <r_i_glide_eff_state_penalty>  (49) 
0

>  <ligand_id>  (49) 
13

>  <original_smiles>  (49) 
C=C1C(=O)CC2=CCC3C4(CCC1C24)CC1(CO)C2C(=CC2O)C(C)(C)C(C(C)=O)CCC31C

>  <smiles>  (49) 
[H]OC([H])([H])C12C([H])([H])C34C([H])([H])C([H])([H])C5([H])C(=C([H])[H])C(=O)C([H])([H])C(=C([H])C([H])([H])C3([H])C1(C([H])([H])[H])C([H])([H])C([H])([H])C([H])(C(=O)C([H])([H])[H])C(C([H])([H])[H])(C([H])([H])[H])C1=C([H])C([H])(O[H])C12[H])C54[H]

$$$$
13:0:1
     RDKit          3D

 74 79  0  0  1  0  0  0  0  0999 V2000
    4.5037   -2.4968   -2.9226 C   0  0  0  0  0  0  0  0  0  0  0  0
    4.9444   -2.8874   -1.7092 C   0  0  0  0  0  0  0  0  0  0  0  0
    6.3556   -2.6462   -1.2380 C   0  0  0  0  0  0  0  0  0  0  0  0
    7.2696   -2.2727   -1.9498 O   0  0  0  0  0  0  0  0  0  0  0  0
    6.7455   -2.9018    0.2280 C   0  0  0  0  0  0  0  0  0  0  0  0
    5.6137   -2.6514    1.1876 C   0  0  0  0  0  0  0  0  0  0  0  0
    5.6772   -2.1728    2.4287 C   0  0  0  0  0  0  0  0  0  0  0  0
    4.4044   -1.9857    3.2395 C   0  0  0  0  0  0  0  0  0  0  0  0
    3.3089   -3.1086    3.0448 C   0  0  1  0  0  0  0  0  0  0  0  0
    3.4282   -3.7441    1.6295 C   0  0  1  0  0  0  0  0  0  0  0  0
    2.2083   -3.7307    0.6962 C   0  0  0  0  0  0  0  0  0  0  0  0
    2.6216   -3.7271   -0.7899 C   0  0  0  0  0  0  0  0  0  0  0  0
    4.1379   -3.6319   -0.6756 C   0  0  2  0  0  0  0  0  0  0  0  0
    4.2587   -2.9388    0.6684 C   0  0  2  0  0  0  0  0  0  0  0  0
    3.9322   -5.1608    1.9314 C   0  0  0  0  0  0  0  0  0  0  0  0
    3.3086   -5.6492    3.2650 C   0  0  2  0  0  0  0  0  0  0  0  0
    4.2760   -6.7810    3.7866 C   0  0  0  0  0  0  0  0  0  0  0  0
    4.7060   -7.7068    2.8151 O   0  0  0  0  0  0  0  0  0  0  0  0
    1.8531   -6.2064    3.0034 C   0  0  2  0  0  0  0  0  0  0  0  0
    1.2522   -7.1877    4.0211 C   0  0  0  0  0  0  0  0  0  0  0  0
    1.2010   -8.2229    3.1735 C   0  0  0  0  0  0  0  0  0  0  0  0
    1.6820   -7.3862    2.0036 C   0  0  1  0  0  0  0  0  0  0  0  0
    0.6628   -7.2719    1.0401 O   0  0  0  0  0  0  0  0  0  0  0  0
    0.5708   -6.9916    5.3869 C   0  0  0  0  0  0  0  0  0  0  0  0
   -0.7082   -6.1285    5.2316 C   0  0  0  0  0  0  0  0  0  0  0  0
    0.0085   -8.3523    5.8767 C   0  0  0  0  0  0  0  0  0  0  0  0
    1.5005   -6.3651    6.4913 C   0  0  1  0  0  0  0  0  0  0  0  0
    2.7143   -7.1823    7.0138 C   0  0  0  0  0  0  0  0  0  0  0  0
    2.5047   -8.4422    7.8524 C   0  0  0  0  0  0  0  0  0  0  0  0
    3.8676   -6.7639    6.9014 O   0  0  0  0  0  0  0  0  0  0  0  0
    1.7925   -4.8365    6.3555 C   0  0  0  0  0  0  0  0  0  0  0  0
    2.0312   -4.0938    5.0017 C   0  0  0  0  0  0  0  0  0  0  0  0
    3.3091   -4.3028    4.1217 C   0  0  2  0  0  0  0  0  0  0  0  0
    4.5487   -4.1560    5.0594 C   0  0  0  0  0  0  0  0  0  0  0  0
    3.4971   -2.6955   -3.2621 H   0  0  0  0  0  0  0  0  0  0  0  0
    5.1442   -1.9819   -3.6168 H   0  0  0  0  0  0  0  0  0  0  0  0
    7.0870   -3.9355    0.2805 H   0  0  0  0  0  0  0  0  0  0  0  0
    7.5779   -2.2414    0.4538 H   0  0  0  0  0  0  0  0  0  0  0  0
    6.6232   -1.8721    2.8455 H   0  0  0  0  0  0  0  0  0  0  0  0
    4.6871   -1.8324    4.2674 H   0  0  0  0  0  0  0  0  0  0  0  0
    3.9687   -1.0371    2.9330 H   0  0  0  0  0  0  0  0  0  0  0  0
    2.3406   -2.5833    3.0971 H   0  0  0  0  0  0  0  0  0  0  0  0
    1.6374   -4.6159    0.8760 H   0  0  0  0  0  0  0  0  0  0  0  0
    1.7254   -2.7850    0.9114 H   0  0  0  0  0  0  0  0  0  0  0  0
    2.2772   -4.6509   -1.2346 H   0  0  0  0  0  0  0  0  0  0  0  0
    2.1989   -2.8492   -1.2907 H   0  0  0  0  0  0  0  0  0  0  0  0
    4.5706   -4.6290   -0.6145 H   0  0  0  0  0  0  0  0  0  0  0  0
    3.8126   -1.9452    0.5425 H   0  0  0  0  0  0  0  0  0  0  0  0
    3.6966   -5.8226    1.0977 H   0  0  0  0  0  0  0  0  0  0  0  0
    5.0239   -5.1408    2.0480 H   0  0  0  0  0  0  0  0  0  0  0  0
    5.2309   -6.4184    4.1653 H   0  0  0  0  0  0  0  0  0  0  0  0
    3.8032   -7.3730    4.5560 H   0  0  0  0  0  0  0  0  0  0  0  0
    4.0060   -8.3216    2.6596 H   0  0  0  0  0  0  0  0  0  0  0  0
    1.1318   -5.4432    2.7141 H   0  0  0  0  0  0  0  0  0  0  0  0
    0.7589   -9.2138    3.2242 H   0  0  0  0  0  0  0  0  0  0  0  0
    2.5908   -7.7239    1.5084 H   0  0  0  0  0  0  0  0  0  0  0  0
    0.6120   -8.1247    0.6196 H   0  0  0  0  0  0  0  0  0  0  0  0
   -1.1847   -5.9639    6.1952 H   0  0  0  0  0  0  0  0  0  0  0  0
   -1.4505   -6.6050    4.5876 H   0  0  0  0  0  0  0  0  0  0  0  0
   -0.5433   -5.1398    4.8271 H   0  0  0  0  0  0  0  0  0  0  0  0
   -0.2335   -8.3104    6.9371 H   0  0  0  0  0  0  0  0  0  0  0  0
    0.7076   -9.1750    5.7401 H   0  0  0  0  0  0  0  0  0  0  0  0
   -0.9087   -8.6393    5.3557 H   0  0  0  0  0  0  0  0  0  0  0  0
    0.8837   -6.3925    7.3907 H   0  0  0  0  0  0  0  0  0  0  0  0
    2.1311   -8.1541    8.8403 H   0  0  0  0  0  0  0  0  0  0  0  0
    3.4923   -8.8877    7.9749 H   0  0  0  0  0  0  0  0  0  0  0  0
    1.8666   -9.2193    7.4170 H   0  0  0  0  0  0  0  0  0  0  0  0
    0.9113   -4.3393    6.7614 H   0  0  0  0  0  0  0  0  0  0  0  0
    2.5753   -4.5628    7.0617 H   0  0  0  0  0  0  0  0  0  0  0  0
    1.1418   -4.0997    4.3798 H   0  0  0  0  0  0  0  0  0  0  0  0
    2.0680   -3.0444    5.3019 H   0  0  0  0  0  0  0  0  0  0  0  0
    4.6792   -4.9858    5.7344 H   0  0  0  0  0  0  0  0  0  0  0  0
    4.4448   -3.2902    5.7229 H   0  0  0  0  0  0  0  0  0  0  0  0
    5.4821   -4.0646    4.4927 H   0  0  0  0  0  0  0  0  0  0  0  0
  1  2  2  0
  1 35  1  0
  1 36  1  0
  2 13  1  0
  2  3  1  0
  3  4  2  0
  3  5  1  0
  5  6  1  0
  5 37  1  0
  5 38  1  0
  6 14  1  0
  6  7  2  0
  7  8  1  0
  7 39  1  0
  8  9  1  0
  8 40  1  0
  8 41  1  0
  9 33  1  0
  9 10  1  0
  9 42  1  6
 10 14  1  0
 10 11  1  6
 10 15  1  0
 11 12  1  0
 11 43  1  0
 11 44  1  0
 12 13  1  0
 12 45  1  0
 12 46  1  0
 13 14  1  0
 13 47  1  1
 14 48  1  6
 15 16  1  0
 15 49  1  0
 15 50  1  0
 16 33  1  0
 16 17  1  1
 16 19  1  0
 17 18  1  0
 17 51  1  0
 17 52  1  0
 18 53  1  0
 19 22  1  0
 19 20  1  0
 19 54  1  6
 20 21  2  0
 20 24  1  0
 21 22  1  0
 21 55  1  0
 22 23  1  0
 22 56  1  6
 23 57  1  0
 24 25  1  0
 24 26  1  0
 24 27  1  0
 25 58  1  0
 25 59  1  0
 25 60  1  0
 26 61  1  0
 26 62  1  0
 26 63  1  0
 27 28  1  0
 27 31  1  0
 27 64  1  1
 28 29  1  0
 28 30  2  0
 29 65  1  0
 29 66  1  0
 29 67  1  0
 31 32  1  0
 31 68  1  0
 31 69  1  0
 32 33  1  0
 32 70  1  0
 32 71  1  0
 33 34  1  1
 34 72  1  0
 34 73  1  0
 34 74  1  0
M  END
>  <i_m_ct_stereo_status>  (50) 
1

>  <s_m_source_file>  (50) 
/var/tmp/pbs.5076255.sched01/tmp0qfm3vo4/0bcu552to.sdf

>  <i_m_source_file_index>  (50) 
18

>  <i_lp_mmshare_version>  (50) 
48012

>  <i_f3d_flags>  (50) 
0

>  <s_epik_input>  (50) 
Tz1DKFtDSDJdMSlDKD1bQ0gyXSlbQ0BIXShbQ0gyXVtDSDJdMilbQ0BASF0zQzE9W0NIXVtDSDJdW0NAQEhdKFtDQEBdMjM0KVtDQF01KFtDSDNdKVtDQEBdKFtDSDJdNCkoW0NIMl1bT0hdKVtDQEBIXTZDKD1bQ0hdW0NASF02W09IXSlDKFtDSDNdKShbQ0gzXSlbQ0BASF0oQyg9TylbQ0gzXSlbQ0gyXVtDSDJdNQ==

>  <s_epik_cmdline>  (50) 
J2VwaWtfcHl0aG9uJywgJy1waHQnLCAnMi4wJywgJy1waCcsICc3LjAnLCAnLXRuJywgJzgnLCAnLW1hJywgJzIwMCcsICctaW1hZScsICc8aW5maWxlLm1hZT4nLCAnLW9tYWUnLCAnPG91dGZpbGUubWFlPic=

>  <r_lp_tautomer_probability>  (50) 
1

>  <r_epik_Ionization_Penalty>  (50) 
6.34342e-07

>  <r_epik_Ionization_Penalty_Charging>  (50) 
0

>  <r_epik_Ionization_Penalty_Neutral>  (50) 
6.34342e-07

>  <r_epik_State_Penalty>  (50) 
-0

>  <r_epik_Charging_Adjusted_Penalty>  (50) 
0

>  <i_epik_Tot_Q>  (50) 
0

>  <i_epik_Tot_abs_Q>  (50) 
0

>  <s_lp_Force_Field>  (50) 
OPLS3e

>  <r_lp_Energy>  (50) 
103.168

>  <b_lp_Chiralities_Consistent>  (50) 
1

>  <s_lp_Variant>  (50) 
13:0-1

>  <s_i_glide_gridfile>  (50) 
pfpi4k_grid

>  <i_i_glide_lignum>  (50) 
18

>  <i_i_glide_rotatable_bonds>  (50) 
4

>  <r_i_docking_score>  (50) 
-2.85457

>  <r_i_glide_ligand_efficiency>  (50) 
-0.0839578

>  <r_i_glide_ligand_efficiency_sa>  (50) 
-0.271991

>  <r_i_glide_ligand_efficiency_ln>  (50) 
-0.630654

>  <r_i_glide_gscore>  (50) 
-2.85457

>  <r_i_glide_lipo>  (50) 
-0.390626

>  <r_i_glide_hbond>  (50) 
-0.48

>  <r_i_glide_metal>  (50) 
-0

>  <r_i_glide_rewards>  (50) 
-0.241117

>  <r_i_glide_evdw>  (50) 
-19.4976

>  <r_i_glide_ecoul>  (50) 
-5.60502

>  <r_i_glide_erotb>  (50) 
0.0933865

>  <r_i_glide_esite>  (50) 
-0.0205777

>  <r_i_glide_emodel>  (50) 
-27.0443

>  <r_i_glide_energy>  (50) 
-25.1026

>  <r_i_glide_einternal>  (50) 
4.65914

>  <r_i_glide_intrahb_reward>  (50) 
-0

>  <i_i_glide_confnum>  (50) 
6

>  <i_i_glide_posenum>  (50) 
1

>  <r_i_glide_eff_state_penalty>  (50) 
0

>  <ligand_id>  (50) 
13

>  <original_smiles>  (50) 
C=C1C(=O)CC2=CCC3C4(CCC1C24)CC1(CO)C2C(=CC2O)C(C)(C)C(C(C)=O)CCC31C

>  <smiles>  (50) 
[H]OC([H])([H])C12C([H])([H])C34C([H])([H])C([H])([H])C5([H])C(=C([H])[H])C(=O)C([H])([H])C(=C([H])C([H])([H])C3([H])C1(C([H])([H])[H])C([H])([H])C([H])([H])C([H])(C(=O)C([H])([H])[H])C(C([H])([H])[H])(C([H])([H])[H])C1=C([H])C([H])(O[H])C12[H])C54[H]

$$$$
13:0:2
     RDKit          3D

 74 79  0  0  1  0  0  0  0  0999 V2000
    6.3742   -3.0442   -1.4539 C   0  0  0  0  0  0  0  0  0  0  0  0
    5.9792   -3.1703   -0.1703 C   0  0  0  0  0  0  0  0  0  0  0  0
    6.2668   -2.1096    0.8285 C   0  0  0  0  0  0  0  0  0  0  0  0
    7.0304   -1.1818    0.5788 O   0  0  0  0  0  0  0  0  0  0  0  0
    5.6451   -2.1944    2.2466 C   0  0  0  0  0  0  0  0  0  0  0  0
    4.2874   -2.8592    2.2547 C   0  0  0  0  0  0  0  0  0  0  0  0
    3.2650   -2.6208    3.0874 C   0  0  0  0  0  0  0  0  0  0  0  0
    1.9392   -3.3569    2.8885 C   0  0  0  0  0  0  0  0  0  0  0  0
    2.0670   -4.8837    2.4940 C   0  0  1  0  0  0  0  0  0  0  0  0
    3.3679   -5.1544    1.6977 C   0  0  1  0  0  0  0  0  0  0  0  0
    3.3323   -5.8608    0.3123 C   0  0  0  0  0  0  0  0  0  0  0  0
    4.5993   -5.3975   -0.4600 C   0  0  0  0  0  0  0  0  0  0  0  0
    5.2558   -4.3550    0.4353 C   0  0  2  0  0  0  0  0  0  0  0  0
    4.0522   -3.8896    1.2020 C   0  0  2  0  0  0  0  0  0  0  0  0
    4.1853   -5.9407    2.7225 C   0  0  0  0  0  0  0  0  0  0  0  0
    3.2620   -6.8424    3.5283 C   0  0  2  0  0  0  0  0  0  0  0  0
    4.0699   -7.1678    4.8542 C   0  0  0  0  0  0  0  0  0  0  0  0
    5.4471   -7.4192    4.6609 O   0  0  0  0  0  0  0  0  0  0  0  0
    2.9481   -8.1874    2.7241 C   0  0  2  0  0  0  0  0  0  0  0  0
    2.4591   -9.4121    3.5120 C   0  0  0  0  0  0  0  0  0  0  0  0
    3.5236  -10.1590    3.2162 C   0  0  0  0  0  0  0  0  0  0  0  0
    4.1604   -9.0949    2.3466 C   0  0  1  0  0  0  0  0  0  0  0  0
    4.2946   -9.4850    0.9981 O   0  0  0  0  0  0  0  0  0  0  0  0
    1.0703   -9.8264    4.0721 C   0  0  0  0  0  0  0  0  0  0  0  0
    0.0574   -9.9616    2.8962 C   0  0  0  0  0  0  0  0  0  0  0  0
    1.1387  -11.2821    4.6191 C   0  0  0  0  0  0  0  0  0  0  0  0
    0.4601   -8.8937    5.1803 C   0  0  1  0  0  0  0  0  0  0  0  0
    1.1556   -8.7602    6.5817 C   0  0  0  0  0  0  0  0  0  0  0  0
    0.3661   -9.3288    7.7995 C   0  0  0  0  0  0  0  0  0  0  0  0
    2.1276   -8.0824    6.7691 O   0  0  0  0  0  0  0  0  0  0  0  0
   -0.0820   -7.5212    4.6756 C   0  0  0  0  0  0  0  0  0  0  0  0
    0.5855   -6.6680    3.5397 C   0  0  0  0  0  0  0  0  0  0  0  0
    1.9651   -5.9312    3.6975 C   0  0  2  0  0  0  0  0  0  0  0  0
    1.8792   -5.2090    5.0709 C   0  0  0  0  0  0  0  0  0  0  0  0
    6.1850   -3.7964   -2.2069 H   0  0  0  0  0  0  0  0  0  0  0  0
    6.9179   -2.1728   -1.7814 H   0  0  0  0  0  0  0  0  0  0  0  0
    6.2565   -2.8451    2.8769 H   0  0  0  0  0  0  0  0  0  0  0  0
    5.6048   -1.2029    2.7001 H   0  0  0  0  0  0  0  0  0  0  0  0
    3.3218   -1.8791    3.8656 H   0  0  0  0  0  0  0  0  0  0  0  0
    1.2886   -3.1687    3.7319 H   0  0  0  0  0  0  0  0  0  0  0  0
    1.4505   -2.8373    2.0750 H   0  0  0  0  0  0  0  0  0  0  0  0
    1.2472   -5.0830    1.7981 H   0  0  0  0  0  0  0  0  0  0  0  0
    3.3625   -6.9427    0.3960 H   0  0  0  0  0  0  0  0  0  0  0  0
    2.4451   -5.5612   -0.2528 H   0  0  0  0  0  0  0  0  0  0  0  0
    5.2725   -6.2272   -0.6510 H   0  0  0  0  0  0  0  0  0  0  0  0
    4.3573   -4.9488   -1.4230 H   0  0  0  0  0  0  0  0  0  0  0  0
    5.9668   -4.8395    1.1014 H   0  0  0  0  0  0  0  0  0  0  0  0
    3.3902   -3.3975    0.4975 H   0  0  0  0  0  0  0  0  0  0  0  0
    4.9743   -6.5175    2.2241 H   0  0  0  0  0  0  0  0  0  0  0  0
    4.6659   -5.2319    3.4265 H   0  0  0  0  0  0  0  0  0  0  0  0
    4.0774   -6.3768    5.6186 H   0  0  0  0  0  0  0  0  0  0  0  0
    3.7475   -8.1188    5.2077 H   0  0  0  0  0  0  0  0  0  0  0  0
    5.4523   -8.3351    4.4188 H   0  0  0  0  0  0  0  0  0  0  0  0
    2.3493   -8.0371    1.8154 H   0  0  0  0  0  0  0  0  0  0  0  0
    3.7731  -11.2194    3.3891 H   0  0  0  0  0  0  0  0  0  0  0  0
    5.1225   -8.7244    2.6851 H   0  0  0  0  0  0  0  0  0  0  0  0
    4.1592  -10.4481    0.9475 H   0  0  0  0  0  0  0  0  0  0  0  0
   -0.9325  -10.2361    3.2693 H   0  0  0  0  0  0  0  0  0  0  0  0
    0.3305  -10.7293    2.1678 H   0  0  0  0  0  0  0  0  0  0  0  0
   -0.1157   -9.0707    2.3052 H   0  0  0  0  0  0  0  0  0  0  0  0
    0.2405  -11.5407    5.1820 H   0  0  0  0  0  0  0  0  0  0  0  0
    1.9808  -11.4445    5.2880 H   0  0  0  0  0  0  0  0  0  0  0  0
    1.1774  -12.0243    3.8169 H   0  0  0  0  0  0  0  0  0  0  0  0
   -0.4820   -9.4084    5.4341 H   0  0  0  0  0  0  0  0  0  0  0  0
   -0.4621   -8.6530    8.0608 H   0  0  0  0  0  0  0  0  0  0  0  0
    1.0753   -9.2966    8.6081 H   0  0  0  0  0  0  0  0  0  0  0  0
    0.0008  -10.3687    7.6934 H   0  0  0  0  0  0  0  0  0  0  0  0
   -1.0690   -7.7387    4.2758 H   0  0  0  0  0  0  0  0  0  0  0  0
   -0.2880   -6.8903    5.5409 H   0  0  0  0  0  0  0  0  0  0  0  0
    0.5367   -7.1600    2.5746 H   0  0  0  0  0  0  0  0  0  0  0  0
   -0.1438   -5.8617    3.3906 H   0  0  0  0  0  0  0  0  0  0  0  0
    1.8852   -5.8962    5.9027 H   0  0  0  0  0  0  0  0  0  0  0  0
    0.9372   -4.6669    5.1998 H   0  0  0  0  0  0  0  0  0  0  0  0
    2.7010   -4.5128    5.2236 H   0  0  0  0  0  0  0  0  0  0  0  0
  1  2  2  0
  1 35  1  0
  1 36  1  0
  2 13  1  0
  2  3  1  0
  3  4  2  0
  3  5  1  0
  5  6  1  0
  5 37  1  0
  5 38  1  0
  6 14  1  0
  6  7  2  0
  7  8  1  0
  7 39  1  0
  8  9  1  0
  8 40  1  0
  8 41  1  0
  9 33  1  0
  9 10  1  0
  9 42  1  6
 10 14  1  0
 10 11  1  6
 10 15  1  0
 11 12  1  0
 11 43  1  0
 11 44  1  0
 12 13  1  0
 12 45  1  0
 12 46  1  0
 13 14  1  0
 13 47  1  1
 14 48  1  6
 15 16  1  0
 15 49  1  0
 15 50  1  0
 16 33  1  0
 16 17  1  1
 16 19  1  0
 17 18  1  0
 17 51  1  0
 17 52  1  0
 18 53  1  0
 19 22  1  0
 19 20  1  0
 19 54  1  6
 20 21  2  0
 20 24  1  0
 21 22  1  0
 21 55  1  0
 22 23  1  0
 22 56  1  1
 23 57  1  0
 24 25  1  0
 24 26  1  0
 24 27  1  0
 25 58  1  0
 25 59  1  0
 25 60  1  0
 26 61  1  0
 26 62  1  0
 26 63  1  0
 27 28  1  0
 27 31  1  0
 27 64  1  1
 28 29  1  0
 28 30  2  0
 29 65  1  0
 29 66  1  0
 29 67  1  0
 31 32  1  0
 31 68  1  0
 31 69  1  0
 32 33  1  0
 32 70  1  0
 32 71  1  0
 33 34  1  1
 34 72  1  0
 34 73  1  0
 34 74  1  0
M  END
>  <i_m_ct_stereo_status>  (51) 
1

>  <s_m_source_file>  (51) 
/var/tmp/pbs.5076255.sched01/tmp0qfm3vo4/0bcu552to.sdf

>  <i_m_source_file_index>  (51) 
18

>  <i_lp_mmshare_version>  (51) 
48012

>  <i_f3d_flags>  (51) 
0

>  <s_epik_input>  (51) 
Tz1DKFtDSDJdMSlDKD1bQ0gyXSlbQ0BIXShbQ0gyXVtDSDJdMilbQ0BASF0zQzE9W0NIXVtDSDJdW0NAQEhdKFtDQEBdMjM0KVtDQF01KFtDSDNdKVtDQEBdKFtDSDJdNCkoW0NIMl1bT0hdKVtDQEBIXTZDKD1bQ0hdW0NASF02W09IXSlDKFtDSDNdKShbQ0gzXSlbQ0BASF0oQyg9TylbQ0gzXSlbQ0gyXVtDSDJdNQ==

>  <s_epik_cmdline>  (51) 
J2VwaWtfcHl0aG9uJywgJy1waHQnLCAnMi4wJywgJy1waCcsICc3LjAnLCAnLXRuJywgJzgnLCAnLW1hJywgJzIwMCcsICctaW1hZScsICc8aW5maWxlLm1hZT4nLCAnLW9tYWUnLCAnPG91dGZpbGUubWFlPic=

>  <r_lp_tautomer_probability>  (51) 
1

>  <r_epik_Ionization_Penalty>  (51) 
6.34342e-07

>  <r_epik_Ionization_Penalty_Charging>  (51) 
0

>  <r_epik_Ionization_Penalty_Neutral>  (51) 
6.34342e-07

>  <r_epik_State_Penalty>  (51) 
-0

>  <r_epik_Charging_Adjusted_Penalty>  (51) 
0

>  <i_epik_Tot_Q>  (51) 
0

>  <i_epik_Tot_abs_Q>  (51) 
0

>  <s_lp_Force_Field>  (51) 
OPLS3e

>  <r_lp_Energy>  (51) 
103.168

>  <b_lp_Chiralities_Consistent>  (51) 
1

>  <s_lp_Variant>  (51) 
13:0-1

>  <s_i_glide_gridfile>  (51) 
pfpi4k_grid

>  <i_i_glide_lignum>  (51) 
18

>  <i_i_glide_rotatable_bonds>  (51) 
4

>  <r_i_docking_score>  (51) 
-2.70845

>  <r_i_glide_ligand_efficiency>  (51) 
-0.0796603

>  <r_i_glide_ligand_efficiency_sa>  (51) 
-0.258069

>  <r_i_glide_ligand_efficiency_ln>  (51) 
-0.598373

>  <r_i_glide_gscore>  (51) 
-2.70845

>  <r_i_glide_lipo>  (51) 
-0.261484

>  <r_i_glide_hbond>  (51) 
-0.161219

>  <r_i_glide_metal>  (51) 
-0

>  <r_i_glide_rewards>  (51) 
-0.368787

>  <r_i_glide_evdw>  (51) 
-26.6743

>  <r_i_glide_ecoul>  (51) 
-4.23196

>  <r_i_glide_erotb>  (51) 
0.0933865

>  <r_i_glide_esite>  (51) 
-0.0418401

>  <r_i_glide_emodel>  (51) 
-31.9844

>  <r_i_glide_energy>  (51) 
-30.9062

>  <r_i_glide_einternal>  (51) 
4.03086

>  <r_i_glide_intrahb_reward>  (51) 
-0

>  <i_i_glide_confnum>  (51) 
3

>  <i_i_glide_posenum>  (51) 
18

>  <r_i_glide_eff_state_penalty>  (51) 
0

>  <ligand_id>  (51) 
13

>  <original_smiles>  (51) 
C=C1C(=O)CC2=CCC3C4(CCC1C24)CC1(CO)C2C(=CC2O)C(C)(C)C(C(C)=O)CCC31C

>  <smiles>  (51) 
[H]OC([H])([H])C12C([H])([H])C34C([H])([H])C([H])([H])C5([H])C(=C([H])[H])C(=O)C([H])([H])C(=C([H])C([H])([H])C3([H])C1(C([H])([H])[H])C([H])([H])C([H])([H])C([H])(C(=O)C([H])([H])[H])C(C([H])([H])[H])(C([H])([H])[H])C1=C([H])C([H])(O[H])C12[H])C54[H]

$$$$
14:0:0
     RDKit          3D

 54 58  0  0  1  0  0  0  0  0999 V2000
    4.4389   -4.7971    3.0192 C   0  0  0  0  0  0  0  0  0  0  0  0
    4.0372   -3.3619    2.5522 C   0  0  1  0  0  0  0  0  0  0  0  0
    2.5073   -3.3583    2.2969 C   0  0  0  0  0  0  0  0  0  0  0  0
    1.6610   -3.4989    3.5716 C   0  0  0  0  0  0  0  0  0  0  0  0
    1.9839   -2.4095    4.6051 C   0  0  1  0  0  0  0  0  0  0  0  0
    1.1789   -2.6253    5.7516 O   0  0  0  0  0  0  0  0  0  0  0  0
    3.4934   -2.3202    4.9808 C   0  0  1  0  0  0  0  0  0  0  0  0
    3.6671   -1.0320    5.8402 C   0  0  0  0  0  0  0  0  0  0  0  0
    3.8880   -3.5248    5.9043 C   0  0  0  0  0  0  0  0  0  0  0  0
    5.2790   -3.5826    6.1520 O   0  0  0  0  0  0  0  0  0  0  0  0
    4.3492   -2.2363    3.6349 C   0  0  2  0  0  0  0  0  0  0  0  0
    4.2605   -0.8182    2.9816 C   0  0  0  0  0  0  0  0  0  0  0  0
    5.1793   -0.6468    1.7770 C   0  0  0  0  0  0  0  0  0  0  0  0
    4.8921   -1.6582    0.6610 C   0  0  2  0  0  0  0  0  0  0  0  0
    3.6316   -1.3307   -0.1839 C   0  0  0  0  0  0  0  0  0  0  0  0
    4.0438   -1.3109   -1.5519 O   0  0  0  0  0  0  0  0  0  0  0  0
    5.2179   -2.0939   -1.6651 C   0  0  2  0  0  0  0  0  0  0  0  0
    4.8757   -3.5846   -1.6675 C   0  0  0  0  0  0  0  0  0  0  0  0
    5.0708   -4.4504   -0.6477 C   0  0  0  0  0  0  0  0  0  0  0  0
    5.6071   -4.0223    0.6235 C   0  0  0  0  0  0  0  0  0  0  0  0
    4.8335   -3.0807    1.2375 C   0  0  0  0  0  0  0  0  0  0  0  0
    7.0785   -3.6886    0.4645 C   0  0  0  0  0  0  0  0  0  0  0  0
    7.2985   -2.2756   -0.1017 C   0  0  0  0  0  0  0  0  0  0  0  0
    5.9700   -1.5621   -0.4371 C   0  0  2  0  0  0  0  0  0  0  0  0
    3.7743   -5.2302    3.7502 H   0  0  0  0  0  0  0  0  0  0  0  0
    5.4527   -4.8145    3.4208 H   0  0  0  0  0  0  0  0  0  0  0  0
    4.4228   -5.5030    2.1840 H   0  0  0  0  0  0  0  0  0  0  0  0
    2.1990   -2.4239    1.8457 H   0  0  0  0  0  0  0  0  0  0  0  0
    2.2524   -4.1434    1.5924 H   0  0  0  0  0  0  0  0  0  0  0  0
    0.6117   -3.4075    3.2955 H   0  0  0  0  0  0  0  0  0  0  0  0
    1.7569   -4.4909    4.0142 H   0  0  0  0  0  0  0  0  0  0  0  0
    1.6644   -1.4579    4.1801 H   0  0  0  0  0  0  0  0  0  0  0  0
    1.3519   -1.9323    6.3666 H   0  0  0  0  0  0  0  0  0  0  0  0
    4.7154   -0.8030    6.0154 H   0  0  0  0  0  0  0  0  0  0  0  0
    3.1886   -1.1286    6.8102 H   0  0  0  0  0  0  0  0  0  0  0  0
    3.2091   -0.1632    5.3694 H   0  0  0  0  0  0  0  0  0  0  0  0
    3.4002   -3.4156    6.8820 H   0  0  0  0  0  0  0  0  0  0  0  0
    3.5570   -4.4795    5.5191 H   0  0  0  0  0  0  0  0  0  0  0  0
    5.4719   -4.3820    6.6150 H   0  0  0  0  0  0  0  0  0  0  0  0
    5.4018   -2.3385    3.9177 H   0  0  0  0  0  0  0  0  0  0  0  0
    3.2391   -0.5848    2.6885 H   0  0  0  0  0  0  0  0  0  0  0  0
    4.5625   -0.0392    3.6773 H   0  0  0  0  0  0  0  0  0  0  0  0
    5.0881    0.3649    1.3807 H   0  0  0  0  0  0  0  0  0  0  0  0
    6.2112   -0.7492    2.1181 H   0  0  0  0  0  0  0  0  0  0  0  0
    2.8804   -2.1094   -0.1137 H   0  0  0  0  0  0  0  0  0  0  0  0
    3.1702   -0.3839    0.0908 H   0  0  0  0  0  0  0  0  0  0  0  0
    5.7358   -1.8624   -2.5937 H   0  0  0  0  0  0  0  0  0  0  0  0
    4.4506   -3.9612   -2.5823 H   0  0  0  0  0  0  0  0  0  0  0  0
    4.7885   -5.4819   -0.7782 H   0  0  0  0  0  0  0  0  0  0  0  0
    7.5734   -3.7772    1.4324 H   0  0  0  0  0  0  0  0  0  0  0  0
    7.5567   -4.4252   -0.1851 H   0  0  0  0  0  0  0  0  0  0  0  0
    7.8455   -1.6840    0.6336 H   0  0  0  0  0  0  0  0  0  0  0  0
    7.9436   -2.3217   -0.9808 H   0  0  0  0  0  0  0  0  0  0  0  0
    6.1859   -0.5111   -0.6204 H   0  0  0  0  0  0  0  0  0  0  0  0
  2  1  1  1
  1 25  1  0
  1 26  1  0
  1 27  1  0
  2 11  1  0
  2 21  1  0
  2  3  1  0
  3  4  1  0
  3 28  1  0
  3 29  1  0
  4  5  1  0
  4 30  1  0
  4 31  1  0
  5  6  1  0
  5  7  1  0
  5 32  1  6
  6 33  1  0
  7  8  1  1
  7  9  1  0
  7 11  1  0
  8 34  1  0
  8 35  1  0
  8 36  1  0
  9 10  1  0
  9 37  1  0
  9 38  1  0
 10 39  1  0
 11 12  1  0
 11 40  1  1
 12 13  1  0
 12 41  1  0
 12 42  1  0
 14 13  1  1
 13 43  1  0
 13 44  1  0
 14 21  1  0
 14 24  1  0
 14 15  1  0
 15 16  1  0
 15 45  1  0
 15 46  1  0
 16 17  1  0
 17 24  1  0
 17 18  1  0
 17 47  1  6
 18 19  2  0
 18 48  1  0
 19 20  1  0
 19 49  1  0
 20 21  2  0
 20 22  1  0
 22 23  1  0
 22 50  1  0
 22 51  1  0
 23 24  1  0
 23 52  1  0
 23 53  1  0
 24 54  1  6
M  END
>  <i_m_ct_stereo_status>  (52) 
1

>  <s_m_source_file>  (52) 
/var/tmp/pbs.5076255.sched01/tmp0qfm3vo4/0bcu552to.sdf

>  <i_m_source_file_index>  (52) 
19

>  <i_lp_mmshare_version>  (52) 
48012

>  <i_f3d_flags>  (52) 
0

>  <s_epik_input>  (52) 
W0NIMl0xW0NIMl1bQ0BASF0oW09IXSlbQ0BAXShbQ0gzXSkoW0NIMl1bT0hdKVtDQEhdKFtDSDJdW0NIMl0yKVtDQF0xKFtDSDNdKUMoW0NAXTIzNCk9QzVbQ0hdPVtDSF1bQ0BASF0oT1tDSDJdMylbQ0BASF00W0NIMl1bQ0gyXTU=

>  <s_epik_cmdline>  (52) 
J2VwaWtfcHl0aG9uJywgJy1waHQnLCAnMi4wJywgJy1waCcsICc3LjAnLCAnLXRuJywgJzgnLCAnLW1hJywgJzIwMCcsICctaW1hZScsICc8aW5maWxlLm1hZT4nLCAnLW9tYWUnLCAnPG91dGZpbGUubWFlPic=

>  <r_lp_tautomer_probability>  (52) 
1

>  <r_epik_Ionization_Penalty>  (52) 
1.49276e-06

>  <r_epik_Ionization_Penalty_Charging>  (52) 
0

>  <r_epik_Ionization_Penalty_Neutral>  (52) 
1.49276e-06

>  <r_epik_State_Penalty>  (52) 
-0

>  <r_epik_Charging_Adjusted_Penalty>  (52) 
0

>  <i_epik_Tot_Q>  (52) 
0

>  <i_epik_Tot_abs_Q>  (52) 
0

>  <s_lp_Force_Field>  (52) 
OPLS3e

>  <r_lp_Energy>  (52) 
113.938

>  <b_lp_Chiralities_Consistent>  (52) 
1

>  <s_lp_Variant>  (52) 
14:0-1

>  <s_i_glide_gridfile>  (52) 
pfpi4k_grid

>  <i_i_glide_lignum>  (52) 
19

>  <i_i_glide_rotatable_bonds>  (52) 
3

>  <r_i_docking_score>  (52) 
-2.49601

>  <r_i_glide_ligand_efficiency>  (52) 
-0.104

>  <r_i_glide_ligand_efficiency_sa>  (52) 
-0.299989

>  <r_i_glide_ligand_efficiency_ln>  (52) 
-0.59741

>  <r_i_glide_gscore>  (52) 
-2.49601

>  <r_i_glide_lipo>  (52) 
-0.53321

>  <r_i_glide_hbond>  (52) 
0

>  <r_i_glide_metal>  (52) 
-0

>  <r_i_glide_rewards>  (52) 
-1.15595

>  <r_i_glide_evdw>  (52) 
-18.5313

>  <r_i_glide_ecoul>  (52) 
-0.350132

>  <r_i_glide_erotb>  (52) 
0.172231

>  <r_i_glide_esite>  (52) 
0

>  <r_i_glide_emodel>  (52) 
-21.1441

>  <r_i_glide_energy>  (52) 
-18.8814

>  <r_i_glide_einternal>  (52) 
0.67618

>  <r_i_glide_intrahb_reward>  (52) 
-0

>  <i_i_glide_confnum>  (52) 
4

>  <i_i_glide_posenum>  (52) 
15

>  <r_i_glide_eff_state_penalty>  (52) 
0

>  <ligand_id>  (52) 
14

>  <original_smiles>  (52) 
CC12CCC(O)C(C)(CO)C1CCC13COC4C=CC(=C21)CCC43

>  <smiles>  (52) 
[H]OC([H])([H])C1(C([H])([H])[H])C([H])(O[H])C([H])([H])C([H])([H])C2(C([H])([H])[H])C3=C4C([H])=C([H])C5([H])OC([H])([H])C3(C([H])([H])C([H])([H])C21[H])C5([H])C([H])([H])C4([H])[H]

$$$$
15:1:0
     RDKit          3D

 57 61  0  0  1  0  0  0  0  0999 V2000
    3.2676   -2.7207    4.7906 C   0  0  0  0  0  0  0  0  0  0  0  0
    3.5103   -4.2306    4.5962 C   0  0  2  0  0  0  0  0  0  0  0  0
    4.2679   -4.7768    5.8772 C   0  0  0  0  0  0  0  0  0  0  0  0
    4.4528   -6.2341    6.1246 N   0  0  0  0  0  0  0  0  0  0  0  0
    4.8811   -6.4019    7.5096 C   0  0  0  0  0  0  0  0  0  0  0  0
    5.4157   -6.9384    5.2400 C   0  0  0  0  0  0  0  0  0  0  0  0
    4.7237   -7.8088    4.1230 C   0  0  1  0  0  0  0  0  0  0  0  0
    3.6047   -6.9258    3.6376 C   0  0  0  0  0  0  0  0  0  0  0  0
    4.1748   -6.0074    2.8607 C   0  0  0  0  0  0  0  0  0  0  0  0
    4.2866   -4.5461    3.2730 C   0  0  1  0  0  0  0  0  0  0  0  0
    4.2695   -3.6431    2.0128 C   0  0  0  0  0  0  0  0  0  0  0  0
    5.6894   -3.4462    1.3916 C   0  0  0  0  0  0  0  0  0  0  0  0
    6.5067   -4.6926    0.9377 C   0  0  0  0  0  0  0  0  0  0  0  0
    6.6198   -5.8108    2.0032 C   0  0  2  0  0  0  0  0  0  0  0  0
    7.6214   -6.9474    1.8081 C   0  0  0  0  0  0  0  0  0  0  0  0
    7.1498   -7.9895    2.8510 C   0  0  0  0  0  0  0  0  0  0  0  0
    5.5890   -7.9682    2.7888 C   0  0  1  0  0  0  0  0  0  0  0  0
    5.1060   -9.1492    1.9070 C   0  0  0  0  0  0  0  0  0  0  0  0
    4.5972   -9.0058    0.7932 O   0  0  0  0  0  0  0  0  0  0  0  0
    5.2534  -10.5431    2.4988 C   0  0  0  0  0  0  0  0  0  0  0  0
    3.9779  -11.0126    3.2193 C   0  0  0  0  0  0  0  0  0  0  0  0
    3.2850   -9.9458    4.0840 C   0  0  0  0  0  0  0  0  0  0  0  0
    4.2442   -9.0608    4.7885 N   0  0  0  0  0  0  0  0  0  0  0  0
    5.3146   -6.6071    2.0944 C   0  0  1  0  0  0  0  0  0  0  0  0
    4.2023   -2.1612    4.7609 H   0  0  0  0  0  0  0  0  0  0  0  0
    2.7933   -2.5099    5.7493 H   0  0  0  0  0  0  0  0  0  0  0  0
    2.6052   -2.3146    4.0272 H   0  0  0  0  0  0  0  0  0  0  0  0
    2.5115   -4.6631    4.5532 H   0  0  0  0  0  0  0  0  0  0  0  0
    5.2328   -4.2740    5.9740 H   0  0  0  0  0  0  0  0  0  0  0  0
    3.6799   -4.4150    6.7224 H   0  0  0  0  0  0  0  0  0  0  0  0
    4.9740   -7.4586    7.7674 H   0  0  0  0  0  0  0  0  0  0  0  0
    4.1587   -5.9671    8.2043 H   0  0  0  0  0  0  0  0  0  0  0  0
    5.8483   -5.9248    7.6834 H   0  0  0  0  0  0  0  0  0  0  0  0
    6.0824   -6.1941    4.8122 H   0  0  0  0  0  0  0  0  0  0  0  0
    6.0643   -7.5899    5.8256 H   0  0  0  0  0  0  0  0  0  0  0  0
    2.8345   -6.7114    4.3590 H   0  0  0  0  0  0  0  0  0  0  0  0
    5.2872   -4.3882    3.6592 H   0  0  0  0  0  0  0  0  0  0  0  0
    3.5767   -4.0342    1.2666 H   0  0  0  0  0  0  0  0  0  0  0  0
    3.9017   -2.6494    2.2515 H   0  0  0  0  0  0  0  0  0  0  0  0
    5.5979   -2.7744    0.5378 H   0  0  0  0  0  0  0  0  0  0  0  0
    6.2965   -2.8964    2.1105 H   0  0  0  0  0  0  0  0  0  0  0  0
    6.0938   -5.0934    0.0091 H   0  0  0  0  0  0  0  0  0  0  0  0
    7.5092   -4.3546    0.6752 H   0  0  0  0  0  0  0  0  0  0  0  0
    6.9236   -5.3639    2.9482 H   0  0  0  0  0  0  0  0  0  0  0  0
    7.5420   -7.3639    0.8030 H   0  0  0  0  0  0  0  0  0  0  0  0
    8.6607   -6.6498    1.9560 H   0  0  0  0  0  0  0  0  0  0  0  0
    7.5848   -8.9667    2.6262 H   0  0  0  0  0  0  0  0  0  0  0  0
    7.5254   -7.7087    3.8341 H   0  0  0  0  0  0  0  0  0  0  0  0
    5.5330  -11.2469    1.7128 H   0  0  0  0  0  0  0  0  0  0  0  0
    6.0765  -10.5302    3.2145 H   0  0  0  0  0  0  0  0  0  0  0  0
    3.2558  -11.3824    2.4907 H   0  0  0  0  0  0  0  0  0  0  0  0
    4.2390  -11.8753    3.8363 H   0  0  0  0  0  0  0  0  0  0  0  0
    2.5522   -9.3767    3.5142 H   0  0  0  0  0  0  0  0  0  0  0  0
    2.7144  -10.4756    4.8475 H   0  0  0  0  0  0  0  0  0  0  0  0
    5.0329   -9.6116    5.1019 H   0  0  0  0  0  0  0  0  0  0  0  0
    4.9456   -6.7160    1.0730 H   0  0  0  0  0  0  0  0  0  0  0  0
    3.7613   -8.7340    5.6155 H   0  0  0  0  0  0  0  0  0  0  0  0
  1  2  1  0
  1 25  1  0
  1 26  1  0
  1 27  1  0
  2 10  1  0
  2  3  1  0
  2 28  1  6
  3  4  1  0
  3 29  1  0
  3 30  1  0
  4  5  1  0
  4  6  1  0
  5 31  1  0
  5 32  1  0
  5 33  1  0
  7  6  1  1
  6 34  1  0
  6 35  1  0
  7 17  1  0
  7 23  1  0
  7  8  1  0
  8  9  2  0
  8 36  1  0
  9 24  1  0
  9 10  1  0
 10 11  1  0
 10 37  1  1
 11 12  1  0
 11 38  1  0
 11 39  1  0
 12 13  1  0
 12 40  1  0
 12 41  1  0
 13 14  1  0
 13 42  1  0
 13 43  1  0
 14 24  1  0
 14 15  1  0
 14 44  1  1
 15 16  1  0
 15 45  1  0
 15 46  1  0
 17 16  1  1
 16 47  1  0
 16 48  1  0
 17 18  1  0
 17 24  1  0
 18 19  2  0
 18 20  1  0
 20 21  1  0
 20 49  1  0
 20 50  1  0
 21 22  1  0
 21 51  1  0
 21 52  1  0
 22 23  1  0
 22 53  1  0
 22 54  1  0
 23 55  1  0
 23 57  1  0
 24 56  1  6
M  CHG  1  23   1
M  END
>  <i_m_ct_stereo_status>  (53) 
1

>  <s_m_source_file>  (53) 
/var/tmp/pbs.5076255.sched01/tmp0qfm3vo4/0bcu552to.sdf

>  <i_m_source_file_index>  (53) 
21

>  <i_lp_mmshare_version>  (53) 
48012

>  <i_f3d_flags>  (53) 
0

>  <s_epik_input>  (53) 
W0NIMl0xW0NIMl1bQ0BIXTJbQ0gyXVtDSDJdW0NIMl1bQ0BASF0oW0NASF0oW0NIM10pW0NIMl1OKFtDSDNdKVtDSDJdMylDKD1bQ0hdNClbQ0BASF0yW0NAQF0xKFtDQEBdMzQ1KUMoPU8pW0NIMl1bQ0gyXVtDSDJdW05IXTU=

>  <s_epik_cmdline>  (53) 
J2VwaWtfcHl0aG9uJywgJy1waHQnLCAnMi4wJywgJy1waCcsICc3LjAnLCAnLXRuJywgJzgnLCAnLW1hJywgJzIwMCcsICctaW1hZScsICc8aW5maWxlLm1hZT4nLCAnLW9tYWUnLCAnPG91dGZpbGUubWFlPic=

>  <r_epik_Ionization_Penalty>  (53) 
0.0649839

>  <r_epik_Ionization_Penalty_Charging>  (53) 
0.0554242

>  <r_epik_Ionization_Penalty_Neutral>  (53) 
0.00955976

>  <r_epik_State_Penalty>  (53) 
0.531451

>  <r_epik_Charging_Adjusted_Penalty>  (53) 
0.586875

>  <i_epik_Tot_Q>  (53) 
1

>  <i_epik_Tot_abs_Q>  (53) 
1

>  <s_lp_Force_Field>  (53) 
OPLS3e

>  <r_lp_Energy>  (53) 
102.776

>  <b_lp_Chiralities_Consistent>  (53) 
1

>  <s_lp_Variant>  (53) 
15:0-2

>  <s_i_glide_gridfile>  (53) 
pfpi4k_grid

>  <i_i_glide_lignum>  (53) 
21

>  <i_i_glide_rotatable_bonds>  (53) 
0

>  <r_i_docking_score>  (53) 
-2.52191

>  <r_i_glide_ligand_efficiency>  (53) 
-0.10508

>  <r_i_glide_ligand_efficiency_sa>  (53) 
-0.303102

>  <r_i_glide_ligand_efficiency_ln>  (53) 
-0.603609

>  <r_i_glide_gscore>  (53) 
-2.52191

>  <r_i_glide_lipo>  (53) 
-0.310598

>  <r_i_glide_hbond>  (53) 
0

>  <r_i_glide_metal>  (53) 
-0

>  <r_i_glide_rewards>  (53) 
-1.1625

>  <r_i_glide_evdw>  (53) 
-13.0478

>  <r_i_glide_ecoul>  (53) 
-2.44406

>  <r_i_glide_erotb>  (53) 
0

>  <r_i_glide_esite>  (53) 
-0.0298094

>  <r_i_glide_emodel>  (53) 
-18.2798

>  <r_i_glide_energy>  (53) 
-15.4919

>  <r_i_glide_einternal>  (53) 
0

>  <r_i_glide_intrahb_reward>  (53) 
-0

>  <i_i_glide_confnum>  (53) 
2

>  <i_i_glide_posenum>  (53) 
1

>  <r_i_glide_eff_state_penalty>  (53) 
0

>  <ligand_id>  (53) 
15

>  <original_smiles>  (53) 
CC1CN(C)CC23C=C4C1CCCC1CCC2(C(=O)CCCN3)C41

>  <smiles>  (53) 
[H]C1=C2C3([H])C([H])([H])C([H])([H])C([H])([H])C4([H])C([H])([H])C([H])([H])C5(C(=O)C([H])([H])C([H])([H])C([H])([H])[N+]([H])([H])C15C([H])([H])N(C([H])([H])[H])C([H])([H])C3([H])C([H])([H])[H])C24[H]

$$$$
15:2:0
     RDKit          3D

 56 60  0  0  1  0  0  0  0  0999 V2000
    5.0142   -0.8879    3.3718 C   0  0  0  0  0  0  0  0  0  0  0  0
    4.0072   -2.0543    3.4307 C   0  0  2  0  0  0  0  0  0  0  0  0
    4.2061   -2.8044    4.8125 C   0  0  0  0  0  0  0  0  0  0  0  0
    3.2414   -3.8226    5.3387 N   0  0  0  0  0  0  0  0  0  0  0  0
    3.5330   -4.0697    6.7504 C   0  0  0  0  0  0  0  0  0  0  0  0
    3.1890   -5.1232    4.6027 C   0  0  0  0  0  0  0  0  0  0  0  0
    2.0098   -5.2931    3.5702 C   0  0  1  0  0  0  0  0  0  0  0  0
    1.9457   -3.9499    2.9181 C   0  0  0  0  0  0  0  0  0  0  0  0
    2.9259   -3.9201    2.0291 C   0  0  0  0  0  0  0  0  0  0  0  0
    4.1458   -3.0239    2.2071 C   0  0  1  0  0  0  0  0  0  0  0  0
    4.6631   -2.5930    0.8133 C   0  0  0  0  0  0  0  0  0  0  0  0
    5.6600   -3.6337    0.2112 C   0  0  0  0  0  0  0  0  0  0  0  0
    5.1952   -5.1061    0.0021 C   0  0  0  0  0  0  0  0  0  0  0  0
    4.5448   -5.7629    1.2416 C   0  0  2  0  0  0  0  0  0  0  0  0
    4.3219   -7.2701    1.2811 C   0  0  0  0  0  0  0  0  0  0  0  0
    3.3571   -7.4264    2.4757 C   0  0  0  0  0  0  0  0  0  0  0  0
    2.3240   -6.2576    2.3361 C   0  0  1  0  0  0  0  0  0  0  0  0
    1.0205   -6.7643    1.6444 C   0  0  0  0  0  0  0  0  0  0  0  0
    0.5723   -6.2602    0.6150 O   0  0  0  0  0  0  0  0  0  0  0  0
    0.2445   -7.9181    2.2972 C   0  0  0  0  0  0  0  0  0  0  0  0
   -0.4451   -7.5606    3.6234 C   0  0  0  0  0  0  0  0  0  0  0  0
    0.4469   -6.8948    4.6824 C   0  0  0  0  0  0  0  0  0  0  0  0
    0.7539   -5.5208    4.2973 N   0  0  0  0  0  0  0  0  0  0  0  0
    3.1065   -5.2731    1.4105 C   0  0  1  0  0  0  0  0  0  0  0  0
    6.0352   -1.2507    3.2693 H   0  0  0  0  0  0  0  0  0  0  0  0
    4.9766   -0.2721    4.2707 H   0  0  0  0  0  0  0  0  0  0  0  0
    4.8101   -0.2184    2.5372 H   0  0  0  0  0  0  0  0  0  0  0  0
    3.0316   -1.5687    3.4236 H   0  0  0  0  0  0  0  0  0  0  0  0
    5.2164   -3.2156    4.8432 H   0  0  0  0  0  0  0  0  0  0  0  0
    4.2311   -1.9989    5.5476 H   0  0  0  0  0  0  0  0  0  0  0  0
    2.8128   -4.7609    7.1878 H   0  0  0  0  0  0  0  0  0  0  0  0
    3.4826   -3.1464    7.3290 H   0  0  0  0  0  0  0  0  0  0  0  0
    4.5290   -4.4928    6.8795 H   0  0  0  0  0  0  0  0  0  0  0  0
    4.1462   -5.2572    4.1042 H   0  0  0  0  0  0  0  0  0  0  0  0
    3.1447   -5.9554    5.3061 H   0  0  0  0  0  0  0  0  0  0  0  0
    1.7017   -3.1320    3.5766 H   0  0  0  0  0  0  0  0  0  0  0  0
    4.9531   -3.6305    2.5992 H   0  0  0  0  0  0  0  0  0  0  0  0
    3.8311   -2.4127    0.1301 H   0  0  0  0  0  0  0  0  0  0  0  0
    5.1961   -1.6479    0.8714 H   0  0  0  0  0  0  0  0  0  0  0  0
    6.0122   -3.2529   -0.7491 H   0  0  0  0  0  0  0  0  0  0  0  0
    6.5455   -3.6557    0.8497 H   0  0  0  0  0  0  0  0  0  0  0  0
    4.5278   -5.1700   -0.8617 H   0  0  0  0  0  0  0  0  0  0  0  0
    6.0686   -5.6896   -0.2807 H   0  0  0  0  0  0  0  0  0  0  0  0
    5.1773   -5.5764    2.1092 H   0  0  0  0  0  0  0  0  0  0  0  0
    3.8388   -7.6031    0.3627 H   0  0  0  0  0  0  0  0  0  0  0  0
    5.2381   -7.8490    1.3976 H   0  0  0  0  0  0  0  0  0  0  0  0
    2.9237   -8.4244    2.4650 H   0  0  0  0  0  0  0  0  0  0  0  0
    3.9237   -7.3641    3.4035 H   0  0  0  0  0  0  0  0  0  0  0  0
   -0.5112   -8.2540    1.5883 H   0  0  0  0  0  0  0  0  0  0  0  0
    0.8998   -8.7718    2.4526 H   0  0  0  0  0  0  0  0  0  0  0  0
   -1.3187   -6.9319    3.4372 H   0  0  0  0  0  0  0  0  0  0  0  0
   -0.8399   -8.4844    4.0508 H   0  0  0  0  0  0  0  0  0  0  0  0
   -0.1155   -6.8791    5.6170 H   0  0  0  0  0  0  0  0  0  0  0  0
    1.3477   -7.4674    4.8988 H   0  0  0  0  0  0  0  0  0  0  0  0
    0.8251   -4.9663    5.1489 H   0  0  0  0  0  0  0  0  0  0  0  0
    2.6669   -5.2076    0.4135 H   0  0  0  0  0  0  0  0  0  0  0  0
  1  2  1  0
  1 25  1  0
  1 26  1  0
  1 27  1  0
  2 10  1  0
  2  3  1  0
  2 28  1  1
  3  4  1  0
  3 29  1  0
  3 30  1  0
  4  5  1  0
  4  6  1  0
  5 31  1  0
  5 32  1  0
  5 33  1  0
  6  7  1  0
  6 34  1  0
  6 35  1  0
  7 17  1  0
  7 23  1  1
  7  8  1  0
  8  9  2  0
  8 36  1  0
  9 24  1  0
  9 10  1  0
 10 11  1  0
 10 37  1  1
 11 12  1  0
 11 38  1  0
 11 39  1  0
 12 13  1  0
 12 40  1  0
 12 41  1  0
 13 14  1  0
 13 42  1  0
 13 43  1  0
 14 24  1  0
 14 15  1  0
 14 44  1  1
 15 16  1  0
 15 45  1  0
 15 46  1  0
 17 16  1  1
 16 47  1  0
 16 48  1  0
 17 18  1  0
 17 24  1  0
 18 19  2  0
 18 20  1  0
 20 21  1  0
 20 49  1  0
 20 50  1  0
 21 22  1  0
 21 51  1  0
 21 52  1  0
 22 23  1  0
 22 53  1  0
 22 54  1  0
 23 55  1  0
 24 56  1  6
M  END
>  <i_m_ct_stereo_status>  (54) 
1

>  <s_m_source_file>  (54) 
/var/tmp/pbs.5076255.sched01/tmp0qfm3vo4/0bcu552to.sdf

>  <i_m_source_file_index>  (54) 
22

>  <i_lp_mmshare_version>  (54) 
48012

>  <i_f3d_flags>  (54) 
0

>  <s_epik_input>  (54) 
W0NIMl0xW0NIMl1bQ0BIXTJbQ0gyXVtDSDJdW0NIMl1bQ0BASF0oW0NASF0oW0NIM10pW0NIMl1OKFtDSDNdKVtDSDJdMylDKD1bQ0hdNClbQ0BASF0yW0NAQF0xKFtDQEBdMzQ1KUMoPU8pW0NIMl1bQ0gyXVtDSDJdW05IXTU=

>  <s_epik_cmdline>  (54) 
J2VwaWtfcHl0aG9uJywgJy1waHQnLCAnMi4wJywgJy1waCcsICc3LjAnLCAnLXRuJywgJzgnLCAnLW1hJywgJzIwMCcsICctaW1hZScsICc8aW5maWxlLm1hZT4nLCAnLW9tYWUnLCAnPG91dGZpbGUubWFlPic=

>  <r_lp_tautomer_probability>  (54) 
0.99995

>  <r_epik_Ionization_Penalty>  (54) 
3.92151

>  <r_epik_Ionization_Penalty_Charging>  (54) 
0

>  <r_epik_Ionization_Penalty_Neutral>  (54) 
3.92151

>  <r_epik_State_Penalty>  (54) 
2.49242

>  <r_epik_Charging_Adjusted_Penalty>  (54) 
2.49242

>  <i_epik_Tot_Q>  (54) 
0

>  <i_epik_Tot_abs_Q>  (54) 
0

>  <s_lp_Force_Field>  (54) 
OPLS3e

>  <r_lp_Energy>  (54) 
94.6825

>  <b_lp_Chiralities_Consistent>  (54) 
1

>  <s_lp_Variant>  (54) 
15:0-3

>  <s_i_glide_gridfile>  (54) 
pfpi4k_grid

>  <i_i_glide_lignum>  (54) 
22

>  <i_i_glide_rotatable_bonds>  (54) 
0

>  <r_i_docking_score>  (54) 
-3.14804

>  <r_i_glide_ligand_efficiency>  (54) 
-0.131169

>  <r_i_glide_ligand_efficiency_sa>  (54) 
-0.378355

>  <r_i_glide_ligand_efficiency_ln>  (54) 
-0.753471

>  <r_i_glide_gscore>  (54) 
-3.14804

>  <r_i_glide_lipo>  (54) 
-0.381224

>  <r_i_glide_hbond>  (54) 
-0.172009

>  <r_i_glide_metal>  (54) 
-0

>  <r_i_glide_rewards>  (54) 
-1.16938

>  <r_i_glide_evdw>  (54) 
-16.6029

>  <r_i_glide_ecoul>  (54) 
-3.51974

>  <r_i_glide_erotb>  (54) 
0

>  <r_i_glide_esite>  (54) 
-0.0673301

>  <r_i_glide_emodel>  (54) 
-24.8065

>  <r_i_glide_energy>  (54) 
-20.1226

>  <r_i_glide_einternal>  (54) 
0

>  <r_i_glide_intrahb_reward>  (54) 
-0

>  <i_i_glide_confnum>  (54) 
1

>  <i_i_glide_posenum>  (54) 
21

>  <r_i_glide_eff_state_penalty>  (54) 
0

>  <ligand_id>  (54) 
15

>  <original_smiles>  (54) 
CC1CN(C)CC23C=C4C1CCCC1CCC2(C(=O)CCCN3)C41

>  <smiles>  (54) 
[H]C1=C2C3([H])C([H])([H])C([H])([H])C([H])([H])C4([H])C([H])([H])C([H])([H])C5(C(=O)C([H])([H])C([H])([H])C([H])([H])N([H])C15C([H])([H])N(C([H])([H])[H])C([H])([H])C3([H])C([H])([H])[H])C24[H]

$$$$
15:2:1
     RDKit          3D

 56 60  0  0  1  0  0  0  0  0999 V2000
    4.3783   -0.3889    3.3522 C   0  0  0  0  0  0  0  0  0  0  0  0
    3.6343   -1.7377    3.4408 C   0  0  2  0  0  0  0  0  0  0  0  0
    4.2560   -2.5605    4.6449 C   0  0  0  0  0  0  0  0  0  0  0  0
    3.6290   -3.8007    5.2027 N   0  0  0  0  0  0  0  0  0  0  0  0
    4.2527   -4.1171    6.4855 C   0  0  0  0  0  0  0  0  0  0  0  0
    3.6579   -5.0058    4.3189 C   0  0  0  0  0  0  0  0  0  0  0  0
    2.3373   -5.3161    3.5162 C   0  0  1  0  0  0  0  0  0  0  0  0
    1.8921   -3.9563    3.0795 C   0  0  0  0  0  0  0  0  0  0  0  0
    2.6367   -3.6415    2.0324 C   0  0  0  0  0  0  0  0  0  0  0  0
    3.6835   -2.5348    2.0946 C   0  0  1  0  0  0  0  0  0  0  0  0
    3.8049   -1.8741    0.6993 C   0  0  0  0  0  0  0  0  0  0  0  0
    4.8226   -2.6226   -0.2178 C   0  0  0  0  0  0  0  0  0  0  0  0
    4.6000   -4.1316   -0.5333 C   0  0  0  0  0  0  0  0  0  0  0  0
    4.3608   -5.0241    0.7079 C   0  0  2  0  0  0  0  0  0  0  0  0
    4.4296   -6.5391    0.5832 C   0  0  0  0  0  0  0  0  0  0  0  0
    3.7859   -7.0101    1.9051 C   0  0  0  0  0  0  0  0  0  0  0  0
    2.5525   -6.0690    2.1271 C   0  0  1  0  0  0  0  0  0  0  0  0
    1.2429   -6.7617    1.6362 C   0  0  0  0  0  0  0  0  0  0  0  0
    0.5010   -6.2544    0.7956 O   0  0  0  0  0  0  0  0  0  0  0  0
    0.8528   -8.1112    2.2582 C   0  0  0  0  0  0  0  0  0  0  0  0
    0.4091   -8.0374    3.7266 C   0  0  0  0  0  0  0  0  0  0  0  0
    1.3692   -7.3053    4.6755 C   0  0  0  0  0  0  0  0  0  0  0  0
    1.3280   -5.8655    4.4309 N   0  0  0  0  0  0  0  0  0  0  0  0
    2.9264   -4.8617    1.2113 C   0  0  1  0  0  0  0  0  0  0  0  0
    5.4051   -0.5260    3.0139 H   0  0  0  0  0  0  0  0  0  0  0  0
    4.4206    0.1174    4.3168 H   0  0  0  0  0  0  0  0  0  0  0  0
    3.8833    0.3016    2.6712 H   0  0  0  0  0  0  0  0  0  0  0  0
    2.6086   -1.4652    3.6865 H   0  0  0  0  0  0  0  0  0  0  0  0
    5.3082   -2.7533    4.4269 H   0  0  0  0  0  0  0  0  0  0  0  0
    4.2914   -1.8397    5.4648 H   0  0  0  0  0  0  0  0  0  0  0  0
    3.7821   -4.9809    6.9551 H   0  0  0  0  0  0  0  0  0  0  0  0
    4.1610   -3.2831    7.1837 H   0  0  0  0  0  0  0  0  0  0  0  0
    5.3127   -4.3385    6.3630 H   0  0  0  0  0  0  0  0  0  0  0  0
    4.4954   -4.8932    3.6346 H   0  0  0  0  0  0  0  0  0  0  0  0
    3.9157   -5.8952    4.8986 H   0  0  0  0  0  0  0  0  0  0  0  0
    1.6525   -3.2758    3.8776 H   0  0  0  0  0  0  0  0  0  0  0  0
    4.6519   -2.9982    2.2393 H   0  0  0  0  0  0  0  0  0  0  0  0
    2.8259   -1.8088    0.2173 H   0  0  0  0  0  0  0  0  0  0  0  0
    4.1535   -0.8493    0.7802 H   0  0  0  0  0  0  0  0  0  0  0  0
    4.8844   -2.0827   -1.1657 H   0  0  0  0  0  0  0  0  0  0  0  0
    5.8126   -2.5235    0.2328 H   0  0  0  0  0  0  0  0  0  0  0  0
    3.7821   -4.2463   -1.2489 H   0  0  0  0  0  0  0  0  0  0  0  0
    5.4819   -4.4939   -1.0616 H   0  0  0  0  0  0  0  0  0  0  0  0
    5.1193   -4.7964    1.4582 H   0  0  0  0  0  0  0  0  0  0  0  0
    3.8363   -6.8651   -0.2726 H   0  0  0  0  0  0  0  0  0  0  0  0
    5.4378   -6.9263    0.4551 H   0  0  0  0  0  0  0  0  0  0  0  0
    3.5511   -8.0683    1.8389 H   0  0  0  0  0  0  0  0  0  0  0  0
    4.5158   -6.9212    2.7055 H   0  0  0  0  0  0  0  0  0  0  0  0
    0.0321   -8.5322    1.6815 H   0  0  0  0  0  0  0  0  0  0  0  0
    1.6721   -8.8240    2.1673 H   0  0  0  0  0  0  0  0  0  0  0  0
   -0.5819   -7.5823    3.7934 H   0  0  0  0  0  0  0  0  0  0  0  0
    0.2863   -9.0591    4.0889 H   0  0  0  0  0  0  0  0  0  0  0  0
    1.0216   -7.4965    5.6928 H   0  0  0  0  0  0  0  0  0  0  0  0
    2.3835   -7.6963    4.6385 H   0  0  0  0  0  0  0  0  0  0  0  0
    1.4713   -5.3948    5.3206 H   0  0  0  0  0  0  0  0  0  0  0  0
    2.2810   -4.7942    0.3323 H   0  0  0  0  0  0  0  0  0  0  0  0
  1  2  1  0
  1 25  1  0
  1 26  1  0
  1 27  1  0
  2 10  1  0
  2  3  1  0
  2 28  1  1
  3  4  1  0
  3 29  1  0
  3 30  1  0
  4  5  1  0
  4  6  1  0
  5 31  1  0
  5 32  1  0
  5 33  1  0
  6  7  1  0
  6 34  1  0
  6 35  1  0
  7 17  1  0
  7 23  1  1
  7  8  1  0
  8  9  2  0
  8 36  1  0
  9 24  1  0
  9 10  1  0
 10 11  1  0
 10 37  1  1
 11 12  1  0
 11 38  1  0
 11 39  1  0
 12 13  1  0
 12 40  1  0
 12 41  1  0
 13 14  1  0
 13 42  1  0
 13 43  1  0
 14 24  1  0
 14 15  1  0
 14 44  1  1
 15 16  1  0
 15 45  1  0
 15 46  1  0
 17 16  1  1
 16 47  1  0
 16 48  1  0
 17 18  1  0
 17 24  1  0
 18 19  2  0
 18 20  1  0
 20 21  1  0
 20 49  1  0
 20 50  1  0
 21 22  1  0
 21 51  1  0
 21 52  1  0
 22 23  1  0
 22 53  1  0
 22 54  1  0
 23 55  1  0
 24 56  1  6
M  END
>  <i_m_ct_stereo_status>  (55) 
1

>  <s_m_source_file>  (55) 
/var/tmp/pbs.5076255.sched01/tmp0qfm3vo4/0bcu552to.sdf

>  <i_m_source_file_index>  (55) 
22

>  <i_lp_mmshare_version>  (55) 
48012

>  <i_f3d_flags>  (55) 
0

>  <s_epik_input>  (55) 
W0NIMl0xW0NIMl1bQ0BIXTJbQ0gyXVtDSDJdW0NIMl1bQ0BASF0oW0NASF0oW0NIM10pW0NIMl1OKFtDSDNdKVtDSDJdMylDKD1bQ0hdNClbQ0BASF0yW0NAQF0xKFtDQEBdMzQ1KUMoPU8pW0NIMl1bQ0gyXVtDSDJdW05IXTU=

>  <s_epik_cmdline>  (55) 
J2VwaWtfcHl0aG9uJywgJy1waHQnLCAnMi4wJywgJy1waCcsICc3LjAnLCAnLXRuJywgJzgnLCAnLW1hJywgJzIwMCcsICctaW1hZScsICc8aW5maWxlLm1hZT4nLCAnLW9tYWUnLCAnPG91dGZpbGUubWFlPic=

>  <r_lp_tautomer_probability>  (55) 
0.99995

>  <r_epik_Ionization_Penalty>  (55) 
3.92151

>  <r_epik_Ionization_Penalty_Charging>  (55) 
0

>  <r_epik_Ionization_Penalty_Neutral>  (55) 
3.92151

>  <r_epik_State_Penalty>  (55) 
2.49242

>  <r_epik_Charging_Adjusted_Penalty>  (55) 
2.49242

>  <i_epik_Tot_Q>  (55) 
0

>  <i_epik_Tot_abs_Q>  (55) 
0

>  <s_lp_Force_Field>  (55) 
OPLS3e

>  <r_lp_Energy>  (55) 
94.6825

>  <b_lp_Chiralities_Consistent>  (55) 
1

>  <s_lp_Variant>  (55) 
15:0-3

>  <s_i_glide_gridfile>  (55) 
pfpi4k_grid

>  <i_i_glide_lignum>  (55) 
22

>  <i_i_glide_rotatable_bonds>  (55) 
0

>  <r_i_docking_score>  (55) 
-3.10368

>  <r_i_glide_ligand_efficiency>  (55) 
-0.12932

>  <r_i_glide_ligand_efficiency_sa>  (55) 
-0.373023

>  <r_i_glide_ligand_efficiency_ln>  (55) 
-0.742853

>  <r_i_glide_gscore>  (55) 
-3.10368

>  <r_i_glide_lipo>  (55) 
-0.28174

>  <r_i_glide_hbond>  (55) 
-0.16

>  <r_i_glide_metal>  (55) 
-0

>  <r_i_glide_rewards>  (55) 
-1.16938

>  <r_i_glide_evdw>  (55) 
-16.0299

>  <r_i_glide_ecoul>  (55) 
-4.22966

>  <r_i_glide_erotb>  (55) 
0

>  <r_i_glide_esite>  (55) 
-0.0566193

>  <r_i_glide_emodel>  (55) 
-24.8735

>  <r_i_glide_energy>  (55) 
-20.2596

>  <r_i_glide_einternal>  (55) 
0

>  <r_i_glide_intrahb_reward>  (55) 
-0

>  <i_i_glide_confnum>  (55) 
2

>  <i_i_glide_posenum>  (55) 
13

>  <r_i_glide_eff_state_penalty>  (55) 
0

>  <ligand_id>  (55) 
15

>  <original_smiles>  (55) 
CC1CN(C)CC23C=C4C1CCCC1CCC2(C(=O)CCCN3)C41

>  <smiles>  (55) 
[H]C1=C2C3([H])C([H])([H])C([H])([H])C([H])([H])C4([H])C([H])([H])C([H])([H])C5(C(=O)C([H])([H])C([H])([H])C([H])([H])N([H])C15C([H])([H])N(C([H])([H])[H])C([H])([H])C3([H])C([H])([H])[H])C24[H]

$$$$
15:2:2
     RDKit          3D

 56 60  0  0  1  0  0  0  0  0999 V2000
    5.4963   -4.9280    6.4404 C   0  0  0  0  0  0  0  0  0  0  0  0
    4.1880   -5.5130    5.8682 C   0  0  2  0  0  0  0  0  0  0  0  0
    3.7449   -6.7168    6.7982 C   0  0  0  0  0  0  0  0  0  0  0  0
    2.3949   -7.3614    6.7144 N   0  0  0  0  0  0  0  0  0  0  0  0
    2.1912   -8.1940    7.8989 C   0  0  0  0  0  0  0  0  0  0  0  0
    2.1284   -8.1686    5.4854 C   0  0  0  0  0  0  0  0  0  0  0  0
    1.2911   -7.4592    4.3541 C   0  0  1  0  0  0  0  0  0  0  0  0
    1.8504   -6.0709    4.3466 C   0  0  0  0  0  0  0  0  0  0  0  0
    2.9875   -6.1293    3.6808 C   0  0  0  0  0  0  0  0  0  0  0  0
    4.3377   -5.9462    4.3693 C   0  0  1  0  0  0  0  0  0  0  0  0
    5.3276   -5.2996    3.3726 C   0  0  0  0  0  0  0  0  0  0  0  0
    6.0584   -6.3657    2.4971 C   0  0  0  0  0  0  0  0  0  0  0  0
    5.2168   -7.3380    1.6137 C   0  0  0  0  0  0  0  0  0  0  0  0
    4.0736   -8.0638    2.3608 C   0  0  2  0  0  0  0  0  0  0  0  0
    3.3714   -9.2553    1.7157 C   0  0  0  0  0  0  0  0  0  0  0  0
    2.1156   -9.4068    2.5982 C   0  0  0  0  0  0  0  0  0  0  0  0
    1.6024   -7.9480    2.8687 C   0  0  1  0  0  0  0  0  0  0  0  0
    0.4389   -7.5780    1.8972 C   0  0  0  0  0  0  0  0  0  0  0  0
    0.4621   -6.5813    1.1627 O   0  0  0  0  0  0  0  0  0  0  0  0
   -0.8036   -8.4705    1.8877 C   0  0  0  0  0  0  0  0  0  0  0  0
   -1.6827   -8.3715    3.1364 C   0  0  0  0  0  0  0  0  0  0  0  0
   -0.9453   -8.5648    4.4700 C   0  0  0  0  0  0  0  0  0  0  0  0
   -0.1199   -7.3957    4.7641 N   0  0  0  0  0  0  0  0  0  0  0  0
    2.8859   -7.1178    2.5576 C   0  0  1  0  0  0  0  0  0  0  0  0
    6.3275   -5.6205    6.3143 H   0  0  0  0  0  0  0  0  0  0  0  0
    5.4112   -4.7146    7.5060 H   0  0  0  0  0  0  0  0  0  0  0  0
    5.7617   -3.9855    5.9630 H   0  0  0  0  0  0  0  0  0  0  0  0
    3.4667   -4.7021    5.9611 H   0  0  0  0  0  0  0  0  0  0  0  0
    4.5146   -7.4881    6.7608 H   0  0  0  0  0  0  0  0  0  0  0  0
    3.8286   -6.3134    7.8083 H   0  0  0  0  0  0  0  0  0  0  0  0
    1.1954   -8.6380    7.9042 H   0  0  0  0  0  0  0  0  0  0  0  0
    2.2858   -7.6066    8.8130 H   0  0  0  0  0  0  0  0  0  0  0  0
    2.9193   -9.0043    7.9421 H   0  0  0  0  0  0  0  0  0  0  0  0
    3.0866   -8.4964    5.0916 H   0  0  0  0  0  0  0  0  0  0  0  0
    1.6235   -9.1014    5.7447 H   0  0  0  0  0  0  0  0  0  0  0  0
    1.7155   -5.5226    5.2681 H   0  0  0  0  0  0  0  0  0  0  0  0
    4.7605   -6.9257    4.5486 H   0  0  0  0  0  0  0  0  0  0  0  0
    4.8230   -4.5642    2.7461 H   0  0  0  0  0  0  0  0  0  0  0  0
    6.1013   -4.7476    3.8992 H   0  0  0  0  0  0  0  0  0  0  0  0
    6.7676   -5.8472    1.8488 H   0  0  0  0  0  0  0  0  0  0  0  0
    6.6761   -6.9748    3.1588 H   0  0  0  0  0  0  0  0  0  0  0  0
    4.8267   -6.8094    0.7391 H   0  0  0  0  0  0  0  0  0  0  0  0
    5.8989   -8.0844    1.2076 H   0  0  0  0  0  0  0  0  0  0  0  0
    4.4658   -8.4737    3.2884 H   0  0  0  0  0  0  0  0  0  0  0  0
    3.0843   -9.0295    0.6913 H   0  0  0  0  0  0  0  0  0  0  0  0
    3.9802  -10.1576    1.6920 H   0  0  0  0  0  0  0  0  0  0  0  0
    1.4030  -10.0657    2.1034 H   0  0  0  0  0  0  0  0  0  0  0  0
    2.3927   -9.9237    3.5194 H   0  0  0  0  0  0  0  0  0  0  0  0
   -1.3809   -8.2117    1.0098 H   0  0  0  0  0  0  0  0  0  0  0  0
   -0.5235   -9.5103    1.7477 H   0  0  0  0  0  0  0  0  0  0  0  0
   -2.2175   -7.4211    3.1449 H   0  0  0  0  0  0  0  0  0  0  0  0
   -2.4476   -9.1466    3.0649 H   0  0  0  0  0  0  0  0  0  0  0  0
   -1.7073   -8.6656    5.2456 H   0  0  0  0  0  0  0  0  0  0  0  0
   -0.3735   -9.4881    4.5105 H   0  0  0  0  0  0  0  0  0  0  0  0
   -0.1057   -7.2752    5.7714 H   0  0  0  0  0  0  0  0  0  0  0  0
    2.7798   -6.5336    1.6458 H   0  0  0  0  0  0  0  0  0  0  0  0
  1  2  1  0
  1 25  1  0
  1 26  1  0
  1 27  1  0
  2 10  1  0
  2  3  1  0
  2 28  1  6
  3  4  1  0
  3 29  1  0
  3 30  1  0
  4  5  1  0
  4  6  1  0
  5 31  1  0
  5 32  1  0
  5 33  1  0
  6  7  1  0
  6 34  1  0
  6 35  1  0
  7 17  1  0
  7 23  1  1
  7  8  1  0
  8  9  2  0
  8 36  1  0
  9 24  1  0
  9 10  1  0
 10 11  1  0
 10 37  1  1
 11 12  1  0
 11 38  1  0
 11 39  1  0
 12 13  1  0
 12 40  1  0
 12 41  1  0
 13 14  1  0
 13 42  1  0
 13 43  1  0
 14 24  1  0
 14 15  1  0
 14 44  1  1
 15 16  1  0
 15 45  1  0
 15 46  1  0
 17 16  1  1
 16 47  1  0
 16 48  1  0
 17 18  1  0
 17 24  1  0
 18 19  2  0
 18 20  1  0
 20 21  1  0
 20 49  1  0
 20 50  1  0
 21 22  1  0
 21 51  1  0
 21 52  1  0
 22 23  1  0
 22 53  1  0
 22 54  1  0
 23 55  1  0
 24 56  1  6
M  END
>  <i_m_ct_stereo_status>  (56) 
1

>  <s_m_source_file>  (56) 
/var/tmp/pbs.5076255.sched01/tmp0qfm3vo4/0bcu552to.sdf

>  <i_m_source_file_index>  (56) 
22

>  <i_lp_mmshare_version>  (56) 
48012

>  <i_f3d_flags>  (56) 
0

>  <s_epik_input>  (56) 
W0NIMl0xW0NIMl1bQ0BIXTJbQ0gyXVtDSDJdW0NIMl1bQ0BASF0oW0NASF0oW0NIM10pW0NIMl1OKFtDSDNdKVtDSDJdMylDKD1bQ0hdNClbQ0BASF0yW0NAQF0xKFtDQEBdMzQ1KUMoPU8pW0NIMl1bQ0gyXVtDSDJdW05IXTU=

>  <s_epik_cmdline>  (56) 
J2VwaWtfcHl0aG9uJywgJy1waHQnLCAnMi4wJywgJy1waCcsICc3LjAnLCAnLXRuJywgJzgnLCAnLW1hJywgJzIwMCcsICctaW1hZScsICc8aW5maWxlLm1hZT4nLCAnLW9tYWUnLCAnPG91dGZpbGUubWFlPic=

>  <r_lp_tautomer_probability>  (56) 
0.99995

>  <r_epik_Ionization_Penalty>  (56) 
3.92151

>  <r_epik_Ionization_Penalty_Charging>  (56) 
0

>  <r_epik_Ionization_Penalty_Neutral>  (56) 
3.92151

>  <r_epik_State_Penalty>  (56) 
2.49242

>  <r_epik_Charging_Adjusted_Penalty>  (56) 
2.49242

>  <i_epik_Tot_Q>  (56) 
0

>  <i_epik_Tot_abs_Q>  (56) 
0

>  <s_lp_Force_Field>  (56) 
OPLS3e

>  <r_lp_Energy>  (56) 
94.6825

>  <b_lp_Chiralities_Consistent>  (56) 
1

>  <s_lp_Variant>  (56) 
15:0-3

>  <s_i_glide_gridfile>  (56) 
pfpi4k_grid

>  <i_i_glide_lignum>  (56) 
22

>  <i_i_glide_rotatable_bonds>  (56) 
0

>  <r_i_docking_score>  (56) 
-2.98739

>  <r_i_glide_ligand_efficiency>  (56) 
-0.124474

>  <r_i_glide_ligand_efficiency_sa>  (56) 
-0.359046

>  <r_i_glide_ligand_efficiency_ln>  (56) 
-0.715018

>  <r_i_glide_gscore>  (56) 
-2.98739

>  <r_i_glide_lipo>  (56) 
-0.137629

>  <r_i_glide_hbond>  (56) 
-0.15317

>  <r_i_glide_metal>  (56) 
-0

>  <r_i_glide_rewards>  (56) 
-1.16938

>  <r_i_glide_evdw>  (56) 
-17.2751

>  <r_i_glide_ecoul>  (56) 
-3.99959

>  <r_i_glide_erotb>  (56) 
0

>  <r_i_glide_esite>  (56) 
-0.0635146

>  <r_i_glide_emodel>  (56) 
-25.7085

>  <r_i_glide_energy>  (56) 
-21.2747

>  <r_i_glide_einternal>  (56) 
0

>  <r_i_glide_intrahb_reward>  (56) 
-0

>  <i_i_glide_confnum>  (56) 
1

>  <i_i_glide_posenum>  (56) 
2

>  <r_i_glide_eff_state_penalty>  (56) 
0

>  <ligand_id>  (56) 
15

>  <original_smiles>  (56) 
CC1CN(C)CC23C=C4C1CCCC1CCC2(C(=O)CCCN3)C41

>  <smiles>  (56) 
[H]C1=C2C3([H])C([H])([H])C([H])([H])C([H])([H])C4([H])C([H])([H])C([H])([H])C5(C(=O)C([H])([H])C([H])([H])C([H])([H])N([H])C15C([H])([H])N(C([H])([H])[H])C([H])([H])C3([H])C([H])([H])[H])C24[H]

$$$$
15:3:0
     RDKit          3D

 58 62  0  0  1  0  0  0  0  0999 V2000
    2.1617   -7.8871    4.6600 C   0  0  0  0  0  0  0  0  0  0  0  0
    2.5782   -6.8192    3.6262 C   0  0  2  0  0  0  0  0  0  0  0  0
    2.5660   -7.4361    2.1611 C   0  0  0  0  0  0  0  0  0  0  0  0
    3.9113   -7.5645    1.4728 N   0  0  1  0  0  0  0  0  0  0  0  0
    4.1665   -8.9717    1.0719 C   0  0  0  0  0  0  0  0  0  0  0  0
    4.2126   -6.5953    0.3374 C   0  0  0  0  0  0  0  0  0  0  0  0
    4.5344   -5.0802    0.6827 C   0  0  1  0  0  0  0  0  0  0  0  0
    3.6804   -4.7844    1.8817 C   0  0  0  0  0  0  0  0  0  0  0  0
    4.3682   -5.0900    2.9796 C   0  0  0  0  0  0  0  0  0  0  0  0
    3.9348   -6.1352    3.9957 C   0  0  1  0  0  0  0  0  0  0  0  0
    4.3462   -5.6927    5.4172 C   0  0  0  0  0  0  0  0  0  0  0  0
    5.7948   -6.1609    5.7740 C   0  0  0  0  0  0  0  0  0  0  0  0
    6.9825   -5.7240    4.8669 C   0  0  0  0  0  0  0  0  0  0  0  0
    6.7726   -5.9417    3.3437 C   0  0  2  0  0  0  0  0  0  0  0  0
    7.9367   -5.8315    2.3613 C   0  0  0  0  0  0  0  0  0  0  0  0
    7.1932   -5.7617    1.0096 C   0  0  0  0  0  0  0  0  0  0  0  0
    6.0124   -4.7570    1.2308 C   0  0  1  0  0  0  0  0  0  0  0  0
    6.4653   -3.3161    0.8507 C   0  0  0  0  0  0  0  0  0  0  0  0
    6.3236   -2.3552    1.6076 O   0  0  0  0  0  0  0  0  0  0  0  0
    6.9601   -3.0427   -0.5680 C   0  0  0  0  0  0  0  0  0  0  0  0
    5.8005   -2.8573   -1.5518 C   0  0  0  0  0  0  0  0  0  0  0  0
    4.8564   -4.0618   -1.6366 C   0  0  0  0  0  0  0  0  0  0  0  0
    4.0300   -4.2030   -0.4179 N   0  0  0  0  0  0  0  0  0  0  0  0
    5.8268   -4.8810    2.7706 C   0  0  1  0  0  0  0  0  0  0  0  0
    2.9178   -8.6684    4.7594 H   0  0  0  0  0  0  0  0  0  0  0  0
    1.2235   -8.3707    4.3824 H   0  0  0  0  0  0  0  0  0  0  0  0
    1.9959   -7.4541    5.6455 H   0  0  0  0  0  0  0  0  0  0  0  0
    1.7946   -6.0618    3.6650 H   0  0  0  0  0  0  0  0  0  0  0  0
    2.0706   -8.4058    2.2018 H   0  0  0  0  0  0  0  0  0  0  0  0
    1.8793   -6.8695    1.5318 H   0  0  0  0  0  0  0  0  0  0  0  0
    3.4802   -9.3091    0.2918 H   0  0  0  0  0  0  0  0  0  0  0  0
    4.0503   -9.6489    1.9224 H   0  0  0  0  0  0  0  0  0  0  0  0
    5.1858   -9.0889    0.7002 H   0  0  0  0  0  0  0  0  0  0  0  0
    5.0034   -6.9924   -0.2957 H   0  0  0  0  0  0  0  0  0  0  0  0
    3.3438   -6.6024   -0.3137 H   0  0  0  0  0  0  0  0  0  0  0  0
    2.6187   -4.9415    1.7801 H   0  0  0  0  0  0  0  0  0  0  0  0
    4.5468   -7.0187    3.8638 H   0  0  0  0  0  0  0  0  0  0  0  0
    4.2476   -4.6104    5.5325 H   0  0  0  0  0  0  0  0  0  0  0  0
    3.6768   -6.1218    6.1578 H   0  0  0  0  0  0  0  0  0  0  0  0
    6.0151   -5.8345    6.7904 H   0  0  0  0  0  0  0  0  0  0  0  0
    5.7969   -7.2508    5.8220 H   0  0  0  0  0  0  0  0  0  0  0  0
    7.2172   -4.6844    5.0953 H   0  0  0  0  0  0  0  0  0  0  0  0
    7.8639   -6.2808    5.1783 H   0  0  0  0  0  0  0  0  0  0  0  0
    6.4274   -6.9640    3.1863 H   0  0  0  0  0  0  0  0  0  0  0  0
    8.5160   -4.9191    2.5044 H   0  0  0  0  0  0  0  0  0  0  0  0
    8.6349   -6.6680    2.4184 H   0  0  0  0  0  0  0  0  0  0  0  0
    7.8935   -5.4969    0.2177 H   0  0  0  0  0  0  0  0  0  0  0  0
    6.8456   -6.7664    0.7864 H   0  0  0  0  0  0  0  0  0  0  0  0
    7.5635   -2.1356   -0.5430 H   0  0  0  0  0  0  0  0  0  0  0  0
    7.6170   -3.8325   -0.9238 H   0  0  0  0  0  0  0  0  0  0  0  0
    5.2353   -1.9499   -1.3135 H   0  0  0  0  0  0  0  0  0  0  0  0
    6.2234   -2.6968   -2.5438 H   0  0  0  0  0  0  0  0  0  0  0  0
    4.1686   -3.8700   -2.4608 H   0  0  0  0  0  0  0  0  0  0  0  0
    5.3675   -4.9891   -1.8886 H   0  0  0  0  0  0  0  0  0  0  0  0
    3.1627   -4.6006   -0.7506 H   0  0  0  0  0  0  0  0  0  0  0  0
    6.0268   -3.9474    3.2964 H   0  0  0  0  0  0  0  0  0  0  0  0
    4.5918   -7.3737    2.1951 H   0  0  0  0  0  0  0  0  0  0  0  0
    3.8349   -3.2779   -0.0590 H   0  0  0  0  0  0  0  0  0  0  0  0
  1  2  1  0
  1 25  1  0
  1 26  1  0
  1 27  1  0
  2 10  1  0
  2  3  1  0
  2 28  1  6
  3  4  1  0
  3 29  1  0
  3 30  1  0
  4  5  1  0
  4  6  1  0
  4 57  1  1
  5 31  1  0
  5 32  1  0
  5 33  1  0
  7  6  1  6
  6 34  1  0
  6 35  1  0
  7 17  1  0
  7 23  1  0
  7  8  1  0
  8  9  2  0
  8 36  1  0
  9 24  1  0
  9 10  1  0
 10 11  1  0
 10 37  1  6
 11 12  1  0
 11 38  1  0
 11 39  1  0
 12 13  1  0
 12 40  1  0
 12 41  1  0
 13 14  1  0
 13 42  1  0
 13 43  1  0
 14 24  1  0
 14 15  1  0
 14 44  1  1
 15 16  1  0
 15 45  1  0
 15 46  1  0
 17 16  1  6
 16 47  1  0
 16 48  1  0
 17 18  1  0
 17 24  1  0
 18 19  2  0
 18 20  1  0
 20 21  1  0
 20 49  1  0
 20 50  1  0
 21 22  1  0
 21 51  1  0
 21 52  1  0
 22 23  1  0
 22 53  1  0
 22 54  1  0
 23 55  1  0
 23 58  1  0
 24 56  1  1
M  CHG  2   4   1  23   1
M  END
>  <i_m_ct_stereo_status>  (57) 
1

>  <s_m_source_file>  (57) 
/var/tmp/pbs.5076255.sched01/tmp0qfm3vo4/0bcu552to.sdf

>  <i_m_source_file_index>  (57) 
23

>  <i_lp_mmshare_version>  (57) 
48012

>  <i_f3d_flags>  (57) 
0

>  <s_epik_input>  (57) 
W0NIMl0xW0NIMl1bQ0BIXTJbQ0gyXVtDSDJdW0NIMl1bQ0BASF0oW0NASF0oW0NIM10pW0NIMl1OKFtDSDNdKVtDSDJdMylDKD1bQ0hdNClbQ0BASF0yW0NAQF0xKFtDQEBdMzQ1KUMoPU8pW0NIMl1bQ0gyXVtDSDJdW05IXTU=

>  <s_epik_cmdline>  (57) 
J2VwaWtfcHl0aG9uJywgJy1waHQnLCAnMi4wJywgJy1waCcsICc3LjAnLCAnLXRuJywgJzgnLCAnLW1hJywgJzIwMCcsICctaW1hZScsICc8aW5maWxlLm1hZT4nLCAnLW9tYWUnLCAnPG91dGZpbGUubWFlPic=

>  <r_lp_tautomer_probability>  (57) 
0.99995

>  <r_epik_Ionization_Penalty>  (57) 
4.18096

>  <r_epik_Ionization_Penalty_Charging>  (57) 
4.18096

>  <r_epik_Ionization_Penalty_Neutral>  (57) 
7.90465e-11

>  <r_epik_State_Penalty>  (57) 
2.64259

>  <r_epik_Charging_Adjusted_Penalty>  (57) 
6.82355

>  <i_epik_Tot_Q>  (57) 
2

>  <i_epik_Tot_abs_Q>  (57) 
2

>  <s_lp_Force_Field>  (57) 
OPLS3e

>  <r_lp_Energy>  (57) 
111.686

>  <b_lp_Chiralities_Consistent>  (57) 
1

>  <s_lp_Variant>  (57) 
15:0-4

>  <s_i_glide_gridfile>  (57) 
pfpi4k_grid

>  <i_i_glide_lignum>  (57) 
23

>  <i_i_glide_rotatable_bonds>  (57) 
0

>  <r_i_docking_score>  (57) 
-3.20249

>  <r_i_glide_ligand_efficiency>  (57) 
-0.133437

>  <r_i_glide_ligand_efficiency_sa>  (57) 
-0.3849

>  <r_i_glide_ligand_efficiency_ln>  (57) 
-0.766504

>  <r_i_glide_gscore>  (57) 
-3.20249

>  <r_i_glide_lipo>  (57) 
-0.468031

>  <r_i_glide_hbond>  (57) 
0

>  <r_i_glide_metal>  (57) 
-0

>  <r_i_glide_rewards>  (57) 
-1.26852

>  <r_i_glide_evdw>  (57) 
-14.4753

>  <r_i_glide_ecoul>  (57) 
-4.81768

>  <r_i_glide_erotb>  (57) 
0

>  <r_i_glide_esite>  (57) 
-0.019529

>  <r_i_glide_emodel>  (57) 
-23.4084

>  <r_i_glide_energy>  (57) 
-19.293

>  <r_i_glide_einternal>  (57) 
0

>  <r_i_glide_intrahb_reward>  (57) 
-0

>  <i_i_glide_confnum>  (57) 
1

>  <i_i_glide_posenum>  (57) 
7

>  <r_i_glide_eff_state_penalty>  (57) 
0

>  <ligand_id>  (57) 
15

>  <original_smiles>  (57) 
CC1CN(C)CC23C=C4C1CCCC1CCC2(C(=O)CCCN3)C41

>  <smiles>  (57) 
[H]C1=C2C3([H])C([H])([H])C([H])([H])C([H])([H])C4([H])C([H])([H])C([H])([H])C5(C(=O)C([H])([H])C([H])([H])C([H])([H])[N+]([H])([H])C15C([H])([H])[N+]([H])(C([H])([H])[H])C([H])([H])C3([H])C([H])([H])[H])C24[H]

$$$$
15:3:1
     RDKit          3D

 58 62  0  0  1  0  0  0  0  0999 V2000
    8.2293   -6.7961    3.1626 C   0  0  0  0  0  0  0  0  0  0  0  0
    7.3584   -6.2639    2.0040 C   0  0  2  0  0  0  0  0  0  0  0  0
    8.2770   -5.5119    0.9504 C   0  0  0  0  0  0  0  0  0  0  0  0
    8.0721   -4.0111    0.8139 N   0  0  1  0  0  0  0  0  0  0  0  0
    9.3568   -3.2899    0.9907 C   0  0  0  0  0  0  0  0  0  0  0  0
    7.3775   -3.4862   -0.4311 C   0  0  0  0  0  0  0  0  0  0  0  0
    5.8086   -3.6954   -0.5508 C   0  0  1  0  0  0  0  0  0  0  0  0
    5.5609   -5.0176    0.1155 C   0  0  0  0  0  0  0  0  0  0  0  0
    5.2934   -4.8299    1.3855 C   0  0  0  0  0  0  0  0  0  0  0  0
    6.1403   -5.4222    2.5051 C   0  0  1  0  0  0  0  0  0  0  0  0
    5.2777   -5.7423    3.7371 C   0  0  0  0  0  0  0  0  0  0  0  0
    5.1064   -4.5048    4.6778 C   0  0  0  0  0  0  0  0  0  0  0  0
    4.5004   -3.1868    4.1067 C   0  0  0  0  0  0  0  0  0  0  0  0
    5.1369   -2.6844    2.7925 C   0  0  2  0  0  0  0  0  0  0  0  0
    4.8602   -1.2796    2.2827 C   0  0  0  0  0  0  0  0  0  0  0  0
    5.3955   -1.3540    0.8386 C   0  0  0  0  0  0  0  0  0  0  0  0
    4.8595   -2.7193    0.2902 C   0  0  1  0  0  0  0  0  0  0  0  0
    3.5015   -2.5006   -0.4286 C   0  0  0  0  0  0  0  0  0  0  0  0
    2.5054   -3.1737   -0.1303 O   0  0  0  0  0  0  0  0  0  0  0  0
    3.4431   -1.5615   -1.6388 C   0  0  0  0  0  0  0  0  0  0  0  0
    3.9085   -2.2028   -2.9180 C   0  0  0  0  0  0  0  0  0  0  0  0
    5.3310   -2.6907   -2.8347 C   0  0  0  0  0  0  0  0  0  0  0  0
    5.4208   -3.8841   -1.9774 N   0  0  0  0  0  0  0  0  0  0  0  0
    4.6419   -3.5081    1.6144 C   0  0  1  0  0  0  0  0  0  0  0  0
    8.6424   -5.9908    3.7725 H   0  0  0  0  0  0  0  0  0  0  0  0
    9.0670   -7.3950    2.8059 H   0  0  0  0  0  0  0  0  0  0  0  0
    7.6640   -7.4587    3.8121 H   0  0  0  0  0  0  0  0  0  0  0  0
    6.9799   -7.1492    1.4990 H   0  0  0  0  0  0  0  0  0  0  0  0
    9.3149   -5.7325    1.1889 H   0  0  0  0  0  0  0  0  0  0  0  0
    8.1884   -5.9991   -0.0171 H   0  0  0  0  0  0  0  0  0  0  0  0
   10.0624   -3.4598    0.1910 H   0  0  0  0  0  0  0  0  0  0  0  0
    9.8163   -3.5966    1.9256 H   0  0  0  0  0  0  0  0  0  0  0  0
    9.2317   -2.2058    0.9969 H   0  0  0  0  0  0  0  0  0  0  0  0
    7.5944   -2.4289   -0.5481 H   0  0  0  0  0  0  0  0  0  0  0  0
    7.9213   -3.8801   -1.2854 H   0  0  0  0  0  0  0  0  0  0  0  0
    6.1280   -5.8716   -0.2238 H   0  0  0  0  0  0  0  0  0  0  0  0
    6.7692   -4.6458    2.8788 H   0  0  0  0  0  0  0  0  0  0  0  0
    4.3084   -6.1318    3.4194 H   0  0  0  0  0  0  0  0  0  0  0  0
    5.7383   -6.5311    4.3239 H   0  0  0  0  0  0  0  0  0  0  0  0
    4.4893   -4.8143    5.5214 H   0  0  0  0  0  0  0  0  0  0  0  0
    6.0762   -4.2598    5.1177 H   0  0  0  0  0  0  0  0  0  0  0  0
    3.4244   -3.2894    3.9796 H   0  0  0  0  0  0  0  0  0  0  0  0
    4.6133   -2.4194    4.8671 H   0  0  0  0  0  0  0  0  0  0  0  0
    6.2140   -2.6991    2.8894 H   0  0  0  0  0  0  0  0  0  0  0  0
    3.7897   -1.0920    2.2818 H   0  0  0  0  0  0  0  0  0  0  0  0
    5.3361   -0.4951    2.8675 H   0  0  0  0  0  0  0  0  0  0  0  0
    5.0867   -0.4717    0.2769 H   0  0  0  0  0  0  0  0  0  0  0  0
    6.4807   -1.3220    0.8878 H   0  0  0  0  0  0  0  0  0  0  0  0
    2.4371   -1.2735   -1.9063 H   0  0  0  0  0  0  0  0  0  0  0  0
    3.9905   -0.6422   -1.4330 H   0  0  0  0  0  0  0  0  0  0  0  0
    3.2259   -3.0053   -3.2117 H   0  0  0  0  0  0  0  0  0  0  0  0
    3.8413   -1.4473   -3.6986 H   0  0  0  0  0  0  0  0  0  0  0  0
    5.5981   -3.0252   -3.8435 H   0  0  0  0  0  0  0  0  0  0  0  0
    6.0202   -1.9080   -2.5325 H   0  0  0  0  0  0  0  0  0  0  0  0
    6.1541   -4.4179   -2.4066 H   0  0  0  0  0  0  0  0  0  0  0  0
    3.5987   -3.7558    1.8076 H   0  0  0  0  0  0  0  0  0  0  0  0
    7.4960   -3.7607    1.6063 H   0  0  0  0  0  0  0  0  0  0  0  0
    4.5569   -4.4073   -2.0547 H   0  0  0  0  0  0  0  0  0  0  0  0
  1  2  1  0
  1 25  1  0
  1 26  1  0
  1 27  1  0
  2 10  1  0
  2  3  1  0
  2 28  1  6
  3  4  1  0
  3 29  1  0
  3 30  1  0
  4  5  1  0
  4  6  1  0
  4 57  1  1
  5 31  1  0
  5 32  1  0
  5 33  1  0
  7  6  1  6
  6 34  1  0
  6 35  1  0
  7 17  1  0
  7 23  1  0
  7  8  1  0
  8  9  2  0
  8 36  1  0
  9 24  1  0
  9 10  1  0
 10 11  1  0
 10 37  1  1
 11 12  1  0
 11 38  1  0
 11 39  1  0
 12 13  1  0
 12 40  1  0
 12 41  1  0
 13 14  1  0
 13 42  1  0
 13 43  1  0
 14 24  1  0
 14 15  1  0
 14 44  1  1
 15 16  1  0
 15 45  1  0
 15 46  1  0
 17 16  1  1
 16 47  1  0
 16 48  1  0
 17 18  1  0
 17 24  1  0
 18 19  2  0
 18 20  1  0
 20 21  1  0
 20 49  1  0
 20 50  1  0
 21 22  1  0
 21 51  1  0
 21 52  1  0
 22 23  1  0
 22 53  1  0
 22 54  1  0
 23 55  1  0
 23 58  1  0
 24 56  1  1
M  CHG  2   4   1  23   1
M  END
>  <i_m_ct_stereo_status>  (58) 
1

>  <s_m_source_file>  (58) 
/var/tmp/pbs.5076255.sched01/tmp0qfm3vo4/0bcu552to.sdf

>  <i_m_source_file_index>  (58) 
23

>  <i_lp_mmshare_version>  (58) 
48012

>  <i_f3d_flags>  (58) 
0

>  <s_epik_input>  (58) 
W0NIMl0xW0NIMl1bQ0BIXTJbQ0gyXVtDSDJdW0NIMl1bQ0BASF0oW0NASF0oW0NIM10pW0NIMl1OKFtDSDNdKVtDSDJdMylDKD1bQ0hdNClbQ0BASF0yW0NAQF0xKFtDQEBdMzQ1KUMoPU8pW0NIMl1bQ0gyXVtDSDJdW05IXTU=

>  <s_epik_cmdline>  (58) 
J2VwaWtfcHl0aG9uJywgJy1waHQnLCAnMi4wJywgJy1waCcsICc3LjAnLCAnLXRuJywgJzgnLCAnLW1hJywgJzIwMCcsICctaW1hZScsICc8aW5maWxlLm1hZT4nLCAnLW9tYWUnLCAnPG91dGZpbGUubWFlPic=

>  <r_lp_tautomer_probability>  (58) 
0.99995

>  <r_epik_Ionization_Penalty>  (58) 
4.18096

>  <r_epik_Ionization_Penalty_Charging>  (58) 
4.18096

>  <r_epik_Ionization_Penalty_Neutral>  (58) 
7.90465e-11

>  <r_epik_State_Penalty>  (58) 
2.64259

>  <r_epik_Charging_Adjusted_Penalty>  (58) 
6.82355

>  <i_epik_Tot_Q>  (58) 
2

>  <i_epik_Tot_abs_Q>  (58) 
2

>  <s_lp_Force_Field>  (58) 
OPLS3e

>  <r_lp_Energy>  (58) 
111.686

>  <b_lp_Chiralities_Consistent>  (58) 
1

>  <s_lp_Variant>  (58) 
15:0-4

>  <s_i_glide_gridfile>  (58) 
pfpi4k_grid

>  <i_i_glide_lignum>  (58) 
23

>  <i_i_glide_rotatable_bonds>  (58) 
0

>  <r_i_docking_score>  (58) 
-3.14894

>  <r_i_glide_ligand_efficiency>  (58) 
-0.131206

>  <r_i_glide_ligand_efficiency_sa>  (58) 
-0.378463

>  <r_i_glide_ligand_efficiency_ln>  (58) 
-0.753685

>  <r_i_glide_gscore>  (58) 
-3.14894

>  <r_i_glide_lipo>  (58) 
-0.939468

>  <r_i_glide_hbond>  (58) 
0

>  <r_i_glide_metal>  (58) 
-0

>  <r_i_glide_rewards>  (58) 
-1.15563

>  <r_i_glide_evdw>  (58) 
-14.82

>  <r_i_glide_ecoul>  (58) 
-1.79143

>  <r_i_glide_erotb>  (58) 
0

>  <r_i_glide_esite>  (58) 
-0.0441253

>  <r_i_glide_emodel>  (58) 
-20.4476

>  <r_i_glide_energy>  (58) 
-16.6114

>  <r_i_glide_einternal>  (58) 
0

>  <r_i_glide_intrahb_reward>  (58) 
-0

>  <i_i_glide_confnum>  (58) 
2

>  <i_i_glide_posenum>  (58) 
4

>  <r_i_glide_eff_state_penalty>  (58) 
0

>  <ligand_id>  (58) 
15

>  <original_smiles>  (58) 
CC1CN(C)CC23C=C4C1CCCC1CCC2(C(=O)CCCN3)C41

>  <smiles>  (58) 
[H]C1=C2C3([H])C([H])([H])C([H])([H])C([H])([H])C4([H])C([H])([H])C([H])([H])C5(C(=O)C([H])([H])C([H])([H])C([H])([H])[N+]([H])([H])C15C([H])([H])[N+]([H])(C([H])([H])[H])C([H])([H])C3([H])C([H])([H])[H])C24[H]

$$$$
15:3:2
     RDKit          3D

 58 62  0  0  1  0  0  0  0  0999 V2000
    4.6765   -6.9096    4.8523 C   0  0  0  0  0  0  0  0  0  0  0  0
    4.3964   -6.2004    3.5125 C   0  0  2  0  0  0  0  0  0  0  0  0
    5.5055   -6.5906    2.4483 C   0  0  0  0  0  0  0  0  0  0  0  0
    6.4244   -5.4684    1.9987 N   0  0  1  0  0  0  0  0  0  0  0  0
    7.8466   -5.8170    2.2480 C   0  0  0  0  0  0  0  0  0  0  0  0
    6.2291   -4.9416    0.5855 C   0  0  0  0  0  0  0  0  0  0  0  0
    4.9723   -4.0121    0.2950 C   0  0  1  0  0  0  0  0  0  0  0  0
    3.8912   -4.5649    1.1758 C   0  0  0  0  0  0  0  0  0  0  0  0
    3.9368   -3.9513    2.3600 C   0  0  0  0  0  0  0  0  0  0  0  0
    4.2084   -4.6584    3.6782 C   0  0  1  0  0  0  0  0  0  0  0  0
    3.4060   -3.9878    4.8123 C   0  0  0  0  0  0  0  0  0  0  0  0
    4.1962   -2.8048    5.4599 C   0  0  0  0  0  0  0  0  0  0  0  0
    4.6743   -1.6273    4.5579 C   0  0  0  0  0  0  0  0  0  0  0  0
    5.4017   -2.0441    3.2567 C   0  0  2  0  0  0  0  0  0  0  0  0
    6.1624   -1.0214    2.4284 C   0  0  0  0  0  0  0  0  0  0  0  0
    6.4230   -1.7993    1.1194 C   0  0  0  0  0  0  0  0  0  0  0  0
    5.0570   -2.4802    0.7997 C   0  0  1  0  0  0  0  0  0  0  0  0
    4.2348   -1.5154   -0.0918 C   0  0  0  0  0  0  0  0  0  0  0  0
    3.1562   -1.0744    0.2776 O   0  0  0  0  0  0  0  0  0  0  0  0
    4.7626   -1.0993   -1.4628 C   0  0  0  0  0  0  0  0  0  0  0  0
    4.5757   -2.1790   -2.5268 C   0  0  0  0  0  0  0  0  0  0  0  0
    5.2481   -3.5101   -2.1898 C   0  0  0  0  0  0  0  0  0  0  0  0
    4.5229   -4.2232   -1.1051 N   0  0  0  0  0  0  0  0  0  0  0  0
    4.4165   -2.5523    2.2174 C   0  0  1  0  0  0  0  0  0  0  0  0
    5.5681   -6.5131    5.3397 H   0  0  0  0  0  0  0  0  0  0  0  0
    4.8225   -7.9825    4.7169 H   0  0  0  0  0  0  0  0  0  0  0  0
    3.8430   -6.8081    5.5409 H   0  0  0  0  0  0  0  0  0  0  0  0
    3.4590   -6.6255    3.1535 H   0  0  0  0  0  0  0  0  0  0  0  0
    6.0939   -7.4171    2.8449 H   0  0  0  0  0  0  0  0  0  0  0  0
    5.0396   -7.0587    1.5782 H   0  0  0  0  0  0  0  0  0  0  0  0
    8.1776   -6.6418    1.6094 H   0  0  0  0  0  0  0  0  0  0  0  0
    7.9987   -6.1117    3.2895 H   0  0  0  0  0  0  0  0  0  0  0  0
    8.4949   -4.9585    2.0582 H   0  0  0  0  0  0  0  0  0  0  0  0
    7.1281   -4.4183    0.2612 H   0  0  0  0  0  0  0  0  0  0  0  0
    6.1858   -5.8195   -0.0660 H   0  0  0  0  0  0  0  0  0  0  0  0
    3.6622   -5.6132    1.0671 H   0  0  0  0  0  0  0  0  0  0  0  0
    5.2284   -4.4579    3.9899 H   0  0  0  0  0  0  0  0  0  0  0  0
    2.4306   -3.6485    4.4524 H   0  0  0  0  0  0  0  0  0  0  0  0
    3.1873   -4.7030    5.6004 H   0  0  0  0  0  0  0  0  0  0  0  0
    3.5908   -2.3904    6.2666 H   0  0  0  0  0  0  0  0  0  0  0  0
    5.0740   -3.2229    5.9596 H   0  0  0  0  0  0  0  0  0  0  0  0
    3.8356   -0.9659    4.3258 H   0  0  0  0  0  0  0  0  0  0  0  0
    5.3479   -1.0167    5.1525 H   0  0  0  0  0  0  0  0  0  0  0  0
    6.1559   -2.7857    3.4956 H   0  0  0  0  0  0  0  0  0  0  0  0
    5.5406   -0.1408    2.2555 H   0  0  0  0  0  0  0  0  0  0  0  0
    7.0723   -0.6480    2.8806 H   0  0  0  0  0  0  0  0  0  0  0  0
    6.8030   -1.1113    0.3663 H   0  0  0  0  0  0  0  0  0  0  0  0
    7.2134   -2.5271    1.2835 H   0  0  0  0  0  0  0  0  0  0  0  0
    4.2306   -0.1988   -1.7747 H   0  0  0  0  0  0  0  0  0  0  0  0
    5.8113   -0.8251   -1.4007 H   0  0  0  0  0  0  0  0  0  0  0  0
    3.5122   -2.3217   -2.7445 H   0  0  0  0  0  0  0  0  0  0  0  0
    5.0164   -1.8169   -3.4539 H   0  0  0  0  0  0  0  0  0  0  0  0
    5.1687   -4.1429   -3.0694 H   0  0  0  0  0  0  0  0  0  0  0  0
    6.3181   -3.4113   -1.9917 H   0  0  0  0  0  0  0  0  0  0  0  0
    4.6019   -5.2087   -1.3203 H   0  0  0  0  0  0  0  0  0  0  0  0
    3.5138   -1.9462    2.3335 H   0  0  0  0  0  0  0  0  0  0  0  0
    6.2251   -4.7014    2.6243 H   0  0  0  0  0  0  0  0  0  0  0  0
    3.5414   -3.9901   -1.1903 H   0  0  0  0  0  0  0  0  0  0  0  0
  1  2  1  0
  1 25  1  0
  1 26  1  0
  1 27  1  0
  2 10  1  0
  2  3  1  0
  2 28  1  6
  3  4  1  0
  3 29  1  0
  3 30  1  0
  4  5  1  0
  4  6  1  0
  4 57  1  1
  5 31  1  0
  5 32  1  0
  5 33  1  0
  7  6  1  6
  6 34  1  0
  6 35  1  0
  7 17  1  0
  7 23  1  0
  7  8  1  0
  8  9  2  0
  8 36  1  0
  9 24  1  0
  9 10  1  0
 10 11  1  0
 10 37  1  1
 11 12  1  0
 11 38  1  0
 11 39  1  0
 12 13  1  0
 12 40  1  0
 12 41  1  0
 13 14  1  0
 13 42  1  0
 13 43  1  0
 14 24  1  0
 14 15  1  0
 14 44  1  1
 15 16  1  0
 15 45  1  0
 15 46  1  0
 17 16  1  1
 16 47  1  0
 16 48  1  0
 17 18  1  0
 17 24  1  0
 18 19  2  0
 18 20  1  0
 20 21  1  0
 20 49  1  0
 20 50  1  0
 21 22  1  0
 21 51  1  0
 21 52  1  0
 22 23  1  0
 22 53  1  0
 22 54  1  0
 23 55  1  0
 23 58  1  0
 24 56  1  6
M  CHG  2   4   1  23   1
M  END
>  <i_m_ct_stereo_status>  (59) 
1

>  <s_m_source_file>  (59) 
/var/tmp/pbs.5076255.sched01/tmp0qfm3vo4/0bcu552to.sdf

>  <i_m_source_file_index>  (59) 
23

>  <i_lp_mmshare_version>  (59) 
48012

>  <i_f3d_flags>  (59) 
0

>  <s_epik_input>  (59) 
W0NIMl0xW0NIMl1bQ0BIXTJbQ0gyXVtDSDJdW0NIMl1bQ0BASF0oW0NASF0oW0NIM10pW0NIMl1OKFtDSDNdKVtDSDJdMylDKD1bQ0hdNClbQ0BASF0yW0NAQF0xKFtDQEBdMzQ1KUMoPU8pW0NIMl1bQ0gyXVtDSDJdW05IXTU=

>  <s_epik_cmdline>  (59) 
J2VwaWtfcHl0aG9uJywgJy1waHQnLCAnMi4wJywgJy1waCcsICc3LjAnLCAnLXRuJywgJzgnLCAnLW1hJywgJzIwMCcsICctaW1hZScsICc8aW5maWxlLm1hZT4nLCAnLW9tYWUnLCAnPG91dGZpbGUubWFlPic=

>  <r_lp_tautomer_probability>  (59) 
0.99995

>  <r_epik_Ionization_Penalty>  (59) 
4.18096

>  <r_epik_Ionization_Penalty_Charging>  (59) 
4.18096

>  <r_epik_Ionization_Penalty_Neutral>  (59) 
7.90465e-11

>  <r_epik_State_Penalty>  (59) 
2.64259

>  <r_epik_Charging_Adjusted_Penalty>  (59) 
6.82355

>  <i_epik_Tot_Q>  (59) 
2

>  <i_epik_Tot_abs_Q>  (59) 
2

>  <s_lp_Force_Field>  (59) 
OPLS3e

>  <r_lp_Energy>  (59) 
111.686

>  <b_lp_Chiralities_Consistent>  (59) 
1

>  <s_lp_Variant>  (59) 
15:0-4

>  <s_i_glide_gridfile>  (59) 
pfpi4k_grid

>  <i_i_glide_lignum>  (59) 
23

>  <i_i_glide_rotatable_bonds>  (59) 
0

>  <r_i_docking_score>  (59) 
-3.09554

>  <r_i_glide_ligand_efficiency>  (59) 
-0.128981

>  <r_i_glide_ligand_efficiency_sa>  (59) 
-0.372045

>  <r_i_glide_ligand_efficiency_ln>  (59) 
-0.740905

>  <r_i_glide_gscore>  (59) 
-3.09554

>  <r_i_glide_lipo>  (59) 
-0.697959

>  <r_i_glide_hbond>  (59) 
0

>  <r_i_glide_metal>  (59) 
-0

>  <r_i_glide_rewards>  (59) 
-1.15563

>  <r_i_glide_evdw>  (59) 
-15.0588

>  <r_i_glide_ecoul>  (59) 
-2.88884

>  <r_i_glide_erotb>  (59) 
0

>  <r_i_glide_esite>  (59) 
-0.0556862

>  <r_i_glide_emodel>  (59) 
-21.8848

>  <r_i_glide_energy>  (59) 
-17.9476

>  <r_i_glide_einternal>  (59) 
0

>  <r_i_glide_intrahb_reward>  (59) 
-0

>  <i_i_glide_confnum>  (59) 
1

>  <i_i_glide_posenum>  (59) 
1

>  <r_i_glide_eff_state_penalty>  (59) 
0

>  <ligand_id>  (59) 
15

>  <original_smiles>  (59) 
CC1CN(C)CC23C=C4C1CCCC1CCC2(C(=O)CCCN3)C41

>  <smiles>  (59) 
[H]C1=C2C3([H])C([H])([H])C([H])([H])C([H])([H])C4([H])C([H])([H])C([H])([H])C5(C(=O)C([H])([H])C([H])([H])C([H])([H])[N+]([H])([H])C15C([H])([H])[N+]([H])(C([H])([H])[H])C([H])([H])C3([H])C([H])([H])[H])C24[H]

$$$$
16:0:0
     RDKit          3D

 58 62  0  0  1  0  0  0  0  0999 V2000
    3.1723    0.9593    3.1354 C   0  0  0  0  0  0  0  0  0  0  0  0
    2.9943   -0.1511    2.1005 C   0  0  0  0  0  0  0  0  0  0  0  0
    3.9637   -0.9181    1.6342 C   0  0  0  0  0  0  0  0  0  0  0  0
    4.6690   -1.5078    2.9271 C   0  0  0  0  0  0  0  0  0  0  0  0
    4.6357   -2.8544    3.4579 C   0  0  0  0  0  0  0  0  0  0  0  0
    5.1675   -3.0190    4.8350 C   0  0  0  0  0  0  0  0  0  0  0  0
    5.2016   -4.0755    5.4672 O   0  0  0  0  0  0  0  0  0  0  0  0
    4.1476   -4.3111    2.7235 C   0  0  1  0  0  0  0  0  0  0  0  0
    5.1901   -5.2897    2.8163 O   0  0  0  0  0  0  0  0  0  0  0  0
    3.0234   -4.7748    1.5606 C   0  0  1  0  0  0  0  0  0  0  0  0
    3.1751   -6.3288    1.2347 C   0  0  0  0  0  0  0  0  0  0  0  0
    1.7117   -5.1418    2.0472 O   0  0  0  0  0  0  0  0  0  0  0  0
    2.9612   -3.5310    0.2663 C   0  0  1  0  0  0  0  0  0  0  0  0
    3.3926   -1.7386    0.2631 C   0  0  1  0  0  0  0  0  0  0  0  0
    3.9230   -1.6581   -1.1121 C   0  0  0  0  0  0  0  0  0  0  0  0
    3.4547   -1.0931   -2.2331 C   0  0  0  0  0  0  0  0  0  0  0  0
    3.8677   -1.9188   -3.4265 C   0  0  0  0  0  0  0  0  0  0  0  0
    4.1681   -3.2662   -2.7441 C   0  0  1  0  0  0  0  0  0  0  0  0
    5.0200   -4.0602   -3.5306 O   0  0  0  0  0  0  0  0  0  0  0  0
    4.6945   -2.9013   -1.3168 C   0  0  1  0  0  0  0  0  0  0  0  0
    6.2055   -2.5431   -1.3853 C   0  0  0  0  0  0  0  0  0  0  0  0
    4.2678   -3.8438   -0.0686 C   0  0  2  0  0  0  0  0  0  0  0  0
    4.6613   -5.0980   -0.5806 O   0  0  0  0  0  0  0  0  0  0  0  0
    4.0048   -3.5383    1.5850 C   0  0  2  0  0  0  0  0  0  0  0  0
    5.4817   -3.3381    1.2846 O   0  0  0  0  0  0  0  0  0  0  0  0
    2.3575   -2.6336    2.4273 C   0  0  1  0  0  0  0  0  0  0  0  0
    1.9333   -3.1142    3.7208 O   0  0  0  0  0  0  0  0  0  0  0  0
    1.8292   -1.0973    2.2794 C   0  0  1  0  0  0  0  0  0  0  0  0
    0.7435   -0.6465    3.3013 C   0  0  0  0  0  0  0  0  0  0  0  0
    0.1462    0.5816    2.9215 O   0  0  0  0  0  0  0  0  0  0  0  0
    2.6083    1.8304    2.8060 H   0  0  0  0  0  0  0  0  0  0  0  0
    4.2081    1.2811    3.1994 H   0  0  0  0  0  0  0  0  0  0  0  0
    2.8782    0.7033    4.1501 H   0  0  0  0  0  0  0  0  0  0  0  0
    5.1231   -0.7690    3.5764 H   0  0  0  0  0  0  0  0  0  0  0  0
    5.5480   -2.1042    5.2866 H   0  0  0  0  0  0  0  0  0  0  0  0
    5.4384   -5.5458    1.9449 H   0  0  0  0  0  0  0  0  0  0  0  0
    4.1881   -6.6747    1.0290 H   0  0  0  0  0  0  0  0  0  0  0  0
    2.5685   -6.5944    0.3721 H   0  0  0  0  0  0  0  0  0  0  0  0
    2.8943   -6.9981    2.0573 H   0  0  0  0  0  0  0  0  0  0  0  0
    1.4983   -4.5113    2.7346 H   0  0  0  0  0  0  0  0  0  0  0  0
    2.2349   -3.7942   -0.5160 H   0  0  0  0  0  0  0  0  0  0  0  0
    4.4550   -1.4995    0.3433 H   0  0  0  0  0  0  0  0  0  0  0  0
    2.6734   -0.3576   -2.2885 H   0  0  0  0  0  0  0  0  0  0  0  0
    3.0717   -1.9976   -4.1674 H   0  0  0  0  0  0  0  0  0  0  0  0
    4.7435   -1.4710   -3.8908 H   0  0  0  0  0  0  0  0  0  0  0  0
    3.2201   -3.7908   -2.6514 H   0  0  0  0  0  0  0  0  0  0  0  0
    4.9796   -4.9388   -3.1835 H   0  0  0  0  0  0  0  0  0  0  0  0
    6.8241   -3.4418   -1.4012 H   0  0  0  0  0  0  0  0  0  0  0  0
    6.5072   -1.9200   -0.5417 H   0  0  0  0  0  0  0  0  0  0  0  0
    6.4111   -1.9688   -2.2861 H   0  0  0  0  0  0  0  0  0  0  0  0
    4.0429   -5.3320   -1.2635 H   0  0  0  0  0  0  0  0  0  0  0  0
    5.7924   -4.1199    0.8570 H   0  0  0  0  0  0  0  0  0  0  0  0
    1.4326   -2.9319    1.9341 H   0  0  0  0  0  0  0  0  0  0  0  0
    1.1907   -2.6149    4.0131 H   0  0  0  0  0  0  0  0  0  0  0  0
    1.2999   -1.0282    1.3291 H   0  0  0  0  0  0  0  0  0  0  0  0
   -0.0559   -1.3920    3.3382 H   0  0  0  0  0  0  0  0  0  0  0  0
    1.1292   -0.5630    4.3203 H   0  0  0  0  0  0  0  0  0  0  0  0
    0.0075    0.5828    1.9845 H   0  0  0  0  0  0  0  0  0  0  0  0
  1  2  1  0
  1 31  1  0
  1 32  1  0
  1 33  1  0
  2 28  1  0
  2  3  2  3
  3 14  1  0
  3  4  1  0
  4  5  2  0
  4 34  1  0
  5  6  1  0
  5  8  1  0
  6  7  2  0
  6 35  1  0
  8 24  1  0
  8  9  1  6
  8 10  1  0
  9 36  1  0
 10 11  1  0
 10 12  1  1
 10 13  1  0
 11 37  1  0
 11 38  1  0
 11 39  1  0
 12 40  1  0
 13 22  1  0
 13 14  1  0
 13 41  1  6
 14 15  1  0
 14 42  1  6
 15 20  1  0
 15 16  2  0
 16 17  1  0
 16 43  1  0
 17 18  1  0
 17 44  1  0
 17 45  1  0
 18 19  1  0
 18 20  1  0
 18 46  1  1
 19 47  1  0
 20 21  1  6
 20 22  1  0
 21 48  1  0
 21 49  1  0
 21 50  1  0
 22 23  1  1
 22 24  1  0
 23 51  1  0
 24 25  1  1
 24 26  1  0
 25 52  1  0
 26 27  1  0
 26 28  1  0
 26 53  1  6
 27 54  1  0
 28 29  1  0
 28 55  1  6
 29 30  1  0
 29 56  1  0
 29 57  1  0
 30 58  1  0
M  END
>  <i_m_ct_stereo_status>  (60) 
1

>  <s_m_source_file>  (60) 
/var/tmp/pbs.5076255.sched01/tmp0qfm3vo4/0bcu552to.sdf

>  <i_m_source_file_index>  (60) 
24

>  <i_lp_mmshare_version>  (60) 
48012

>  <i_f3d_flags>  (60) 
0

>  <s_epik_input>  (60) 
Tz1bQ0hdQzE9W0NIXS9DKD1DKFxbQ0gzXSlbQ0BASF0oW0NAQEhdMltPSF0pW0NIMl1bT0hdKVtDQEBIXShbQ0BASF0oW0NAXTMoW0NIM10pW09IXSlDNChbT0hdKVtDQF0yKFtPSF0pW0NAQF0xM1tPSF0pQz01W0NAXTQoW0NIM10pW0NASF0oW09IXSlbQ0gyXVtDSF01

>  <s_epik_cmdline>  (60) 
J2VwaWtfcHl0aG9uJywgJy1waHQnLCAnMi4wJywgJy1waCcsICc3LjAnLCAnLXRuJywgJzgnLCAnLW1hJywgJzIwMCcsICctaW1hZScsICc8aW5maWxlLm1hZT4nLCAnLW9tYWUnLCAnPG91dGZpbGUubWFlPic=

>  <r_lp_tautomer_probability>  (60) 
1

>  <r_epik_Ionization_Penalty>  (60) 
3.2273e-05

>  <r_epik_Ionization_Penalty_Charging>  (60) 
0

>  <r_epik_Ionization_Penalty_Neutral>  (60) 
3.2273e-05

>  <r_epik_State_Penalty>  (60) 
-0

>  <r_epik_Charging_Adjusted_Penalty>  (60) 
0

>  <i_epik_Tot_Q>  (60) 
0

>  <i_epik_Tot_abs_Q>  (60) 
0

>  <s_lp_Force_Field>  (60) 
OPLS3e

>  <r_lp_Energy>  (60) 
775.598

>  <b_lp_Chiralities_Consistent>  (60) 
1

>  <s_lp_Variant>  (60) 
16:0-1

>  <s_i_glide_gridfile>  (60) 
pfpi4k_grid

>  <i_i_glide_lignum>  (60) 
24

>  <i_i_glide_rotatable_bonds>  (60) 
9

>  <r_i_docking_score>  (60) 
-3.58958

>  <r_i_glide_ligand_efficiency>  (60) 
-0.119653

>  <r_i_glide_ligand_efficiency_sa>  (60) 
-0.371788

>  <r_i_glide_ligand_efficiency_ln>  (60) 
-0.815591

>  <r_i_glide_gscore>  (60) 
-3.58958

>  <r_i_glide_lipo>  (60) 
-0.328142

>  <r_i_glide_hbond>  (60) 
0

>  <r_i_glide_metal>  (60) 
-0

>  <r_i_glide_rewards>  (60) 
-0.58348

>  <r_i_glide_evdw>  (60) 
-23.479

>  <r_i_glide_ecoul>  (60) 
-10.7731

>  <r_i_glide_erotb>  (60) 
0.111961

>  <r_i_glide_esite>  (60) 
0

>  <r_i_glide_emodel>  (60) 
-39.0104

>  <r_i_glide_energy>  (60) 
-34.2521

>  <r_i_glide_einternal>  (60) 
2.07474

>  <r_i_glide_intrahb_reward>  (60) 
-0

>  <i_i_glide_confnum>  (60) 
2

>  <i_i_glide_posenum>  (60) 
24

>  <r_i_glide_eff_state_penalty>  (60) 
0

>  <ligand_id>  (60) 
16

>  <original_smiles>  (60) 
CC1=C2C=C(C=O)C3(O)C(C)(O)C4C2C2=CCC(O)C2(C)C4(O)C3(O)C(O)C1CO

>  <smiles>  (60) 
[H]OC([H])([H])C1([H])C(C([H])([H])[H])=C2C([H])=C(C([H])=O)C3(O[H])C(O[H])(C([H])([H])[H])C4([H])C2([H])C2=C([H])C([H])([H])C([H])(O[H])C2(C([H])([H])[H])C4(O[H])C3(O[H])C1([H])O[H]

$$$$
16:0:1
     RDKit          3D

 58 62  0  0  1  0  0  0  0  0999 V2000
    2.7783    1.2466    2.9420 C   0  0  0  0  0  0  0  0  0  0  0  0
    2.6826    0.0752    1.9610 C   0  0  0  0  0  0  0  0  0  0  0  0
    3.6979   -0.6472    1.5370 C   0  0  0  0  0  0  0  0  0  0  0  0
    4.4672   -1.0908    2.8444 C   0  0  0  0  0  0  0  0  0  0  0  0
    4.5303   -2.4036    3.4569 C   0  0  0  0  0  0  0  0  0  0  0  0
    5.0460   -2.4503    4.8417 C   0  0  0  0  0  0  0  0  0  0  0  0
    5.1504   -3.4683    5.5365 O   0  0  0  0  0  0  0  0  0  0  0  0
    4.1427   -3.9397    2.8139 C   0  0  1  0  0  0  0  0  0  0  0  0
    5.2533   -4.8306    2.9289 O   0  0  0  0  0  0  0  0  0  0  0  0
    3.0717   -4.5519    1.6750 C   0  0  1  0  0  0  0  0  0  0  0  0
    3.3488   -6.0974    1.4418 C   0  0  0  0  0  0  0  0  0  0  0  0
    1.7925   -4.9855    2.1593 O   0  0  0  0  0  0  0  0  0  0  0  0
    2.9084   -3.3942    0.3210 C   0  0  1  0  0  0  0  0  0  0  0  0
    3.2100   -1.5807    0.2135 C   0  0  1  0  0  0  0  0  0  0  0  0
    3.7860   -1.5249   -1.1387 C   0  0  0  0  0  0  0  0  0  0  0  0
    3.2654   -1.0637   -2.2911 C   0  0  0  0  0  0  0  0  0  0  0  0
    3.7061   -1.9125   -3.4463 C   0  0  0  0  0  0  0  0  0  0  0  0
    4.1093   -3.1886   -2.6953 C   0  0  1  0  0  0  0  0  0  0  0  0
    5.0144   -3.9336   -3.4670 O   0  0  0  0  0  0  0  0  0  0  0  0
    4.6137   -2.7183   -1.2816 C   0  0  1  0  0  0  0  0  0  0  0  0
    6.0815   -2.2484   -1.3743 C   0  0  0  0  0  0  0  0  0  0  0  0
    4.2417   -3.6223    0.0093 C   0  0  2  0  0  0  0  0  0  0  0  0
    4.7099   -4.8690   -0.4659 O   0  0  0  0  0  0  0  0  0  0  0  0
    3.9484   -3.2531    1.6403 C   0  0  2  0  0  0  0  0  0  0  0  0
    5.4110   -2.9575    1.3419 O   0  0  0  0  0  0  0  0  0  0  0  0
    2.2511   -2.4251    2.4411 C   0  0  1  0  0  0  0  0  0  0  0  0
    1.8535   -2.8920    3.7412 O   0  0  0  0  0  0  0  0  0  0  0  0
    1.6253   -0.9470    2.2391 C   0  0  1  0  0  0  0  0  0  0  0  0
    0.5041   -0.5274    3.2203 C   0  0  0  0  0  0  0  0  0  0  0  0
   -0.2101    0.6277    2.7803 O   0  0  0  0  0  0  0  0  0  0  0  0
    2.1261    2.0494    2.5973 H   0  0  0  0  0  0  0  0  0  0  0  0
    3.7862    1.6549    2.9538 H   0  0  0  0  0  0  0  0  0  0  0  0
    2.5289    1.0228    3.9785 H   0  0  0  0  0  0  0  0  0  0  0  0
    4.8461   -0.2800    3.4494 H   0  0  0  0  0  0  0  0  0  0  0  0
    5.3588   -1.4789    5.2407 H   0  0  0  0  0  0  0  0  0  0  0  0
    5.5707   -4.9090    2.0380 H   0  0  0  0  0  0  0  0  0  0  0  0
    4.3914   -6.3708    1.2611 H   0  0  0  0  0  0  0  0  0  0  0  0
    2.7789   -6.4598    0.5855 H   0  0  0  0  0  0  0  0  0  0  0  0
    3.1196   -6.7277    2.3090 H   0  0  0  0  0  0  0  0  0  0  0  0
    1.5619   -4.3753    2.8630 H   0  0  0  0  0  0  0  0  0  0  0  0
    2.2095   -3.7586   -0.4394 H   0  0  0  0  0  0  0  0  0  0  0  0
    4.2499   -1.2571    0.3027 H   0  0  0  0  0  0  0  0  0  0  0  0
    2.4120   -0.4275   -2.3455 H   0  0  0  0  0  0  0  0  0  0  0  0
    2.8947   -2.0785   -4.1598 H   0  0  0  0  0  0  0  0  0  0  0  0
    4.5381   -1.4115   -3.9474 H   0  0  0  0  0  0  0  0  0  0  0  0
    3.2027   -3.7866   -2.5757 H   0  0  0  0  0  0  0  0  0  0  0  0
    4.9824   -4.8249   -3.1482 H   0  0  0  0  0  0  0  0  0  0  0  0
    6.7764   -3.0918   -1.3572 H   0  0  0  0  0  0  0  0  0  0  0  0
    6.3391   -1.5372   -0.5802 H   0  0  0  0  0  0  0  0  0  0  0  0
    6.2163   -1.7136   -2.3149 H   0  0  0  0  0  0  0  0  0  0  0  0
    4.1304   -5.1403   -1.1664 H   0  0  0  0  0  0  0  0  0  0  0  0
    5.4603   -2.3538    0.6221 H   0  0  0  0  0  0  0  0  0  0  0  0
    1.3716   -2.8219    1.9647 H   0  0  0  0  0  0  0  0  0  0  0  0
    1.0759   -2.4343    4.0135 H   0  0  0  0  0  0  0  0  0  0  0  0
    1.0488   -0.9879    1.3164 H   0  0  0  0  0  0  0  0  0  0  0  0
   -0.2196   -1.3498    3.3137 H   0  0  0  0  0  0  0  0  0  0  0  0
    0.8820   -0.3589    4.2372 H   0  0  0  0  0  0  0  0  0  0  0  0
   -0.2685    0.6081    1.8323 H   0  0  0  0  0  0  0  0  0  0  0  0
  1  2  1  0
  1 31  1  0
  1 32  1  0
  1 33  1  0
  2 28  1  0
  2  3  2  3
  3 14  1  0
  3  4  1  0
  4  5  2  0
  4 34  1  0
  5  6  1  0
  5  8  1  0
  6  7  2  0
  6 35  1  0
  8 24  1  0
  8  9  1  6
  8 10  1  0
  9 36  1  0
 10 11  1  0
 10 12  1  1
 10 13  1  0
 11 37  1  0
 11 38  1  0
 11 39  1  0
 12 40  1  0
 13 22  1  0
 13 14  1  0
 13 41  1  6
 14 15  1  0
 14 42  1  6
 15 20  1  0
 15 16  2  0
 16 17  1  0
 16 43  1  0
 17 18  1  0
 17 44  1  0
 17 45  1  0
 18 19  1  0
 18 20  1  0
 18 46  1  1
 19 47  1  0
 20 21  1  6
 20 22  1  0
 21 48  1  0
 21 49  1  0
 21 50  1  0
 22 23  1  1
 22 24  1  0
 23 51  1  0
 24 25  1  1
 24 26  1  0
 25 52  1  0
 26 27  1  0
 26 28  1  0
 26 53  1  6
 27 54  1  0
 28 29  1  0
 28 55  1  6
 29 30  1  0
 29 56  1  0
 29 57  1  0
 30 58  1  0
M  END
>  <i_m_ct_stereo_status>  (61) 
1

>  <s_m_source_file>  (61) 
/var/tmp/pbs.5076255.sched01/tmp0qfm3vo4/0bcu552to.sdf

>  <i_m_source_file_index>  (61) 
24

>  <i_lp_mmshare_version>  (61) 
48012

>  <i_f3d_flags>  (61) 
0

>  <s_epik_input>  (61) 
Tz1bQ0hdQzE9W0NIXS9DKD1DKFxbQ0gzXSlbQ0BASF0oW0NAQEhdMltPSF0pW0NIMl1bT0hdKVtDQEBIXShbQ0BASF0oW0NAXTMoW0NIM10pW09IXSlDNChbT0hdKVtDQF0yKFtPSF0pW0NAQF0xM1tPSF0pQz01W0NAXTQoW0NIM10pW0NASF0oW09IXSlbQ0gyXVtDSF01

>  <s_epik_cmdline>  (61) 
J2VwaWtfcHl0aG9uJywgJy1waHQnLCAnMi4wJywgJy1waCcsICc3LjAnLCAnLXRuJywgJzgnLCAnLW1hJywgJzIwMCcsICctaW1hZScsICc8aW5maWxlLm1hZT4nLCAnLW9tYWUnLCAnPG91dGZpbGUubWFlPic=

>  <r_lp_tautomer_probability>  (61) 
1

>  <r_epik_Ionization_Penalty>  (61) 
3.2273e-05

>  <r_epik_Ionization_Penalty_Charging>  (61) 
0

>  <r_epik_Ionization_Penalty_Neutral>  (61) 
3.2273e-05

>  <r_epik_State_Penalty>  (61) 
-0

>  <r_epik_Charging_Adjusted_Penalty>  (61) 
0

>  <i_epik_Tot_Q>  (61) 
0

>  <i_epik_Tot_abs_Q>  (61) 
0

>  <s_lp_Force_Field>  (61) 
OPLS3e

>  <r_lp_Energy>  (61) 
775.598

>  <b_lp_Chiralities_Consistent>  (61) 
1

>  <s_lp_Variant>  (61) 
16:0-1

>  <s_i_glide_gridfile>  (61) 
pfpi4k_grid

>  <i_i_glide_lignum>  (61) 
24

>  <i_i_glide_rotatable_bonds>  (61) 
9

>  <r_i_docking_score>  (61) 
-3.49573

>  <r_i_glide_ligand_efficiency>  (61) 
-0.116524

>  <r_i_glide_ligand_efficiency_sa>  (61) 
-0.362069

>  <r_i_glide_ligand_efficiency_ln>  (61) 
-0.794269

>  <r_i_glide_gscore>  (61) 
-3.49573

>  <r_i_glide_lipo>  (61) 
-0.322884

>  <r_i_glide_hbond>  (61) 
0

>  <r_i_glide_metal>  (61) 
-0

>  <r_i_glide_rewards>  (61) 
-0.590862

>  <r_i_glide_evdw>  (61) 
-24.3195

>  <r_i_glide_ecoul>  (61) 
-9.85318

>  <r_i_glide_erotb>  (61) 
0.111961

>  <r_i_glide_esite>  (61) 
0

>  <r_i_glide_emodel>  (61) 
-38.7484

>  <r_i_glide_energy>  (61) 
-34.1726

>  <r_i_glide_einternal>  (61) 
2.45959

>  <r_i_glide_intrahb_reward>  (61) 
-0

>  <i_i_glide_confnum>  (61) 
5

>  <i_i_glide_posenum>  (61) 
29

>  <r_i_glide_eff_state_penalty>  (61) 
0

>  <ligand_id>  (61) 
16

>  <original_smiles>  (61) 
CC1=C2C=C(C=O)C3(O)C(C)(O)C4C2C2=CCC(O)C2(C)C4(O)C3(O)C(O)C1CO

>  <smiles>  (61) 
[H]OC([H])([H])C1([H])C(C([H])([H])[H])=C2C([H])=C(C([H])=O)C3(O[H])C(O[H])(C([H])([H])[H])C4([H])C2([H])C2=C([H])C([H])([H])C([H])(O[H])C2(C([H])([H])[H])C4(O[H])C3(O[H])C1([H])O[H]

$$$$
16:0:2
     RDKit          3D

 58 62  0  0  1  0  0  0  0  0999 V2000
    3.1511    0.9646    3.0993 C   0  0  0  0  0  0  0  0  0  0  0  0
    2.9765   -0.1478    2.0679 C   0  0  0  0  0  0  0  0  0  0  0  0
    3.9470   -0.9094    1.5985 C   0  0  0  0  0  0  0  0  0  0  0  0
    4.6717   -1.4809    2.8823 C   0  0  0  0  0  0  0  0  0  0  0  0
    4.6562   -2.8258    3.4188 C   0  0  0  0  0  0  0  0  0  0  0  0
    5.1735   -2.9752    4.8018 C   0  0  0  0  0  0  0  0  0  0  0  0
    5.2037   -4.0345    5.4299 O   0  0  0  0  0  0  0  0  0  0  0  0
    4.1616   -4.2851    2.7004 C   0  0  1  0  0  0  0  0  0  0  0  0
    5.2087   -5.2498    2.7597 O   0  0  0  0  0  0  0  0  0  0  0  0
    3.0457   -4.7650    1.5405 C   0  0  1  0  0  0  0  0  0  0  0  0
    3.2136   -6.3212    1.2192 C   0  0  0  0  0  0  0  0  0  0  0  0
    1.7417   -5.1712    2.0118 O   0  0  0  0  0  0  0  0  0  0  0  0
    2.9614   -3.5311    0.2440 C   0  0  1  0  0  0  0  0  0  0  0  0
    3.3877   -1.7374    0.2297 C   0  0  1  0  0  0  0  0  0  0  0  0
    3.9202   -1.6510   -1.1393 C   0  0  0  0  0  0  0  0  0  0  0  0
    3.4224   -1.0976   -2.2595 C   0  0  0  0  0  0  0  0  0  0  0  0
    3.8488   -1.8987   -3.4512 C   0  0  0  0  0  0  0  0  0  0  0  0
    4.1702   -3.2502   -2.7743 C   0  0  1  0  0  0  0  0  0  0  0  0
    5.0145   -4.0303   -3.5704 O   0  0  0  0  0  0  0  0  0  0  0  0
    4.6866   -2.8867   -1.3399 C   0  0  1  0  0  0  0  0  0  0  0  0
    6.1990   -2.5173   -1.4115 C   0  0  0  0  0  0  0  0  0  0  0  0
    4.2694   -3.8431   -0.0993 C   0  0  2  0  0  0  0  0  0  0  0  0
    4.6364   -5.0930   -0.6464 O   0  0  0  0  0  0  0  0  0  0  0  0
    3.9976   -3.5311    1.5546 C   0  0  2  0  0  0  0  0  0  0  0  0
    5.4699   -3.3072    1.2501 O   0  0  0  0  0  0  0  0  0  0  0  0
    2.3569   -2.6337    2.4036 C   0  0  1  0  0  0  0  0  0  0  0  0
    2.0078   -3.0209    3.7502 O   0  0  0  0  0  0  0  0  0  0  0  0
    1.8123   -1.1003    2.2390 C   0  0  1  0  0  0  0  0  0  0  0  0
    0.7241   -0.6564    3.2670 C   0  0  0  0  0  0  0  0  0  0  0  0
    0.1179    0.5718    2.8952 O   0  0  0  0  0  0  0  0  0  0  0  0
    2.5710    1.8301    2.7831 H   0  0  0  0  0  0  0  0  0  0  0  0
    4.1872    1.2901    3.1519 H   0  0  0  0  0  0  0  0  0  0  0  0
    2.8641    0.7054    4.1139 H   0  0  0  0  0  0  0  0  0  0  0  0
    5.1059   -0.7282    3.5276 H   0  0  0  0  0  0  0  0  0  0  0  0
    5.5363   -2.0549    5.2556 H   0  0  0  0  0  0  0  0  0  0  0  0
    5.4836   -5.3769    1.8612 H   0  0  0  0  0  0  0  0  0  0  0  0
    4.2298   -6.6466    1.0119 H   0  0  0  0  0  0  0  0  0  0  0  0
    2.6153   -6.5889    0.3531 H   0  0  0  0  0  0  0  0  0  0  0  0
    2.9548   -7.0002    2.0418 H   0  0  0  0  0  0  0  0  0  0  0  0
    1.8807   -5.8252    2.6830 H   0  0  0  0  0  0  0  0  0  0  0  0
    2.2365   -3.8009   -0.5433 H   0  0  0  0  0  0  0  0  0  0  0  0
    4.4469   -1.4921    0.3257 H   0  0  0  0  0  0  0  0  0  0  0  0
    2.6394   -0.3623   -2.2923 H   0  0  0  0  0  0  0  0  0  0  0  0
    3.0449   -1.9893   -4.1736 H   0  0  0  0  0  0  0  0  0  0  0  0
    4.7217   -1.4490   -3.9333 H   0  0  0  0  0  0  0  0  0  0  0  0
    3.2261   -3.7895   -2.6754 H   0  0  0  0  0  0  0  0  0  0  0  0
    5.0128   -4.9033   -3.2115 H   0  0  0  0  0  0  0  0  0  0  0  0
    6.8294   -3.4050   -1.4356 H   0  0  0  0  0  0  0  0  0  0  0  0
    6.4991   -1.8872   -0.5742 H   0  0  0  0  0  0  0  0  0  0  0  0
    6.3974   -1.9312   -2.3088 H   0  0  0  0  0  0  0  0  0  0  0  0
    4.0033   -5.3139   -1.3155 H   0  0  0  0  0  0  0  0  0  0  0  0
    5.8763   -2.9936    2.0465 H   0  0  0  0  0  0  0  0  0  0  0  0
    1.4235   -2.9664    1.9593 H   0  0  0  0  0  0  0  0  0  0  0  0
    1.1560   -2.6882    3.9623 H   0  0  0  0  0  0  0  0  0  0  0  0
    1.2758   -1.0509    1.2957 H   0  0  0  0  0  0  0  0  0  0  0  0
   -0.0711   -1.4138    3.3069 H   0  0  0  0  0  0  0  0  0  0  0  0
    1.1128   -0.5750    4.2868 H   0  0  0  0  0  0  0  0  0  0  0  0
   -0.0211    0.5685    1.9592 H   0  0  0  0  0  0  0  0  0  0  0  0
  1  2  1  0
  1 31  1  0
  1 32  1  0
  1 33  1  0
  2 28  1  0
  2  3  2  3
  3 14  1  0
  3  4  1  0
  4  5  2  0
  4 34  1  0
  5  6  1  0
  5  8  1  0
  6  7  2  0
  6 35  1  0
  8 24  1  0
  8  9  1  6
  8 10  1  0
  9 36  1  0
 10 11  1  0
 10 12  1  1
 10 13  1  0
 11 37  1  0
 11 38  1  0
 11 39  1  0
 12 40  1  0
 13 22  1  0
 13 14  1  0
 13 41  1  6
 14 15  1  0
 14 42  1  6
 15 20  1  0
 15 16  2  0
 16 17  1  0
 16 43  1  0
 17 18  1  0
 17 44  1  0
 17 45  1  0
 18 19  1  0
 18 20  1  0
 18 46  1  1
 19 47  1  0
 20 21  1  6
 20 22  1  0
 21 48  1  0
 21 49  1  0
 21 50  1  0
 22 23  1  1
 22 24  1  0
 23 51  1  0
 24 25  1  1
 24 26  1  0
 25 52  1  0
 26 27  1  0
 26 28  1  0
 26 53  1  6
 27 54  1  0
 28 29  1  0
 28 55  1  6
 29 30  1  0
 29 56  1  0
 29 57  1  0
 30 58  1  0
M  END
>  <i_m_ct_stereo_status>  (62) 
1

>  <s_m_source_file>  (62) 
/var/tmp/pbs.5076255.sched01/tmp0qfm3vo4/0bcu552to.sdf

>  <i_m_source_file_index>  (62) 
24

>  <i_lp_mmshare_version>  (62) 
48012

>  <i_f3d_flags>  (62) 
0

>  <s_epik_input>  (62) 
Tz1bQ0hdQzE9W0NIXS9DKD1DKFxbQ0gzXSlbQ0BASF0oW0NAQEhdMltPSF0pW0NIMl1bT0hdKVtDQEBIXShbQ0BASF0oW0NAXTMoW0NIM10pW09IXSlDNChbT0hdKVtDQF0yKFtPSF0pW0NAQF0xM1tPSF0pQz01W0NAXTQoW0NIM10pW0NASF0oW09IXSlbQ0gyXVtDSF01

>  <s_epik_cmdline>  (62) 
J2VwaWtfcHl0aG9uJywgJy1waHQnLCAnMi4wJywgJy1waCcsICc3LjAnLCAnLXRuJywgJzgnLCAnLW1hJywgJzIwMCcsICctaW1hZScsICc8aW5maWxlLm1hZT4nLCAnLW9tYWUnLCAnPG91dGZpbGUubWFlPic=

>  <r_lp_tautomer_probability>  (62) 
1

>  <r_epik_Ionization_Penalty>  (62) 
3.2273e-05

>  <r_epik_Ionization_Penalty_Charging>  (62) 
0

>  <r_epik_Ionization_Penalty_Neutral>  (62) 
3.2273e-05

>  <r_epik_State_Penalty>  (62) 
-0

>  <r_epik_Charging_Adjusted_Penalty>  (62) 
0

>  <i_epik_Tot_Q>  (62) 
0

>  <i_epik_Tot_abs_Q>  (62) 
0

>  <s_lp_Force_Field>  (62) 
OPLS3e

>  <r_lp_Energy>  (62) 
775.598

>  <b_lp_Chiralities_Consistent>  (62) 
1

>  <s_lp_Variant>  (62) 
16:0-1

>  <s_i_glide_gridfile>  (62) 
pfpi4k_grid

>  <i_i_glide_lignum>  (62) 
24

>  <i_i_glide_rotatable_bonds>  (62) 
9

>  <r_i_docking_score>  (62) 
-3.45537

>  <r_i_glide_ligand_efficiency>  (62) 
-0.115179

>  <r_i_glide_ligand_efficiency_sa>  (62) 
-0.357888

>  <r_i_glide_ligand_efficiency_ln>  (62) 
-0.785099

>  <r_i_glide_gscore>  (62) 
-3.45537

>  <r_i_glide_lipo>  (62) 
-0.334293

>  <r_i_glide_hbond>  (62) 
0

>  <r_i_glide_metal>  (62) 
-0

>  <r_i_glide_rewards>  (62) 
-0.584721

>  <r_i_glide_evdw>  (62) 
-23.5491

>  <r_i_glide_ecoul>  (62) 
-9.80577

>  <r_i_glide_erotb>  (62) 
0.111961

>  <r_i_glide_esite>  (62) 
0

>  <r_i_glide_emodel>  (62) 
-38.445

>  <r_i_glide_energy>  (62) 
-33.3549

>  <r_i_glide_einternal>  (62) 
1.96387

>  <r_i_glide_intrahb_reward>  (62) 
-0

>  <i_i_glide_confnum>  (62) 
2

>  <i_i_glide_posenum>  (62) 
38

>  <r_i_glide_eff_state_penalty>  (62) 
0

>  <ligand_id>  (62) 
16

>  <original_smiles>  (62) 
CC1=C2C=C(C=O)C3(O)C(C)(O)C4C2C2=CCC(O)C2(C)C4(O)C3(O)C(O)C1CO

>  <smiles>  (62) 
[H]OC([H])([H])C1([H])C(C([H])([H])[H])=C2C([H])=C(C([H])=O)C3(O[H])C(O[H])(C([H])([H])[H])C4([H])C2([H])C2=C([H])C([H])([H])C([H])(O[H])C2(C([H])([H])[H])C4(O[H])C3(O[H])C1([H])O[H]

$$$$
16:1:0
     RDKit          3D

 58 62  0  0  1  0  0  0  0  0999 V2000
    2.8601    0.8285    1.4176 C   0  0  0  0  0  0  0  0  0  0  0  0
    3.4291   -0.2955    2.2556 C   0  0  0  0  0  0  0  0  0  0  0  0
    4.3191   -1.1325    1.7886 C   0  0  0  0  0  0  0  0  0  0  0  0
    5.0061   -1.7982    3.0692 C   0  0  0  0  0  0  0  0  0  0  0  0
    4.8598   -3.1371    3.5961 C   0  0  0  0  0  0  0  0  0  0  0  0
    5.3977   -3.4256    4.9503 C   0  0  0  0  0  0  0  0  0  0  0  0
    5.6768   -2.5693    5.7889 O   0  0  0  0  0  0  0  0  0  0  0  0
    4.1951   -4.5273    2.8419 C   0  0  1  0  0  0  0  0  0  0  0  0
    5.1305   -5.5922    2.8912 O   0  0  0  0  0  0  0  0  0  0  0  0
    3.0133   -4.8500    1.6688 C   0  0  1  0  0  0  0  0  0  0  0  0
    3.0167   -6.4001    1.3085 C   0  0  0  0  0  0  0  0  0  0  0  0
    1.6527   -5.0796    2.0807 O   0  0  0  0  0  0  0  0  0  0  0  0
    3.0485   -3.5866    0.4203 C   0  0  1  0  0  0  0  0  0  0  0  0
    3.6069   -1.8490    0.4479 C   0  0  1  0  0  0  0  0  0  0  0  0
    4.1502   -1.7714   -0.9264 C   0  0  0  0  0  0  0  0  0  0  0  0
    3.7003   -1.1720   -2.0361 C   0  0  0  0  0  0  0  0  0  0  0  0
    4.0229   -1.9936   -3.2410 C   0  0  0  0  0  0  0  0  0  0  0  0
    4.2351   -3.3627   -2.5810 C   0  0  1  0  0  0  0  0  0  0  0  0
    5.0121   -4.2049   -3.4228 O   0  0  0  0  0  0  0  0  0  0  0  0
    4.8187   -3.0685   -1.1587 C   0  0  1  0  0  0  0  0  0  0  0  0
    6.3404   -2.8227   -1.2474 C   0  0  0  0  0  0  0  0  0  0  0  0
    4.3287   -3.9990    0.0784 C   0  0  2  0  0  0  0  0  0  0  0  0
    4.6550   -5.2636   -0.4403 O   0  0  0  0  0  0  0  0  0  0  0  0
    4.1330   -3.7132    1.7406 C   0  0  2  0  0  0  0  0  0  0  0  0
    5.6140   -3.6767    1.4040 O   0  0  0  0  0  0  0  0  0  0  0  0
    2.6172   -2.7084    2.6812 C   0  0  1  0  0  0  0  0  0  0  0  0
    2.0517   -3.2983    3.8762 O   0  0  0  0  0  0  0  0  0  0  0  0
    2.4300   -1.1247    3.0175 C   0  0  1  0  0  0  0  0  0  0  0  0
    2.3702   -0.6606    4.5048 C   0  0  0  0  0  0  0  0  0  0  0  0
    2.0922    0.7232    4.6109 O   0  0  0  0  0  0  0  0  0  0  0  0
    2.9312    1.7607    1.9806 H   0  0  0  0  0  0  0  0  0  0  0  0
    1.8252    0.6655    1.1085 H   0  0  0  0  0  0  0  0  0  0  0  0
    3.5043    0.9246    0.5429 H   0  0  0  0  0  0  0  0  0  0  0  0
    5.5128   -1.0856    3.7116 H   0  0  0  0  0  0  0  0  0  0  0  0
    5.4892   -4.4854    5.2024 H   0  0  0  0  0  0  0  0  0  0  0  0
    4.7404   -6.2960    3.3891 H   0  0  0  0  0  0  0  0  0  0  0  0
    3.9936   -6.8384    1.0942 H   0  0  0  0  0  0  0  0  0  0  0  0
    2.3915   -6.5964    0.4385 H   0  0  0  0  0  0  0  0  0  0  0  0
    2.6540   -7.0503    2.1128 H   0  0  0  0  0  0  0  0  0  0  0  0
    1.4586   -4.4050    2.7372 H   0  0  0  0  0  0  0  0  0  0  0  0
    2.3039   -3.7759   -0.3585 H   0  0  0  0  0  0  0  0  0  0  0  0
    4.6828   -1.7190    0.5192 H   0  0  0  0  0  0  0  0  0  0  0  0
    2.9423   -0.4203   -2.0943 H   0  0  0  0  0  0  0  0  0  0  0  0
    3.2100   -1.9991   -3.9730 H   0  0  0  0  0  0  0  0  0  0  0  0
    4.9250   -1.5960   -3.7024 H   0  0  0  0  0  0  0  0  0  0  0  0
    3.2595   -3.8313   -2.4966 H   0  0  0  0  0  0  0  0  0  0  0  0
    4.8808   -5.0872   -3.1385 H   0  0  0  0  0  0  0  0  0  0  0  0
    6.8871   -3.7643   -1.2889 H   0  0  0  0  0  0  0  0  0  0  0  0
    6.6973   -2.2464   -0.3915 H   0  0  0  0  0  0  0  0  0  0  0  0
    6.5828   -2.2427   -2.1408 H   0  0  0  0  0  0  0  0  0  0  0  0
    4.0543   -5.4416   -1.1612 H   0  0  0  0  0  0  0  0  0  0  0  0
    5.8134   -4.5448    1.0849 H   0  0  0  0  0  0  0  0  0  0  0  0
    1.7054   -2.7501    2.0778 H   0  0  0  0  0  0  0  0  0  0  0  0
    2.6852   -3.2280    4.5780 H   0  0  0  0  0  0  0  0  0  0  0  0
    1.4485   -0.8781    2.6200 H   0  0  0  0  0  0  0  0  0  0  0  0
    1.5565   -1.1593    5.0349 H   0  0  0  0  0  0  0  0  0  0  0  0
    3.3000   -0.8758    5.0413 H   0  0  0  0  0  0  0  0  0  0  0  0
    1.3457    0.9298    4.0570 H   0  0  0  0  0  0  0  0  0  0  0  0
  1  2  1  0
  1 31  1  0
  1 32  1  0
  1 33  1  0
  2 28  1  0
  2  3  2  3
  3 14  1  0
  3  4  1  0
  4  5  2  0
  4 34  1  0
  5  6  1  0
  5  8  1  0
  6  7  2  0
  6 35  1  0
  8 24  1  0
  8  9  1  6
  8 10  1  0
  9 36  1  0
 10 11  1  0
 10 12  1  1
 10 13  1  0
 11 37  1  0
 11 38  1  0
 11 39  1  0
 12 40  1  0
 13 22  1  0
 13 14  1  0
 13 41  1  6
 14 15  1  0
 14 42  1  6
 15 20  1  0
 15 16  2  0
 16 17  1  0
 16 43  1  0
 17 18  1  0
 17 44  1  0
 17 45  1  0
 18 19  1  0
 18 20  1  0
 18 46  1  1
 19 47  1  0
 20 21  1  6
 20 22  1  0
 21 48  1  0
 21 49  1  0
 21 50  1  0
 22 23  1  1
 22 24  1  0
 23 51  1  0
 24 25  1  1
 24 26  1  0
 25 52  1  0
 26 27  1  0
 26 28  1  0
 26 53  1  6
 27 54  1  0
 28 29  1  0
 28 55  1  6
 29 30  1  0
 29 56  1  0
 29 57  1  0
 30 58  1  0
M  END
>  <i_m_ct_stereo_status>  (63) 
1

>  <s_m_source_file>  (63) 
/var/tmp/pbs.5076255.sched01/tmp0qfm3vo4/0bcu552to.sdf

>  <i_m_source_file_index>  (63) 
25

>  <i_lp_mmshare_version>  (63) 
48012

>  <i_f3d_flags>  (63) 
0

>  <s_epik_input>  (63) 
Tz1bQ0hdQzE9W0NIXS9DKD1DKFxbQ0gzXSlbQ0BASF0oW0NAQEhdMltPSF0pW0NIMl1bT0hdKVtDQEBIXShbQ0BASF0oW0NAXTMoW0NIM10pW09IXSlDNChbT0hdKVtDQF0yKFtPSF0pW0NAQF0xM1tPSF0pQz01W0NAXTQoW0NIM10pW0NASF0oW09IXSlbQ0gyXVtDSF01

>  <s_epik_cmdline>  (63) 
J2VwaWtfcHl0aG9uJywgJy1waHQnLCAnMi4wJywgJy1waCcsICc3LjAnLCAnLXRuJywgJzgnLCAnLW1hJywgJzIwMCcsICctaW1hZScsICc8aW5maWxlLm1hZT4nLCAnLW9tYWUnLCAnPG91dGZpbGUubWFlPic=

>  <r_lp_tautomer_probability>  (63) 
1

>  <r_epik_Ionization_Penalty>  (63) 
3.2273e-05

>  <r_epik_Ionization_Penalty_Charging>  (63) 
0

>  <r_epik_Ionization_Penalty_Neutral>  (63) 
3.2273e-05

>  <r_epik_State_Penalty>  (63) 
-0

>  <r_epik_Charging_Adjusted_Penalty>  (63) 
0

>  <i_epik_Tot_Q>  (63) 
0

>  <i_epik_Tot_abs_Q>  (63) 
0

>  <s_lp_Force_Field>  (63) 
OPLS3e

>  <r_lp_Energy>  (63) 
777.383

>  <b_lp_Chiralities_Consistent>  (63) 
1

>  <s_lp_Variant>  (63) 
16:0-2

>  <s_i_glide_gridfile>  (63) 
pfpi4k_grid

>  <i_i_glide_lignum>  (63) 
25

>  <i_i_glide_rotatable_bonds>  (63) 
9

>  <r_i_docking_score>  (63) 
-3.28706

>  <r_i_glide_ligand_efficiency>  (63) 
-0.109569

>  <r_i_glide_ligand_efficiency_sa>  (63) 
-0.340455

>  <r_i_glide_ligand_efficiency_ln>  (63) 
-0.746855

>  <r_i_glide_gscore>  (63) 
-3.28706

>  <r_i_glide_lipo>  (63) 
-0.443315

>  <r_i_glide_hbond>  (63) 
0

>  <r_i_glide_metal>  (63) 
-0

>  <r_i_glide_rewards>  (63) 
-0.565502

>  <r_i_glide_evdw>  (63) 
-20.6192

>  <r_i_glide_ecoul>  (63) 
-9.06161

>  <r_i_glide_erotb>  (63) 
0.111961

>  <r_i_glide_esite>  (63) 
0

>  <r_i_glide_emodel>  (63) 
-31.1415

>  <r_i_glide_energy>  (63) 
-29.6808

>  <r_i_glide_einternal>  (63) 
5.91329

>  <r_i_glide_intrahb_reward>  (63) 
-0

>  <i_i_glide_confnum>  (63) 
4

>  <i_i_glide_posenum>  (63) 
1

>  <r_i_glide_eff_state_penalty>  (63) 
0

>  <ligand_id>  (63) 
16

>  <original_smiles>  (63) 
CC1=C2C=C(C=O)C3(O)C(C)(O)C4C2C2=CCC(O)C2(C)C4(O)C3(O)C(O)C1CO

>  <smiles>  (63) 
[H]OC([H])([H])C1([H])C(C([H])([H])[H])=C2C([H])=C(C([H])=O)C3(O[H])C(O[H])(C([H])([H])[H])C4([H])C2([H])C2=C([H])C([H])([H])C([H])(O[H])C2(C([H])([H])[H])C4(O[H])C3(O[H])C1([H])O[H]

$$$$
16:1:1
     RDKit          3D

 58 62  0  0  1  0  0  0  0  0999 V2000
    1.9710   -5.5904    0.1678 C   0  0  0  0  0  0  0  0  0  0  0  0
    3.1261   -4.5943    0.2123 C   0  0  0  0  0  0  0  0  0  0  0  0
    3.8760   -4.4490    1.3012 C   0  0  0  0  0  0  0  0  0  0  0  0
    5.2030   -3.7582    0.7980 C   0  0  0  0  0  0  0  0  0  0  0  0
    5.6544   -2.3955    1.0203 C   0  0  0  0  0  0  0  0  0  0  0  0
    6.8267   -1.9993    0.2053 C   0  0  0  0  0  0  0  0  0  0  0  0
    7.5664   -1.0680    0.4771 O   0  0  0  0  0  0  0  0  0  0  0  0
    5.0643   -1.1991    2.1058 C   0  0  1  0  0  0  0  0  0  0  0  0
    6.1139   -0.6453    2.8981 O   0  0  0  0  0  0  0  0  0  0  0  0
    3.5830   -0.8527    2.8837 C   0  0  1  0  0  0  0  0  0  0  0  0
    3.8294    0.3201    3.9290 C   0  0  0  0  0  0  0  0  0  0  0  0
    2.5848    0.0259    2.3160 O   0  0  0  0  0  0  0  0  0  0  0  0
    2.7402   -2.3549    3.2609 C   0  0  1  0  0  0  0  0  0  0  0  0
    2.8084   -4.0233    2.5147 C   0  0  1  0  0  0  0  0  0  0  0  0
    2.6002   -4.7762    3.7539 C   0  0  0  0  0  0  0  0  0  0  0  0
    1.5496   -5.4780    4.1932 C   0  0  0  0  0  0  0  0  0  0  0  0
    1.4475   -5.3511    5.6850 C   0  0  0  0  0  0  0  0  0  0  0  0
    2.2961   -4.0829    5.9404 C   0  0  1  0  0  0  0  0  0  0  0  0
    2.7536   -4.0178    7.2737 O   0  0  0  0  0  0  0  0  0  0  0  0
    3.3730   -4.0869    4.8064 C   0  0  1  0  0  0  0  0  0  0  0  0
    4.5729   -4.9832    5.2298 C   0  0  0  0  0  0  0  0  0  0  0  0
    3.7618   -2.6709    4.1370 C   0  0  2  0  0  0  0  0  0  0  0  0
    4.0014   -1.9265    5.3113 O   0  0  0  0  0  0  0  0  0  0  0  0
    4.3154   -2.2367    2.5895 C   0  0  2  0  0  0  0  0  0  0  0  0
    5.4057   -3.0379    3.2767 O   0  0  0  0  0  0  0  0  0  0  0  0
    3.2278   -2.0783    0.8539 C   0  0  1  0  0  0  0  0  0  0  0  0
    3.4818   -0.9066    0.0574 O   0  0  0  0  0  0  0  0  0  0  0  0
    2.8525   -3.1927   -0.2808 C   0  0  1  0  0  0  0  0  0  0  0  0
    3.3889   -3.0189   -1.7391 C   0  0  0  0  0  0  0  0  0  0  0  0
    2.8330   -1.9121   -2.4368 O   0  0  0  0  0  0  0  0  0  0  0  0
    2.0325   -6.2321   -0.7128 H   0  0  0  0  0  0  0  0  0  0  0  0
    1.0053   -5.1153    0.1205 H   0  0  0  0  0  0  0  0  0  0  0  0
    2.0230   -6.2726    1.0441 H   0  0  0  0  0  0  0  0  0  0  0  0
    5.7655   -4.3421    0.0819 H   0  0  0  0  0  0  0  0  0  0  0  0
    6.9807   -2.6259   -0.6892 H   0  0  0  0  0  0  0  0  0  0  0  0
    6.7604   -0.2525    2.3172 H   0  0  0  0  0  0  0  0  0  0  0  0
    4.6903    0.2038    4.5910 H   0  0  0  0  0  0  0  0  0  0  0  0
    2.9485    0.4478    4.5551 H   0  0  0  0  0  0  0  0  0  0  0  0
    4.0417    1.2800    3.4414 H   0  0  0  0  0  0  0  0  0  0  0  0
    2.5449   -0.1559    1.3806 H   0  0  0  0  0  0  0  0  0  0  0  0
    1.7842   -2.1308    3.7567 H   0  0  0  0  0  0  0  0  0  0  0  0
    3.7271   -4.5734    2.7213 H   0  0  0  0  0  0  0  0  0  0  0  0
    0.7454   -5.7913    3.5690 H   0  0  0  0  0  0  0  0  0  0  0  0
    0.4161   -5.2447    6.0263 H   0  0  0  0  0  0  0  0  0  0  0  0
    1.8788   -6.2391    6.1343 H   0  0  0  0  0  0  0  0  0  0  0  0
    1.6397   -3.2206    5.8038 H   0  0  0  0  0  0  0  0  0  0  0  0
    3.4073   -4.6852    7.4045 H   0  0  0  0  0  0  0  0  0  0  0  0
    5.2393   -4.4476    5.9087 H   0  0  0  0  0  0  0  0  0  0  0  0
    5.1358   -5.3389    4.3645 H   0  0  0  0  0  0  0  0  0  0  0  0
    4.1952   -5.8808    5.7238 H   0  0  0  0  0  0  0  0  0  0  0  0
    4.0955   -1.0323    5.0339 H   0  0  0  0  0  0  0  0  0  0  0  0
    5.0535   -3.8809    3.5073 H   0  0  0  0  0  0  0  0  0  0  0  0
    2.1701   -1.8920    1.0823 H   0  0  0  0  0  0  0  0  0  0  0  0
    2.7715   -0.8210   -0.5621 H   0  0  0  0  0  0  0  0  0  0  0  0
    1.7766   -3.1281   -0.4038 H   0  0  0  0  0  0  0  0  0  0  0  0
    4.4851   -3.0028   -1.8039 H   0  0  0  0  0  0  0  0  0  0  0  0
    3.0457   -3.8663   -2.3193 H   0  0  0  0  0  0  0  0  0  0  0  0
    1.9694   -1.7165   -2.0764 H   0  0  0  0  0  0  0  0  0  0  0  0
  1  2  1  0
  1 31  1  0
  1 32  1  0
  1 33  1  0
  2 28  1  0
  2  3  2  3
  3 14  1  0
  3  4  1  0
  4  5  2  0
  4 34  1  0
  5  6  1  0
  5  8  1  0
  6  7  2  0
  6 35  1  0
  8 24  1  0
  8  9  1  1
  8 10  1  0
  9 36  1  0
 10 11  1  0
 10 12  1  6
 10 13  1  0
 11 37  1  0
 11 38  1  0
 11 39  1  0
 12 40  1  0
 13 22  1  0
 13 14  1  0
 13 41  1  1
 14 15  1  0
 14 42  1  6
 15 20  1  0
 15 16  2  0
 16 17  1  0
 16 43  1  0
 17 18  1  0
 17 44  1  0
 17 45  1  0
 18 19  1  0
 18 20  1  0
 18 46  1  6
 19 47  1  0
 20 21  1  1
 20 22  1  0
 21 48  1  0
 21 49  1  0
 21 50  1  0
 22 23  1  1
 22 24  1  0
 23 51  1  0
 24 25  1  6
 24 26  1  0
 25 52  1  0
 26 27  1  0
 26 28  1  0
 26 53  1  1
 27 54  1  0
 28 29  1  0
 28 55  1  6
 29 30  1  0
 29 56  1  0
 29 57  1  0
 30 58  1  0
M  END
>  <i_m_ct_stereo_status>  (64) 
1

>  <s_m_source_file>  (64) 
/var/tmp/pbs.5076255.sched01/tmp0qfm3vo4/0bcu552to.sdf

>  <i_m_source_file_index>  (64) 
25

>  <i_lp_mmshare_version>  (64) 
48012

>  <i_f3d_flags>  (64) 
0

>  <s_epik_input>  (64) 
Tz1bQ0hdQzE9W0NIXS9DKD1DKFxbQ0gzXSlbQ0BASF0oW0NAQEhdMltPSF0pW0NIMl1bT0hdKVtDQEBIXShbQ0BASF0oW0NAXTMoW0NIM10pW09IXSlDNChbT0hdKVtDQF0yKFtPSF0pW0NAQF0xM1tPSF0pQz01W0NAXTQoW0NIM10pW0NASF0oW09IXSlbQ0gyXVtDSF01

>  <s_epik_cmdline>  (64) 
J2VwaWtfcHl0aG9uJywgJy1waHQnLCAnMi4wJywgJy1waCcsICc3LjAnLCAnLXRuJywgJzgnLCAnLW1hJywgJzIwMCcsICctaW1hZScsICc8aW5maWxlLm1hZT4nLCAnLW9tYWUnLCAnPG91dGZpbGUubWFlPic=

>  <r_lp_tautomer_probability>  (64) 
1

>  <r_epik_Ionization_Penalty>  (64) 
3.2273e-05

>  <r_epik_Ionization_Penalty_Charging>  (64) 
0

>  <r_epik_Ionization_Penalty_Neutral>  (64) 
3.2273e-05

>  <r_epik_State_Penalty>  (64) 
-0

>  <r_epik_Charging_Adjusted_Penalty>  (64) 
0

>  <i_epik_Tot_Q>  (64) 
0

>  <i_epik_Tot_abs_Q>  (64) 
0

>  <s_lp_Force_Field>  (64) 
OPLS3e

>  <r_lp_Energy>  (64) 
777.383

>  <b_lp_Chiralities_Consistent>  (64) 
1

>  <s_lp_Variant>  (64) 
16:0-2

>  <s_i_glide_gridfile>  (64) 
pfpi4k_grid

>  <i_i_glide_lignum>  (64) 
25

>  <i_i_glide_rotatable_bonds>  (64) 
9

>  <r_i_docking_score>  (64) 
-3.08179

>  <r_i_glide_ligand_efficiency>  (64) 
-0.102726

>  <r_i_glide_ligand_efficiency_sa>  (64) 
-0.319194

>  <r_i_glide_ligand_efficiency_ln>  (64) 
-0.700216

>  <r_i_glide_gscore>  (64) 
-3.08179

>  <r_i_glide_lipo>  (64) 
-0.248995

>  <r_i_glide_hbond>  (64) 
-0.0291606

>  <r_i_glide_metal>  (64) 
-0

>  <r_i_glide_rewards>  (64) 
-1.04237

>  <r_i_glide_evdw>  (64) 
-16.2014

>  <r_i_glide_ecoul>  (64) 
-7.07074

>  <r_i_glide_erotb>  (64) 
0.111961

>  <r_i_glide_esite>  (64) 
-0.00254362

>  <r_i_glide_emodel>  (64) 
-29.9511

>  <r_i_glide_energy>  (64) 
-23.2722

>  <r_i_glide_einternal>  (64) 
4.12595

>  <r_i_glide_intrahb_reward>  (64) 
-0.5

>  <i_i_glide_confnum>  (64) 
4

>  <i_i_glide_posenum>  (64) 
27

>  <r_i_glide_eff_state_penalty>  (64) 
0

>  <ligand_id>  (64) 
16

>  <original_smiles>  (64) 
CC1=C2C=C(C=O)C3(O)C(C)(O)C4C2C2=CCC(O)C2(C)C4(O)C3(O)C(O)C1CO

>  <smiles>  (64) 
[H]OC([H])([H])C1([H])C(C([H])([H])[H])=C2C([H])=C(C([H])=O)C3(O[H])C(O[H])(C([H])([H])[H])C4([H])C2([H])C2=C([H])C([H])([H])C([H])(O[H])C2(C([H])([H])[H])C4(O[H])C3(O[H])C1([H])O[H]

$$$$
16:1:2
     RDKit          3D

 58 62  0  0  1  0  0  0  0  0999 V2000
    2.4392    0.7132    1.6283 C   0  0  0  0  0  0  0  0  0  0  0  0
    3.0161   -0.4077    2.4674 C   0  0  0  0  0  0  0  0  0  0  0  0
    3.9617   -1.1952    2.0183 C   0  0  0  0  0  0  0  0  0  0  0  0
    4.6371   -1.8296    3.3106 C   0  0  0  0  0  0  0  0  0  0  0  0
    4.5424   -3.1868    3.8189 C   0  0  0  0  0  0  0  0  0  0  0  0
    5.0504   -3.4600    5.1807 C   0  0  0  0  0  0  0  0  0  0  0  0
    5.4576   -2.6028    5.9692 O   0  0  0  0  0  0  0  0  0  0  0  0
    3.9718   -4.5994    3.0324 C   0  0  1  0  0  0  0  0  0  0  0  0
    4.9598   -5.6196    3.1281 O   0  0  0  0  0  0  0  0  0  0  0  0
    2.8584   -4.9709    1.8001 C   0  0  1  0  0  0  0  0  0  0  0  0
    2.9451   -6.5111    1.4283 C   0  0  0  0  0  0  0  0  0  0  0  0
    1.4858   -5.2969    2.0937 O   0  0  0  0  0  0  0  0  0  0  0  0
    2.8774   -3.6887    0.5721 C   0  0  1  0  0  0  0  0  0  0  0  0
    3.3482   -1.9275    0.6384 C   0  0  1  0  0  0  0  0  0  0  0  0
    3.9554   -1.8103   -0.7055 C   0  0  0  0  0  0  0  0  0  0  0  0
    3.5118   -1.2318   -1.8321 C   0  0  0  0  0  0  0  0  0  0  0  0
    3.9322   -2.0051   -3.0379 C   0  0  0  0  0  0  0  0  0  0  0  0
    4.1773   -3.3732   -2.3846 C   0  0  1  0  0  0  0  0  0  0  0  0
    5.0145   -4.1665   -3.1975 O   0  0  0  0  0  0  0  0  0  0  0  0
    4.6843   -3.0715   -0.9301 C   0  0  1  0  0  0  0  0  0  0  0  0
    6.1971   -2.7552   -0.9586 C   0  0  0  0  0  0  0  0  0  0  0  0
    4.1876   -4.0351    0.2777 C   0  0  2  0  0  0  0  0  0  0  0  0
    4.5933   -5.2769   -0.2466 O   0  0  0  0  0  0  0  0  0  0  0  0
    3.9244   -3.7857    1.9332 C   0  0  2  0  0  0  0  0  0  0  0  0
    5.4151   -3.6545    1.6629 O   0  0  0  0  0  0  0  0  0  0  0  0
    2.3195   -2.8776    2.8328 C   0  0  1  0  0  0  0  0  0  0  0  0
    1.7823   -3.5123    4.0150 O   0  0  0  0  0  0  0  0  0  0  0  0
    2.0270   -1.3041    3.1630 C   0  0  1  0  0  0  0  0  0  0  0  0
    1.8946   -0.8246    4.6444 C   0  0  0  0  0  0  0  0  0  0  0  0
    0.6382   -1.1479    5.2161 O   0  0  0  0  0  0  0  0  0  0  0  0
    2.4491    1.6561    2.1815 H   0  0  0  0  0  0  0  0  0  0  0  0
    1.4323    0.5130    1.2498 H   0  0  0  0  0  0  0  0  0  0  0  0
    3.1217    0.8432    0.7905 H   0  0  0  0  0  0  0  0  0  0  0  0
    5.0942   -1.0988    3.9720 H   0  0  0  0  0  0  0  0  0  0  0  0
    5.0228   -4.5103    5.4815 H   0  0  0  0  0  0  0  0  0  0  0  0
    5.1620   -5.9241    2.2527 H   0  0  0  0  0  0  0  0  0  0  0  0
    3.9448   -6.9050    1.2561 H   0  0  0  0  0  0  0  0  0  0  0  0
    2.3778   -6.7109    0.5164 H   0  0  0  0  0  0  0  0  0  0  0  0
    2.5876   -7.1971    2.2080 H   0  0  0  0  0  0  0  0  0  0  0  0
    1.4933   -5.9530    2.7781 H   0  0  0  0  0  0  0  0  0  0  0  0
    2.1792   -3.8979   -0.2446 H   0  0  0  0  0  0  0  0  0  0  0  0
    4.4122   -1.7441    0.7573 H   0  0  0  0  0  0  0  0  0  0  0  0
    2.6976   -0.5443   -1.9053 H   0  0  0  0  0  0  0  0  0  0  0  0
    3.1430   -2.0421   -3.7941 H   0  0  0  0  0  0  0  0  0  0  0  0
    4.8302   -1.5564   -3.4670 H   0  0  0  0  0  0  0  0  0  0  0  0
    3.1973   -3.8445   -2.3382 H   0  0  0  0  0  0  0  0  0  0  0  0
    4.8554   -5.0760   -2.9764 H   0  0  0  0  0  0  0  0  0  0  0  0
    6.7894   -3.6684   -0.9951 H   0  0  0  0  0  0  0  0  0  0  0  0
    6.4949   -2.1708   -0.0845 H   0  0  0  0  0  0  0  0  0  0  0  0
    6.4405   -2.1474   -1.8326 H   0  0  0  0  0  0  0  0  0  0  0  0
    4.0755   -5.4223   -1.0301 H   0  0  0  0  0  0  0  0  0  0  0  0
    5.7004   -4.4557    1.2508 H   0  0  0  0  0  0  0  0  0  0  0  0
    1.4241   -2.9712    2.2148 H   0  0  0  0  0  0  0  0  0  0  0  0
    2.3464   -3.3401    4.7545 H   0  0  0  0  0  0  0  0  0  0  0  0
    1.0671   -1.0740    2.7055 H   0  0  0  0  0  0  0  0  0  0  0  0
    2.6943   -1.2145    5.2830 H   0  0  0  0  0  0  0  0  0  0  0  0
    1.9734    0.2690    4.6845 H   0  0  0  0  0  0  0  0  0  0  0  0
   -0.0348   -0.7554    4.6755 H   0  0  0  0  0  0  0  0  0  0  0  0
  1  2  1  0
  1 31  1  0
  1 32  1  0
  1 33  1  0
  2 28  1  0
  2  3  2  3
  3 14  1  0
  3  4  1  0
  4  5  2  0
  4 34  1  0
  5  6  1  0
  5  8  1  0
  6  7  2  0
  6 35  1  0
  8 24  1  0
  8  9  1  6
  8 10  1  0
  9 36  1  0
 10 11  1  0
 10 12  1  1
 10 13  1  0
 11 37  1  0
 11 38  1  0
 11 39  1  0
 12 40  1  0
 13 22  1  0
 13 14  1  0
 13 41  1  6
 14 15  1  0
 14 42  1  6
 15 20  1  0
 15 16  2  0
 16 17  1  0
 16 43  1  0
 17 18  1  0
 17 44  1  0
 17 45  1  0
 18 19  1  0
 18 20  1  0
 18 46  1  1
 19 47  1  0
 20 21  1  6
 20 22  1  0
 21 48  1  0
 21 49  1  0
 21 50  1  0
 22 23  1  1
 22 24  1  0
 23 51  1  0
 24 25  1  1
 24 26  1  0
 25 52  1  0
 26 27  1  0
 26 28  1  0
 26 53  1  6
 27 54  1  0
 28 29  1  0
 28 55  1  6
 29 30  1  0
 29 56  1  0
 29 57  1  0
 30 58  1  0
M  END
>  <i_m_ct_stereo_status>  (65) 
1

>  <s_m_source_file>  (65) 
/var/tmp/pbs.5076255.sched01/tmp0qfm3vo4/0bcu552to.sdf

>  <i_m_source_file_index>  (65) 
25

>  <i_lp_mmshare_version>  (65) 
48012

>  <i_f3d_flags>  (65) 
0

>  <s_epik_input>  (65) 
Tz1bQ0hdQzE9W0NIXS9DKD1DKFxbQ0gzXSlbQ0BASF0oW0NAQEhdMltPSF0pW0NIMl1bT0hdKVtDQEBIXShbQ0BASF0oW0NAXTMoW0NIM10pW09IXSlDNChbT0hdKVtDQF0yKFtPSF0pW0NAQF0xM1tPSF0pQz01W0NAXTQoW0NIM10pW0NASF0oW09IXSlbQ0gyXVtDSF01

>  <s_epik_cmdline>  (65) 
J2VwaWtfcHl0aG9uJywgJy1waHQnLCAnMi4wJywgJy1waCcsICc3LjAnLCAnLXRuJywgJzgnLCAnLW1hJywgJzIwMCcsICctaW1hZScsICc8aW5maWxlLm1hZT4nLCAnLW9tYWUnLCAnPG91dGZpbGUubWFlPic=

>  <r_lp_tautomer_probability>  (65) 
1

>  <r_epik_Ionization_Penalty>  (65) 
3.2273e-05

>  <r_epik_Ionization_Penalty_Charging>  (65) 
0

>  <r_epik_Ionization_Penalty_Neutral>  (65) 
3.2273e-05

>  <r_epik_State_Penalty>  (65) 
-0

>  <r_epik_Charging_Adjusted_Penalty>  (65) 
0

>  <i_epik_Tot_Q>  (65) 
0

>  <i_epik_Tot_abs_Q>  (65) 
0

>  <s_lp_Force_Field>  (65) 
OPLS3e

>  <r_lp_Energy>  (65) 
777.383

>  <b_lp_Chiralities_Consistent>  (65) 
1

>  <s_lp_Variant>  (65) 
16:0-2

>  <s_i_glide_gridfile>  (65) 
pfpi4k_grid

>  <i_i_glide_lignum>  (65) 
25

>  <i_i_glide_rotatable_bonds>  (65) 
9

>  <r_i_docking_score>  (65) 
-2.91853

>  <r_i_glide_ligand_efficiency>  (65) 
-0.0972842

>  <r_i_glide_ligand_efficiency_sa>  (65) 
-0.302285

>  <r_i_glide_ligand_efficiency_ln>  (65) 
-0.663121

>  <r_i_glide_gscore>  (65) 
-2.91853

>  <r_i_glide_lipo>  (65) 
-0.221144

>  <r_i_glide_hbond>  (65) 
0

>  <r_i_glide_metal>  (65) 
-0

>  <r_i_glide_rewards>  (65) 
-0.564963

>  <r_i_glide_evdw>  (65) 
-21.241

>  <r_i_glide_ecoul>  (65) 
-7.88219

>  <r_i_glide_erotb>  (65) 
0.111961

>  <r_i_glide_esite>  (65) 
0

>  <r_i_glide_emodel>  (65) 
-30.7221

>  <r_i_glide_energy>  (65) 
-29.1232

>  <r_i_glide_einternal>  (65) 
5.10119

>  <r_i_glide_intrahb_reward>  (65) 
-0

>  <i_i_glide_confnum>  (65) 
4

>  <i_i_glide_posenum>  (65) 
20

>  <r_i_glide_eff_state_penalty>  (65) 
0

>  <ligand_id>  (65) 
16

>  <original_smiles>  (65) 
CC1=C2C=C(C=O)C3(O)C(C)(O)C4C2C2=CCC(O)C2(C)C4(O)C3(O)C(O)C1CO

>  <smiles>  (65) 
[H]OC([H])([H])C1([H])C(C([H])([H])[H])=C2C([H])=C(C([H])=O)C3(O[H])C(O[H])(C([H])([H])[H])C4([H])C2([H])C2=C([H])C([H])([H])C([H])(O[H])C2(C([H])([H])[H])C4(O[H])C3(O[H])C1([H])O[H]

$$$$
16:2:0
     RDKit          3D

 58 62  0  0  1  0  0  0  0  0999 V2000
    4.4629   -0.2524    2.9362 C   0  0  0  0  0  0  0  0  0  0  0  0
    4.5443   -1.3524    1.8836 C   0  0  0  0  0  0  0  0  0  0  0  0
    3.5354   -2.2258    1.7894 C   0  0  0  0  0  0  0  0  0  0  0  0
    3.3041   -2.8669    3.0635 C   0  0  0  0  0  0  0  0  0  0  0  0
    3.7323   -4.1190    3.3354 C   0  0  0  0  0  0  0  0  0  0  0  0
    3.5926   -4.6177    4.7303 C   0  0  0  0  0  0  0  0  0  0  0  0
    2.9199   -4.0698    5.6003 O   0  0  0  0  0  0  0  0  0  0  0  0
    4.1524   -5.1022    2.2269 C   0  0  1  0  0  0  0  0  0  0  0  0
    4.5470   -6.3554    2.8035 O   0  0  0  0  0  0  0  0  0  0  0  0
    2.8592   -5.3152    1.3776 C   0  0  1  0  0  0  0  0  0  0  0  0
    2.5836   -6.7628    0.9212 C   0  0  0  0  0  0  0  0  0  0  0  0
    1.6267   -5.0417    2.0330 O   0  0  0  0  0  0  0  0  0  0  0  0
    3.0623   -4.3323    0.2070 C   0  0  1  0  0  0  0  0  0  0  0  0
    3.0582   -2.7822    0.4247 C   0  0  2  0  0  0  0  0  0  0  0  0
    3.9068   -2.3096   -0.7771 C   0  0  0  0  0  0  0  0  0  0  0  0
    3.4780   -1.4813   -1.7397 C   0  0  0  0  0  0  0  0  0  0  0  0
    3.8299   -2.0045   -3.1023 C   0  0  0  0  0  0  0  0  0  0  0  0
    4.0567   -3.4742   -2.7368 C   0  0  1  0  0  0  0  0  0  0  0  0
    4.6784   -4.1856   -3.7885 O   0  0  0  0  0  0  0  0  0  0  0  0
    4.7459   -3.4353   -1.3348 C   0  0  1  0  0  0  0  0  0  0  0  0
    6.2365   -3.1526   -1.6795 C   0  0  0  0  0  0  0  0  0  0  0  0
    4.5018   -4.5324   -0.2383 C   0  0  2  0  0  0  0  0  0  0  0  0
    4.6307   -5.7802   -0.8387 O   0  0  0  0  0  0  0  0  0  0  0  0
    5.2643   -4.6057    1.1636 C   0  0  2  0  0  0  0  0  0  0  0  0
    6.1590   -5.7311    1.0384 O   0  0  0  0  0  0  0  0  0  0  0  0
    6.2249   -3.4115    1.6539 C   0  0  1  0  0  0  0  0  0  0  0  0
    7.5562   -3.6834    1.2791 O   0  0  0  0  0  0  0  0  0  0  0  0
    5.9707   -1.8202    1.6137 C   0  0  1  0  0  0  0  0  0  0  0  0
    6.6062   -0.9203    0.5231 C   0  0  0  0  0  0  0  0  0  0  0  0
    8.0231   -1.0549    0.4712 O   0  0  0  0  0  0  0  0  0  0  0  0
    4.6142    0.6939    2.4362 H   0  0  0  0  0  0  0  0  0  0  0  0
    5.1902   -0.3463    3.7433 H   0  0  0  0  0  0  0  0  0  0  0  0
    3.4733   -0.1531    3.3725 H   0  0  0  0  0  0  0  0  0  0  0  0
    2.9278   -2.2535    3.8652 H   0  0  0  0  0  0  0  0  0  0  0  0
    4.1263   -5.5370    4.9521 H   0  0  0  0  0  0  0  0  0  0  0  0
    3.8673   -6.9837    2.6176 H   0  0  0  0  0  0  0  0  0  0  0  0
    3.4336   -7.2931    0.4827 H   0  0  0  0  0  0  0  0  0  0  0  0
    1.7812   -6.6794    0.1786 H   0  0  0  0  0  0  0  0  0  0  0  0
    2.2192   -7.4171    1.7097 H   0  0  0  0  0  0  0  0  0  0  0  0
    1.6143   -5.5185    2.8388 H   0  0  0  0  0  0  0  0  0  0  0  0
    2.3715   -4.5769   -0.6080 H   0  0  0  0  0  0  0  0  0  0  0  0
    2.0362   -2.4504    0.3260 H   0  0  0  0  0  0  0  0  0  0  0  0
    2.6391   -0.8114   -1.6361 H   0  0  0  0  0  0  0  0  0  0  0  0
    3.0288   -1.9008   -3.8323 H   0  0  0  0  0  0  0  0  0  0  0  0
    4.7293   -1.5198   -3.4761 H   0  0  0  0  0  0  0  0  0  0  0  0
    3.0475   -3.8564   -2.6398 H   0  0  0  0  0  0  0  0  0  0  0  0
    4.7299   -5.0950   -3.5287 H   0  0  0  0  0  0  0  0  0  0  0  0
    6.6766   -3.8680   -2.3425 H   0  0  0  0  0  0  0  0  0  0  0  0
    6.8820   -3.1538   -0.8268 H   0  0  0  0  0  0  0  0  0  0  0  0
    6.3989   -2.2050   -2.1913 H   0  0  0  0  0  0  0  0  0  0  0  0
    4.0332   -5.8081   -1.5698 H   0  0  0  0  0  0  0  0  0  0  0  0
    6.4371   -5.9934    1.8952 H   0  0  0  0  0  0  0  0  0  0  0  0
    6.2319   -3.5964    2.7301 H   0  0  0  0  0  0  0  0  0  0  0  0
    7.8145   -4.4674    1.7257 H   0  0  0  0  0  0  0  0  0  0  0  0
    6.5011   -1.5004    2.5127 H   0  0  0  0  0  0  0  0  0  0  0  0
    6.1472   -0.9979   -0.4449 H   0  0  0  0  0  0  0  0  0  0  0  0
    6.3918    0.1245    0.7746 H   0  0  0  0  0  0  0  0  0  0  0  0
    8.3866   -0.5519    1.1742 H   0  0  0  0  0  0  0  0  0  0  0  0
  1  2  1  0
  1 31  1  0
  1 32  1  0
  1 33  1  0
  2 28  1  0
  2  3  2  3
  3 14  1  0
  3  4  1  0
  4  5  2  0
  4 34  1  0
  5  6  1  0
  5  8  1  0
  6  7  2  0
  6 35  1  0
  8 24  1  0
  8  9  1  1
  8 10  1  0
  9 36  1  0
 10 11  1  0
 10 12  1  1
 10 13  1  0
 11 37  1  0
 11 38  1  0
 11 39  1  0
 12 40  1  0
 13 22  1  0
 13 14  1  0
 13 41  1  6
 14 15  1  0
 14 42  1  6
 15 20  1  0
 15 16  2  0
 16 17  1  0
 16 43  1  0
 17 18  1  0
 17 44  1  0
 17 45  1  0
 18 19  1  0
 18 20  1  0
 18 46  1  1
 19 47  1  0
 20 21  1  6
 20 22  1  0
 21 48  1  0
 21 49  1  0
 21 50  1  0
 22 23  1  6
 22 24  1  0
 23 51  1  0
 24 25  1  6
 24 26  1  0
 25 52  1  0
 26 27  1  0
 26 28  1  0
 26 53  1  1
 27 54  1  0
 28 29  1  0
 28 55  1  1
 29 30  1  0
 29 56  1  0
 29 57  1  0
 30 58  1  0
M  END
>  <i_m_ct_stereo_status>  (66) 
1

>  <s_m_source_file>  (66) 
/var/tmp/pbs.5076255.sched01/tmp0qfm3vo4/0bcu552to.sdf

>  <i_m_source_file_index>  (66) 
26

>  <i_lp_mmshare_version>  (66) 
48012

>  <i_f3d_flags>  (66) 
0

>  <s_epik_input>  (66) 
Tz1bQ0hdQzE9W0NIXS9DKD1DKFxbQ0gzXSlbQ0BASF0oW0NAQEhdMltPSF0pW0NIMl1bT0hdKVtDQEBIXShbQ0BASF0oW0NAXTMoW0NIM10pW09IXSlDNChbT0hdKVtDQF0yKFtPSF0pW0NAQF0xM1tPSF0pQz01W0NAXTQoW0NIM10pW0NASF0oW09IXSlbQ0gyXVtDSF01

>  <s_epik_cmdline>  (66) 
J2VwaWtfcHl0aG9uJywgJy1waHQnLCAnMi4wJywgJy1waCcsICc3LjAnLCAnLXRuJywgJzgnLCAnLW1hJywgJzIwMCcsICctaW1hZScsICc8aW5maWxlLm1hZT4nLCAnLW9tYWUnLCAnPG91dGZpbGUubWFlPic=

>  <r_lp_tautomer_probability>  (66) 
1

>  <r_epik_Ionization_Penalty>  (66) 
3.2273e-05

>  <r_epik_Ionization_Penalty_Charging>  (66) 
0

>  <r_epik_Ionization_Penalty_Neutral>  (66) 
3.2273e-05

>  <r_epik_State_Penalty>  (66) 
-0

>  <r_epik_Charging_Adjusted_Penalty>  (66) 
0

>  <i_epik_Tot_Q>  (66) 
0

>  <i_epik_Tot_abs_Q>  (66) 
0

>  <s_lp_Force_Field>  (66) 
OPLS3e

>  <r_lp_Energy>  (66) 
164.079

>  <b_lp_Chiralities_Consistent>  (66) 
1

>  <s_lp_Variant>  (66) 
16:0-3

>  <s_i_glide_gridfile>  (66) 
pfpi4k_grid

>  <i_i_glide_lignum>  (66) 
26

>  <i_i_glide_rotatable_bonds>  (66) 
9

>  <r_i_docking_score>  (66) 
-3.62558

>  <r_i_glide_ligand_efficiency>  (66) 
-0.120853

>  <r_i_glide_ligand_efficiency_sa>  (66) 
-0.375517

>  <r_i_glide_ligand_efficiency_ln>  (66) 
-0.82377

>  <r_i_glide_gscore>  (66) 
-3.62558

>  <r_i_glide_lipo>  (66) 
-0.591682

>  <r_i_glide_hbond>  (66) 
0

>  <r_i_glide_metal>  (66) 
-0

>  <r_i_glide_rewards>  (66) 
-0.542366

>  <r_i_glide_evdw>  (66) 
-9.13029

>  <r_i_glide_ecoul>  (66) 
-14.3132

>  <r_i_glide_erotb>  (66) 
0.111961

>  <r_i_glide_esite>  (66) 
0

>  <r_i_glide_emodel>  (66) 
-20.9824

>  <r_i_glide_energy>  (66) 
-23.4434

>  <r_i_glide_einternal>  (66) 
5.22685

>  <r_i_glide_intrahb_reward>  (66) 
-0

>  <i_i_glide_confnum>  (66) 
5

>  <i_i_glide_posenum>  (66) 
22

>  <r_i_glide_eff_state_penalty>  (66) 
0

>  <ligand_id>  (66) 
16

>  <original_smiles>  (66) 
CC1=C2C=C(C=O)C3(O)C(C)(O)C4C2C2=CCC(O)C2(C)C4(O)C3(O)C(O)C1CO

>  <smiles>  (66) 
[H]OC([H])([H])C1([H])C(C([H])([H])[H])=C2C([H])=C(C([H])=O)C3(O[H])C(O[H])(C([H])([H])[H])C4([H])C2([H])C2=C([H])C([H])([H])C([H])(O[H])C2(C([H])([H])[H])C4(O[H])C3(O[H])C1([H])O[H]

$$$$
16:2:1
     RDKit          3D

 58 62  0  0  1  0  0  0  0  0999 V2000
    0.9350   -1.9061    2.9914 C   0  0  0  0  0  0  0  0  0  0  0  0
    2.0369   -2.3449    2.0274 C   0  0  0  0  0  0  0  0  0  0  0  0
    2.3023   -3.6316    1.8264 C   0  0  0  0  0  0  0  0  0  0  0  0
    2.5267   -4.2821    3.1081 C   0  0  0  0  0  0  0  0  0  0  0  0
    3.7635   -4.6144    3.5092 C   0  0  0  0  0  0  0  0  0  0  0  0
    3.9529   -5.0794    4.9253 C   0  0  0  0  0  0  0  0  0  0  0  0
    3.0699   -5.0433    5.7900 O   0  0  0  0  0  0  0  0  0  0  0  0
    4.9590   -4.6361    2.5280 C   0  0  1  0  0  0  0  0  0  0  0  0
    6.1691   -5.0264    3.1737 O   0  0  0  0  0  0  0  0  0  0  0  0
    4.6116   -5.7953    1.5396 C   0  0  1  0  0  0  0  0  0  0  0  0
    5.7612   -6.7404    1.1588 C   0  0  0  0  0  0  0  0  0  0  0  0
    3.6135   -6.7291    1.9452 O   0  0  0  0  0  0  0  0  0  0  0  0
    4.0806   -5.0160    0.3346 C   0  0  1  0  0  0  0  0  0  0  0  0
    2.7222   -4.2416    0.4387 C   0  0  2  0  0  0  0  0  0  0  0  0
    2.9503   -3.1611   -0.6458 C   0  0  0  0  0  0  0  0  0  0  0  0
    2.1830   -3.1728   -1.7439 C   0  0  0  0  0  0  0  0  0  0  0  0
    2.9804   -2.9740   -2.9911 C   0  0  0  0  0  0  0  0  0  0  0  0
    4.3552   -3.4701   -2.4795 C   0  0  1  0  0  0  0  0  0  0  0  0
    5.4282   -3.1194   -3.3074 O   0  0  0  0  0  0  0  0  0  0  0  0
    4.3838   -2.9782   -0.9974 C   0  0  1  0  0  0  0  0  0  0  0  0
    4.9286   -1.5310   -1.0742 C   0  0  0  0  0  0  0  0  0  0  0  0
    5.0190   -3.8406    0.1053 C   0  0  2  0  0  0  0  0  0  0  0  0
    6.1954   -4.2442   -0.5293 O   0  0  0  0  0  0  0  0  0  0  0  0
    5.2151   -3.3198    1.6125 C   0  0  2  0  0  0  0  0  0  0  0  0
    6.6011   -3.0710    1.6068 O   0  0  0  0  0  0  0  0  0  0  0  0
    4.6097   -1.9627    2.2208 C   0  0  1  0  0  0  0  0  0  0  0  0
    5.5119   -0.8668    2.2206 O   0  0  0  0  0  0  0  0  0  0  0  0
    3.1730   -1.3398    2.0156 C   0  0  1  0  0  0  0  0  0  0  0  0
    2.9603   -0.2304    0.9609 C   0  0  0  0  0  0  0  0  0  0  0  0
    1.8202    0.5638    1.2845 O   0  0  0  0  0  0  0  0  0  0  0  0
    0.3268   -1.1460    2.4919 H   0  0  0  0  0  0  0  0  0  0  0  0
    1.3056   -1.4631    3.9168 H   0  0  0  0  0  0  0  0  0  0  0  0
    0.2784   -2.7301    3.2239 H   0  0  0  0  0  0  0  0  0  0  0  0
    1.6812   -4.3724    3.7876 H   0  0  0  0  0  0  0  0  0  0  0  0
    4.9323   -5.4914    5.1647 H   0  0  0  0  0  0  0  0  0  0  0  0
    6.0499   -5.8428    3.6007 H   0  0  0  0  0  0  0  0  0  0  0  0
    6.6806   -6.2576    0.8475 H   0  0  0  0  0  0  0  0  0  0  0  0
    5.3836   -7.3515    0.3400 H   0  0  0  0  0  0  0  0  0  0  0  0
    6.0385   -7.4289    1.9565 H   0  0  0  0  0  0  0  0  0  0  0  0
    4.0044   -7.3564    2.5190 H   0  0  0  0  0  0  0  0  0  0  0  0
    4.0180   -5.6774   -0.5334 H   0  0  0  0  0  0  0  0  0  0  0  0
    1.8978   -4.9070    0.1683 H   0  0  0  0  0  0  0  0  0  0  0  0
    1.1498   -3.5239   -1.8014 H   0  0  0  0  0  0  0  0  0  0  0  0
    2.5665   -3.5320   -3.8250 H   0  0  0  0  0  0  0  0  0  0  0  0
    2.9761   -1.9030   -3.2358 H   0  0  0  0  0  0  0  0  0  0  0  0
    4.4309   -4.5477   -2.4561 H   0  0  0  0  0  0  0  0  0  0  0  0
    6.1749   -3.6259   -3.0468 H   0  0  0  0  0  0  0  0  0  0  0  0
    5.8772   -1.5198   -1.5825 H   0  0  0  0  0  0  0  0  0  0  0  0
    5.1369   -1.0839   -0.1207 H   0  0  0  0  0  0  0  0  0  0  0  0
    4.2578   -0.8731   -1.6269 H   0  0  0  0  0  0  0  0  0  0  0  0
    5.9402   -4.8395   -1.2074 H   0  0  0  0  0  0  0  0  0  0  0  0
    6.9736   -3.9033    1.4305 H   0  0  0  0  0  0  0  0  0  0  0  0
    4.6204   -2.2072    3.2821 H   0  0  0  0  0  0  0  0  0  0  0  0
    5.1592   -0.2265    2.7974 H   0  0  0  0  0  0  0  0  0  0  0  0
    3.0738   -0.7776    2.9449 H   0  0  0  0  0  0  0  0  0  0  0  0
    3.8163    0.4429    0.8682 H   0  0  0  0  0  0  0  0  0  0  0  0
    2.7324   -0.6563   -0.0061 H   0  0  0  0  0  0  0  0  0  0  0  0
    1.1384    0.2517    0.7070 H   0  0  0  0  0  0  0  0  0  0  0  0
  1  2  1  0
  1 31  1  0
  1 32  1  0
  1 33  1  0
  2 28  1  0
  2  3  2  3
  3 14  1  0
  3  4  1  0
  4  5  2  0
  4 34  1  0
  5  6  1  0
  5  8  1  0
  6  7  2  0
  6 35  1  0
  8 24  1  0
  8  9  1  1
  8 10  1  0
  9 36  1  0
 10 11  1  0
 10 12  1  1
 10 13  1  0
 11 37  1  0
 11 38  1  0
 11 39  1  0
 12 40  1  0
 13 22  1  0
 13 14  1  0
 13 41  1  6
 14 15  1  0
 14 42  1  6
 15 20  1  0
 15 16  2  0
 16 17  1  0
 16 43  1  0
 17 18  1  0
 17 44  1  0
 17 45  1  0
 18 19  1  0
 18 20  1  0
 18 46  1  1
 19 47  1  0
 20 21  1  6
 20 22  1  0
 21 48  1  0
 21 49  1  0
 21 50  1  0
 22 23  1  6
 22 24  1  0
 23 51  1  0
 24 25  1  6
 24 26  1  0
 25 52  1  0
 26 27  1  0
 26 28  1  0
 26 53  1  1
 27 54  1  0
 28 29  1  0
 28 55  1  1
 29 30  1  0
 29 56  1  0
 29 57  1  0
 30 58  1  0
M  END
>  <i_m_ct_stereo_status>  (67) 
1

>  <s_m_source_file>  (67) 
/var/tmp/pbs.5076255.sched01/tmp0qfm3vo4/0bcu552to.sdf

>  <i_m_source_file_index>  (67) 
26

>  <i_lp_mmshare_version>  (67) 
48012

>  <i_f3d_flags>  (67) 
0

>  <s_epik_input>  (67) 
Tz1bQ0hdQzE9W0NIXS9DKD1DKFxbQ0gzXSlbQ0BASF0oW0NAQEhdMltPSF0pW0NIMl1bT0hdKVtDQEBIXShbQ0BASF0oW0NAXTMoW0NIM10pW09IXSlDNChbT0hdKVtDQF0yKFtPSF0pW0NAQF0xM1tPSF0pQz01W0NAXTQoW0NIM10pW0NASF0oW09IXSlbQ0gyXVtDSF01

>  <s_epik_cmdline>  (67) 
J2VwaWtfcHl0aG9uJywgJy1waHQnLCAnMi4wJywgJy1waCcsICc3LjAnLCAnLXRuJywgJzgnLCAnLW1hJywgJzIwMCcsICctaW1hZScsICc8aW5maWxlLm1hZT4nLCAnLW9tYWUnLCAnPG91dGZpbGUubWFlPic=

>  <r_lp_tautomer_probability>  (67) 
1

>  <r_epik_Ionization_Penalty>  (67) 
3.2273e-05

>  <r_epik_Ionization_Penalty_Charging>  (67) 
0

>  <r_epik_Ionization_Penalty_Neutral>  (67) 
3.2273e-05

>  <r_epik_State_Penalty>  (67) 
-0

>  <r_epik_Charging_Adjusted_Penalty>  (67) 
0

>  <i_epik_Tot_Q>  (67) 
0

>  <i_epik_Tot_abs_Q>  (67) 
0

>  <s_lp_Force_Field>  (67) 
OPLS3e

>  <r_lp_Energy>  (67) 
164.079

>  <b_lp_Chiralities_Consistent>  (67) 
1

>  <s_lp_Variant>  (67) 
16:0-3

>  <s_i_glide_gridfile>  (67) 
pfpi4k_grid

>  <i_i_glide_lignum>  (67) 
26

>  <i_i_glide_rotatable_bonds>  (67) 
9

>  <r_i_docking_score>  (67) 
-2.75691

>  <r_i_glide_ligand_efficiency>  (67) 
-0.091897

>  <r_i_glide_ligand_efficiency_sa>  (67) 
-0.285545

>  <r_i_glide_ligand_efficiency_ln>  (67) 
-0.6264

>  <r_i_glide_gscore>  (67) 
-2.75691

>  <r_i_glide_lipo>  (67) 
-0.407259

>  <r_i_glide_hbond>  (67) 
-0.148444

>  <r_i_glide_metal>  (67) 
-0

>  <r_i_glide_rewards>  (67) 
-0.542366

>  <r_i_glide_evdw>  (67) 
-17.0904

>  <r_i_glide_ecoul>  (67) 
-6.10856

>  <r_i_glide_erotb>  (67) 
0.111961

>  <r_i_glide_esite>  (67) 
0

>  <r_i_glide_emodel>  (67) 
-21.5775

>  <r_i_glide_energy>  (67) 
-23.1989

>  <r_i_glide_einternal>  (67) 
4.62087

>  <r_i_glide_intrahb_reward>  (67) 
-0

>  <i_i_glide_confnum>  (67) 
5

>  <i_i_glide_posenum>  (67) 
19

>  <r_i_glide_eff_state_penalty>  (67) 
0

>  <ligand_id>  (67) 
16

>  <original_smiles>  (67) 
CC1=C2C=C(C=O)C3(O)C(C)(O)C4C2C2=CCC(O)C2(C)C4(O)C3(O)C(O)C1CO

>  <smiles>  (67) 
[H]OC([H])([H])C1([H])C(C([H])([H])[H])=C2C([H])=C(C([H])=O)C3(O[H])C(O[H])(C([H])([H])[H])C4([H])C2([H])C2=C([H])C([H])([H])C([H])(O[H])C2(C([H])([H])[H])C4(O[H])C3(O[H])C1([H])O[H]

$$$$
16:2:2
     RDKit          3D

 58 62  0  0  1  0  0  0  0  0999 V2000
    0.9571   -1.9054    3.0074 C   0  0  0  0  0  0  0  0  0  0  0  0
    2.0467   -2.3470    2.0446 C   0  0  0  0  0  0  0  0  0  0  0  0
    2.2963   -3.6503    1.8359 C   0  0  0  0  0  0  0  0  0  0  0  0
    2.5196   -4.3007    3.1190 C   0  0  0  0  0  0  0  0  0  0  0  0
    3.7561   -4.6263    3.5289 C   0  0  0  0  0  0  0  0  0  0  0  0
    3.9420   -5.0894    4.9427 C   0  0  0  0  0  0  0  0  0  0  0  0
    3.0551   -5.0952    5.7939 O   0  0  0  0  0  0  0  0  0  0  0  0
    4.9646   -4.6642    2.5484 C   0  0  1  0  0  0  0  0  0  0  0  0
    6.1615   -5.0356    3.2211 O   0  0  0  0  0  0  0  0  0  0  0  0
    4.6179   -5.8017    1.5474 C   0  0  1  0  0  0  0  0  0  0  0  0
    5.7696   -6.7431    1.1657 C   0  0  0  0  0  0  0  0  0  0  0  0
    3.6230   -6.7400    1.9335 O   0  0  0  0  0  0  0  0  0  0  0  0
    4.0798   -5.0199    0.3457 C   0  0  1  0  0  0  0  0  0  0  0  0
    2.7279   -4.2386    0.4546 C   0  0  2  0  0  0  0  0  0  0  0  0
    2.9371   -3.1796   -0.6416 C   0  0  0  0  0  0  0  0  0  0  0  0
    2.1707   -3.1705   -1.7366 C   0  0  0  0  0  0  0  0  0  0  0  0
    2.9717   -2.9678   -2.9779 C   0  0  0  0  0  0  0  0  0  0  0  0
    4.3459   -3.4741   -2.4682 C   0  0  1  0  0  0  0  0  0  0  0  0
    5.4205   -3.1244   -3.3095 O   0  0  0  0  0  0  0  0  0  0  0  0
    4.3898   -2.9718   -0.9857 C   0  0  1  0  0  0  0  0  0  0  0  0
    4.9192   -1.5283   -1.0582 C   0  0  0  0  0  0  0  0  0  0  0  0
    5.0250   -3.8489    0.1160 C   0  0  2  0  0  0  0  0  0  0  0  0
    6.1982   -4.2739   -0.5273 O   0  0  0  0  0  0  0  0  0  0  0  0
    5.2412   -3.3476    1.6221 C   0  0  2  0  0  0  0  0  0  0  0  0
    6.6244   -3.0906    1.6050 O   0  0  0  0  0  0  0  0  0  0  0  0
    4.6218   -1.9772    2.2401 C   0  0  1  0  0  0  0  0  0  0  0  0
    5.5491   -0.9081    2.2756 O   0  0  0  0  0  0  0  0  0  0  0  0
    3.1841   -1.3469    2.0253 C   0  0  1  0  0  0  0  0  0  0  0  0
    2.9613   -0.2335    0.9728 C   0  0  0  0  0  0  0  0  0  0  0  0
    1.8312    0.5503    1.2922 O   0  0  0  0  0  0  0  0  0  0  0  0
    0.3787   -1.1388    2.4950 H   0  0  0  0  0  0  0  0  0  0  0  0
    1.3292   -1.4867    3.9422 H   0  0  0  0  0  0  0  0  0  0  0  0
    0.2737   -2.7222    3.2277 H   0  0  0  0  0  0  0  0  0  0  0  0
    1.6806   -4.3808    3.7999 H   0  0  0  0  0  0  0  0  0  0  0  0
    4.9463   -5.4528    5.1979 H   0  0  0  0  0  0  0  0  0  0  0  0
    6.0750   -5.9222    3.5534 H   0  0  0  0  0  0  0  0  0  0  0  0
    6.6852   -6.2473    0.8612 H   0  0  0  0  0  0  0  0  0  0  0  0
    5.3958   -7.3476    0.3518 H   0  0  0  0  0  0  0  0  0  0  0  0
    6.0515   -7.4243    1.9660 H   0  0  0  0  0  0  0  0  0  0  0  0
    4.0080   -7.3369    2.5613 H   0  0  0  0  0  0  0  0  0  0  0  0
    4.0277   -5.6708   -0.5231 H   0  0  0  0  0  0  0  0  0  0  0  0
    1.9078   -4.9161    0.1753 H   0  0  0  0  0  0  0  0  0  0  0  0
    1.1448   -3.5277   -1.7949 H   0  0  0  0  0  0  0  0  0  0  0  0
    2.5667   -3.5320   -3.8137 H   0  0  0  0  0  0  0  0  0  0  0  0
    2.9745   -1.9029   -3.2266 H   0  0  0  0  0  0  0  0  0  0  0  0
    4.3819   -4.5540   -2.4502 H   0  0  0  0  0  0  0  0  0  0  0  0
    6.1684   -3.6544   -3.0655 H   0  0  0  0  0  0  0  0  0  0  0  0
    5.8728   -1.5163   -1.5729 H   0  0  0  0  0  0  0  0  0  0  0  0
    5.1379   -1.0835   -0.1064 H   0  0  0  0  0  0  0  0  0  0  0  0
    4.2527   -0.8718   -1.6114 H   0  0  0  0  0  0  0  0  0  0  0  0
    5.9369   -4.8277   -1.2348 H   0  0  0  0  0  0  0  0  0  0  0  0
    6.8511   -2.8231    2.4644 H   0  0  0  0  0  0  0  0  0  0  0  0
    4.5971   -2.2154    3.3032 H   0  0  0  0  0  0  0  0  0  0  0  0
    5.1760   -0.2277    2.8124 H   0  0  0  0  0  0  0  0  0  0  0  0
    3.0848   -0.7756    2.9545 H   0  0  0  0  0  0  0  0  0  0  0  0
    3.8178    0.4398    0.8766 H   0  0  0  0  0  0  0  0  0  0  0  0
    2.7279   -0.6554    0.0045 H   0  0  0  0  0  0  0  0  0  0  0  0
    1.1277    0.2609    0.7170 H   0  0  0  0  0  0  0  0  0  0  0  0
  1  2  1  0
  1 31  1  0
  1 32  1  0
  1 33  1  0
  2 28  1  0
  2  3  2  3
  3 14  1  0
  3  4  1  0
  4  5  2  0
  4 34  1  0
  5  6  1  0
  5  8  1  0
  6  7  2  0
  6 35  1  0
  8 24  1  0
  8  9  1  1
  8 10  1  0
  9 36  1  0
 10 11  1  0
 10 12  1  1
 10 13  1  0
 11 37  1  0
 11 38  1  0
 11 39  1  0
 12 40  1  0
 13 22  1  0
 13 14  1  0
 13 41  1  6
 14 15  1  0
 14 42  1  6
 15 20  1  0
 15 16  2  0
 16 17  1  0
 16 43  1  0
 17 18  1  0
 17 44  1  0
 17 45  1  0
 18 19  1  0
 18 20  1  0
 18 46  1  1
 19 47  1  0
 20 21  1  6
 20 22  1  0
 21 48  1  0
 21 49  1  0
 21 50  1  0
 22 23  1  6
 22 24  1  0
 23 51  1  0
 24 25  1  6
 24 26  1  0
 25 52  1  0
 26 27  1  0
 26 28  1  0
 26 53  1  1
 27 54  1  0
 28 29  1  0
 28 55  1  1
 29 30  1  0
 29 56  1  0
 29 57  1  0
 30 58  1  0
M  END
>  <i_m_ct_stereo_status>  (68) 
1

>  <s_m_source_file>  (68) 
/var/tmp/pbs.5076255.sched01/tmp0qfm3vo4/0bcu552to.sdf

>  <i_m_source_file_index>  (68) 
26

>  <i_lp_mmshare_version>  (68) 
48012

>  <i_f3d_flags>  (68) 
0

>  <s_epik_input>  (68) 
Tz1bQ0hdQzE9W0NIXS9DKD1DKFxbQ0gzXSlbQ0BASF0oW0NAQEhdMltPSF0pW0NIMl1bT0hdKVtDQEBIXShbQ0BASF0oW0NAXTMoW0NIM10pW09IXSlDNChbT0hdKVtDQF0yKFtPSF0pW0NAQF0xM1tPSF0pQz01W0NAXTQoW0NIM10pW0NASF0oW09IXSlbQ0gyXVtDSF01

>  <s_epik_cmdline>  (68) 
J2VwaWtfcHl0aG9uJywgJy1waHQnLCAnMi4wJywgJy1waCcsICc3LjAnLCAnLXRuJywgJzgnLCAnLW1hJywgJzIwMCcsICctaW1hZScsICc8aW5maWxlLm1hZT4nLCAnLW9tYWUnLCAnPG91dGZpbGUubWFlPic=

>  <r_lp_tautomer_probability>  (68) 
1

>  <r_epik_Ionization_Penalty>  (68) 
3.2273e-05

>  <r_epik_Ionization_Penalty_Charging>  (68) 
0

>  <r_epik_Ionization_Penalty_Neutral>  (68) 
3.2273e-05

>  <r_epik_State_Penalty>  (68) 
-0

>  <r_epik_Charging_Adjusted_Penalty>  (68) 
0

>  <i_epik_Tot_Q>  (68) 
0

>  <i_epik_Tot_abs_Q>  (68) 
0

>  <s_lp_Force_Field>  (68) 
OPLS3e

>  <r_lp_Energy>  (68) 
164.079

>  <b_lp_Chiralities_Consistent>  (68) 
1

>  <s_lp_Variant>  (68) 
16:0-3

>  <s_i_glide_gridfile>  (68) 
pfpi4k_grid

>  <i_i_glide_lignum>  (68) 
26

>  <i_i_glide_rotatable_bonds>  (68) 
9

>  <r_i_docking_score>  (68) 
-2.69376

>  <r_i_glide_ligand_efficiency>  (68) 
-0.0897919

>  <r_i_glide_ligand_efficiency_sa>  (68) 
-0.279004

>  <r_i_glide_ligand_efficiency_ln>  (68) 
-0.612051

>  <r_i_glide_gscore>  (68) 
-2.69376

>  <r_i_glide_lipo>  (68) 
-0.406037

>  <r_i_glide_hbond>  (68) 
-0.141613

>  <r_i_glide_metal>  (68) 
-0

>  <r_i_glide_rewards>  (68) 
-0.542366

>  <r_i_glide_evdw>  (68) 
-16.5369

>  <r_i_glide_ecoul>  (68) 
-5.9257

>  <r_i_glide_erotb>  (68) 
0.111961

>  <r_i_glide_esite>  (68) 
0

>  <r_i_glide_emodel>  (68) 
-21.0834

>  <r_i_glide_energy>  (68) 
-22.4626

>  <r_i_glide_einternal>  (68) 
4.45645

>  <r_i_glide_intrahb_reward>  (68) 
-0

>  <i_i_glide_confnum>  (68) 
2

>  <i_i_glide_posenum>  (68) 
17

>  <r_i_glide_eff_state_penalty>  (68) 
0

>  <ligand_id>  (68) 
16

>  <original_smiles>  (68) 
CC1=C2C=C(C=O)C3(O)C(C)(O)C4C2C2=CCC(O)C2(C)C4(O)C3(O)C(O)C1CO

>  <smiles>  (68) 
[H]OC([H])([H])C1([H])C(C([H])([H])[H])=C2C([H])=C(C([H])=O)C3(O[H])C(O[H])(C([H])([H])[H])C4([H])C2([H])C2=C([H])C([H])([H])C([H])(O[H])C2(C([H])([H])[H])C4(O[H])C3(O[H])C1([H])O[H]

$$$$
16:3:0
     RDKit          3D

 58 62  0  0  1  0  0  0  0  0999 V2000
    1.5024   -1.5675    4.0523 C   0  0  0  0  0  0  0  0  0  0  0  0
    0.8327   -0.1968    3.8504 C   0  0  0  0  0  0  0  0  0  0  0  0
   -0.2501    0.1970    4.5616 C   0  0  0  0  0  0  0  0  0  0  0  0
   -1.1697    1.0456    3.8137 C   0  0  0  0  0  0  0  0  0  0  0  0
   -1.2302    2.3902    3.8843 C   0  0  0  0  0  0  0  0  0  0  0  0
   -2.1616    3.0547    2.9236 C   0  0  0  0  0  0  0  0  0  0  0  0
   -2.5843    4.2107    2.9816 O   0  0  0  0  0  0  0  0  0  0  0  0
   -0.4385    3.1447    4.9638 C   0  0  1  0  0  0  0  0  0  0  0  0
   -0.5696    4.5567    4.8159 O   0  0  0  0  0  0  0  0  0  0  0  0
   -1.0905    2.7040    6.3191 C   0  0  1  0  0  0  0  0  0  0  0  0
   -1.2109    3.8298    7.3742 C   0  0  0  0  0  0  0  0  0  0  0  0
   -2.4245    2.2300    6.2644 O   0  0  0  0  0  0  0  0  0  0  0  0
   -0.2045    1.5323    6.7877 C   0  0  1  0  0  0  0  0  0  0  0  0
   -0.2702    0.1131    6.1003 C   0  0  2  0  0  0  0  0  0  0  0  0
    1.0486   -0.3954    6.6589 C   0  0  0  0  0  0  0  0  0  0  0  0
    1.2222   -1.4162    7.5020 C   0  0  0  0  0  0  0  0  0  0  0  0
    2.3890   -1.1659    8.4131 C   0  0  0  0  0  0  0  0  0  0  0  0
    2.4793    0.3744    8.3041 C   0  0  1  0  0  0  0  0  0  0  0  0
    3.7273    0.8819    8.7284 O   0  0  0  0  0  0  0  0  0  0  0  0
    2.0856    0.6908    6.8198 C   0  0  1  0  0  0  0  0  0  0  0  0
    3.3530    0.4784    5.9796 C   0  0  0  0  0  0  0  0  0  0  0  0
    1.2471    1.9807    6.5123 C   0  0  2  0  0  0  0  0  0  0  0  0
    1.6283    2.8809    7.5377 O   0  0  0  0  0  0  0  0  0  0  0  0
    1.1224    2.7354    5.0705 C   0  0  2  0  0  0  0  0  0  0  0  0
    1.8515    3.9489    5.2818 O   0  0  0  0  0  0  0  0  0  0  0  0
    1.7855    2.2240    3.6699 C   0  0  1  0  0  0  0  0  0  0  0  0
    3.1924    2.4200    3.7417 O   0  0  0  0  0  0  0  0  0  0  0  0
    1.4498    0.8498    2.9044 C   0  0  1  0  0  0  0  0  0  0  0  0
    2.5906    0.3321    1.9908 C   0  0  0  0  0  0  0  0  0  0  0  0
    2.2340   -0.8383    1.2798 O   0  0  0  0  0  0  0  0  0  0  0  0
    1.3958   -2.1737    3.1556 H   0  0  0  0  0  0  0  0  0  0  0  0
    0.9918   -2.1674    4.8024 H   0  0  0  0  0  0  0  0  0  0  0  0
    2.5641   -1.5355    4.2901 H   0  0  0  0  0  0  0  0  0  0  0  0
   -1.7906    0.5525    3.0837 H   0  0  0  0  0  0  0  0  0  0  0  0
   -2.5228    2.3931    2.1327 H   0  0  0  0  0  0  0  0  0  0  0  0
   -0.2049    4.7977    3.9710 H   0  0  0  0  0  0  0  0  0  0  0  0
   -0.3013    4.4175    7.4899 H   0  0  0  0  0  0  0  0  0  0  0  0
   -1.4756    3.4211    8.3476 H   0  0  0  0  0  0  0  0  0  0  0  0
   -1.9969    4.5301    7.1085 H   0  0  0  0  0  0  0  0  0  0  0  0
   -2.5271    1.7245    5.4662 H   0  0  0  0  0  0  0  0  0  0  0  0
   -0.3600    1.3833    7.8559 H   0  0  0  0  0  0  0  0  0  0  0  0
   -1.1335   -0.4799    6.4340 H   0  0  0  0  0  0  0  0  0  0  0  0
    0.5184   -2.2191    7.6926 H   0  0  0  0  0  0  0  0  0  0  0  0
    2.2132   -1.5028    9.4351 H   0  0  0  0  0  0  0  0  0  0  0  0
    3.2812   -1.6725    8.0301 H   0  0  0  0  0  0  0  0  0  0  0  0
    1.7213    0.7791    8.9724 H   0  0  0  0  0  0  0  0  0  0  0  0
    3.8207    0.6886    9.6531 H   0  0  0  0  0  0  0  0  0  0  0  0
    4.0433    1.3141    6.0978 H   0  0  0  0  0  0  0  0  0  0  0  0
    3.1573    0.3691    4.9265 H   0  0  0  0  0  0  0  0  0  0  0  0
    3.8868   -0.4309    6.2577 H   0  0  0  0  0  0  0  0  0  0  0  0
    2.5016    3.1913    7.3166 H   0  0  0  0  0  0  0  0  0  0  0  0
    1.8507    4.4299    4.4661 H   0  0  0  0  0  0  0  0  0  0  0  0
    1.4947    2.9832    2.9405 H   0  0  0  0  0  0  0  0  0  0  0  0
    3.5647    2.5455    2.8802 H   0  0  0  0  0  0  0  0  0  0  0  0
    0.6751    1.0880    2.1733 H   0  0  0  0  0  0  0  0  0  0  0  0
    2.8595    1.1031    1.2721 H   0  0  0  0  0  0  0  0  0  0  0  0
    3.4912    0.1071    2.5579 H   0  0  0  0  0  0  0  0  0  0  0  0
    1.6037   -0.6580    0.5851 H   0  0  0  0  0  0  0  0  0  0  0  0
  1  2  1  0
  1 31  1  0
  1 32  1  0
  1 33  1  0
  2 28  1  0
  2  3  2  3
  3 14  1  0
  3  4  1  0
  4  5  2  0
  4 34  1  0
  5  6  1  0
  5  8  1  0
  6  7  2  0
  6 35  1  0
  8 24  1  0
  8  9  1  6
  8 10  1  0
  9 36  1  0
 10 11  1  0
 10 12  1  6
 10 13  1  0
 11 37  1  0
 11 38  1  0
 11 39  1  0
 12 40  1  0
 13 22  1  0
 13 14  1  0
 13 41  1  1
 14 15  1  0
 14 42  1  6
 15 20  1  0
 15 16  2  0
 16 17  1  0
 16 43  1  0
 17 18  1  0
 17 44  1  0
 17 45  1  0
 18 19  1  0
 18 20  1  0
 18 46  1  1
 19 47  1  0
 20 21  1  6
 20 22  1  0
 21 48  1  0
 21 49  1  0
 21 50  1  0
 22 23  1  1
 22 24  1  0
 23 51  1  0
 24 25  1  1
 24 26  1  0
 25 52  1  0
 26 27  1  0
 26 28  1  0
 26 53  1  6
 27 54  1  0
 28 29  1  0
 28 55  1  6
 29 30  1  0
 29 56  1  0
 29 57  1  0
 30 58  1  0
M  END
>  <i_m_ct_stereo_status>  (69) 
1

>  <s_m_source_file>  (69) 
/var/tmp/pbs.5076255.sched01/tmp0qfm3vo4/0bcu552to.sdf

>  <i_m_source_file_index>  (69) 
27

>  <i_lp_mmshare_version>  (69) 
48012

>  <i_f3d_flags>  (69) 
0

>  <s_epik_input>  (69) 
Tz1bQ0hdQzE9W0NIXS9DKD1DKFxbQ0gzXSlbQ0BASF0oW0NAQEhdMltPSF0pW0NIMl1bT0hdKVtDQEBIXShbQ0BASF0oW0NAXTMoW0NIM10pW09IXSlDNChbT0hdKVtDQF0yKFtPSF0pW0NAQF0xM1tPSF0pQz01W0NAXTQoW0NIM10pW0NASF0oW09IXSlbQ0gyXVtDSF01

>  <s_epik_cmdline>  (69) 
J2VwaWtfcHl0aG9uJywgJy1waHQnLCAnMi4wJywgJy1waCcsICc3LjAnLCAnLXRuJywgJzgnLCAnLW1hJywgJzIwMCcsICctaW1hZScsICc8aW5maWxlLm1hZT4nLCAnLW9tYWUnLCAnPG91dGZpbGUubWFlPic=

>  <r_lp_tautomer_probability>  (69) 
1

>  <r_epik_Ionization_Penalty>  (69) 
3.2273e-05

>  <r_epik_Ionization_Penalty_Charging>  (69) 
0

>  <r_epik_Ionization_Penalty_Neutral>  (69) 
3.2273e-05

>  <r_epik_State_Penalty>  (69) 
-0

>  <r_epik_Charging_Adjusted_Penalty>  (69) 
0

>  <i_epik_Tot_Q>  (69) 
0

>  <i_epik_Tot_abs_Q>  (69) 
0

>  <s_lp_Force_Field>  (69) 
OPLS3e

>  <r_lp_Energy>  (69) 
144.504

>  <b_lp_Chiralities_Consistent>  (69) 
1

>  <s_lp_Variant>  (69) 
16:0-4

>  <s_i_glide_gridfile>  (69) 
pfpi4k_grid

>  <i_i_glide_lignum>  (69) 
27

>  <i_i_glide_rotatable_bonds>  (69) 
9

>  <r_i_docking_score>  (69) 
-3.35068

>  <r_i_glide_ligand_efficiency>  (69) 
-0.111689

>  <r_i_glide_ligand_efficiency_sa>  (69) 
-0.347045

>  <r_i_glide_ligand_efficiency_ln>  (69) 
-0.761311

>  <r_i_glide_gscore>  (69) 
-3.35068

>  <r_i_glide_lipo>  (69) 
-0.0269546

>  <r_i_glide_hbond>  (69) 
-0.207444

>  <r_i_glide_metal>  (69) 
-0

>  <r_i_glide_rewards>  (69) 
-0.542366

>  <r_i_glide_evdw>  (69) 
-17.2982

>  <r_i_glide_ecoul>  (69) 
-11.786

>  <r_i_glide_erotb>  (69) 
0.111961

>  <r_i_glide_esite>  (69) 
-0.0530719

>  <r_i_glide_emodel>  (69) 
-33.9466

>  <r_i_glide_energy>  (69) 
-29.0842

>  <r_i_glide_einternal>  (69) 
2.82593

>  <r_i_glide_intrahb_reward>  (69) 
-0

>  <i_i_glide_confnum>  (69) 
6

>  <i_i_glide_posenum>  (69) 
33

>  <r_i_glide_eff_state_penalty>  (69) 
0

>  <ligand_id>  (69) 
16

>  <original_smiles>  (69) 
CC1=C2C=C(C=O)C3(O)C(C)(O)C4C2C2=CCC(O)C2(C)C4(O)C3(O)C(O)C1CO

>  <smiles>  (69) 
[H]OC([H])([H])C1([H])C(C([H])([H])[H])=C2C([H])=C(C([H])=O)C3(O[H])C(O[H])(C([H])([H])[H])C4([H])C2([H])C2=C([H])C([H])([H])C([H])(O[H])C2(C([H])([H])[H])C4(O[H])C3(O[H])C1([H])O[H]

$$$$
16:3:1
     RDKit          3D

 58 62  0  0  1  0  0  0  0  0999 V2000
    1.5988   -1.3850    4.0697 C   0  0  0  0  0  0  0  0  0  0  0  0
    0.8736   -0.0396    3.9060 C   0  0  0  0  0  0  0  0  0  0  0  0
   -0.2117    0.2941    4.6382 C   0  0  0  0  0  0  0  0  0  0  0  0
   -1.1675    1.1157    3.9201 C   0  0  0  0  0  0  0  0  0  0  0  0
   -1.2736    2.4580    4.0019 C   0  0  0  0  0  0  0  0  0  0  0  0
   -2.2239    3.0991    3.0529 C   0  0  0  0  0  0  0  0  0  0  0  0
   -2.5696    4.2885    3.0371 O   0  0  0  0  0  0  0  0  0  0  0  0
   -0.5136    3.2207    5.0916 C   0  0  1  0  0  0  0  0  0  0  0  0
   -0.7083    4.6256    4.9786 O   0  0  0  0  0  0  0  0  0  0  0  0
   -1.1281    2.7400    6.4475 C   0  0  1  0  0  0  0  0  0  0  0  0
   -1.2775    3.8540    7.5151 C   0  0  0  0  0  0  0  0  0  0  0  0
   -2.4420    2.2139    6.3908 O   0  0  0  0  0  0  0  0  0  0  0  0
   -0.1837    1.6016    6.8856 C   0  0  1  0  0  0  0  0  0  0  0  0
   -0.2076    0.1911    6.1794 C   0  0  2  0  0  0  0  0  0  0  0  0
    1.1365   -0.2716    6.7070 C   0  0  0  0  0  0  0  0  0  0  0  0
    1.3599   -1.2966    7.5315 C   0  0  0  0  0  0  0  0  0  0  0  0
    2.5276   -1.0149    8.4289 C   0  0  0  0  0  0  0  0  0  0  0  0
    2.5656    0.5284    8.3406 C   0  0  1  0  0  0  0  0  0  0  0  0
    3.8075    1.0525    8.7537 O   0  0  0  0  0  0  0  0  0  0  0  0
    2.1349    0.8482    6.8694 C   0  0  1  0  0  0  0  0  0  0  0  0
    3.3960    0.7032    6.0051 C   0  0  0  0  0  0  0  0  0  0  0  0
    1.2448    2.1114    6.5965 C   0  0  2  0  0  0  0  0  0  0  0  0
    1.6177    3.0157    7.6197 O   0  0  0  0  0  0  0  0  0  0  0  0
    1.0578    2.8749    5.1653 C   0  0  2  0  0  0  0  0  0  0  0  0
    1.7296    4.1192    5.3628 O   0  0  0  0  0  0  0  0  0  0  0  0
    1.7242    2.4236    3.7476 C   0  0  1  0  0  0  0  0  0  0  0  0
    3.1190    2.6911    3.8144 O   0  0  0  0  0  0  0  0  0  0  0  0
    1.4325    1.0459    2.9642 C   0  0  1  0  0  0  0  0  0  0  0  0
    2.5774    0.5830    2.0245 C   0  0  0  0  0  0  0  0  0  0  0  0
    2.2486   -0.5689    1.2766 O   0  0  0  0  0  0  0  0  0  0  0  0
    1.5068   -1.9743    3.1598 H   0  0  0  0  0  0  0  0  0  0  0  0
    1.1211   -2.0172    4.8151 H   0  0  0  0  0  0  0  0  0  0  0  0
    2.6616   -1.3174    4.2991 H   0  0  0  0  0  0  0  0  0  0  0  0
   -1.7549    0.6010    3.1804 H   0  0  0  0  0  0  0  0  0  0  0  0
   -2.6762    2.4103    2.3434 H   0  0  0  0  0  0  0  0  0  0  0  0
   -0.1274    4.9137    4.2832 H   0  0  0  0  0  0  0  0  0  0  0  0
   -0.4001    4.4891    7.6279 H   0  0  0  0  0  0  0  0  0  0  0  0
   -1.5085    3.4214    8.4877 H   0  0  0  0  0  0  0  0  0  0  0  0
   -2.0981    4.5280    7.2786 H   0  0  0  0  0  0  0  0  0  0  0  0
   -3.0072    2.9194    6.1066 H   0  0  0  0  0  0  0  0  0  0  0  0
   -0.3270    1.4295    7.9557 H   0  0  0  0  0  0  0  0  0  0  0  0
   -1.0408   -0.4417    6.5075 H   0  0  0  0  0  0  0  0  0  0  0  0
    0.6818   -2.1194    7.7180 H   0  0  0  0  0  0  0  0  0  0  0  0
    2.3773   -1.3728    9.4458 H   0  0  0  0  0  0  0  0  0  0  0  0
    3.4319   -1.4825    8.0252 H   0  0  0  0  0  0  0  0  0  0  0  0
    1.8060    0.9013    9.0269 H   0  0  0  0  0  0  0  0  0  0  0  0
    3.9081    0.8767    9.6806 H   0  0  0  0  0  0  0  0  0  0  0  0
    4.0548    1.5639    6.1310 H   0  0  0  0  0  0  0  0  0  0  0  0
    3.1877    0.6037    4.9519 H   0  0  0  0  0  0  0  0  0  0  0  0
    3.9659   -0.1899    6.2645 H   0  0  0  0  0  0  0  0  0  0  0  0
    1.0632    3.7826    7.5271 H   0  0  0  0  0  0  0  0  0  0  0  0
    2.6531    3.9187    5.2485 H   0  0  0  0  0  0  0  0  0  0  0  0
    1.3898    3.1795    3.0329 H   0  0  0  0  0  0  0  0  0  0  0  0
    3.5077    2.6472    2.9494 H   0  0  0  0  0  0  0  0  0  0  0  0
    0.6363    1.2629    2.2500 H   0  0  0  0  0  0  0  0  0  0  0  0
    2.8276    1.3748    1.3237 H   0  0  0  0  0  0  0  0  0  0  0  0
    3.4801    0.3553    2.5854 H   0  0  0  0  0  0  0  0  0  0  0  0
    1.5836   -0.4008    0.6098 H   0  0  0  0  0  0  0  0  0  0  0  0
  1  2  1  0
  1 31  1  0
  1 32  1  0
  1 33  1  0
  2 28  1  0
  2  3  2  3
  3 14  1  0
  3  4  1  0
  4  5  2  0
  4 34  1  0
  5  6  1  0
  5  8  1  0
  6  7  2  0
  6 35  1  0
  8 24  1  0
  8  9  1  6
  8 10  1  0
  9 36  1  0
 10 11  1  0
 10 12  1  6
 10 13  1  0
 11 37  1  0
 11 38  1  0
 11 39  1  0
 12 40  1  0
 13 22  1  0
 13 14  1  0
 13 41  1  1
 14 15  1  0
 14 42  1  1
 15 20  1  0
 15 16  2  0
 16 17  1  0
 16 43  1  0
 17 18  1  0
 17 44  1  0
 17 45  1  0
 18 19  1  0
 18 20  1  0
 18 46  1  1
 19 47  1  0
 20 21  1  6
 20 22  1  0
 21 48  1  0
 21 49  1  0
 21 50  1  0
 22 23  1  1
 22 24  1  0
 23 51  1  0
 24 25  1  1
 24 26  1  0
 25 52  1  0
 26 27  1  0
 26 28  1  0
 26 53  1  6
 27 54  1  0
 28 29  1  0
 28 55  1  6
 29 30  1  0
 29 56  1  0
 29 57  1  0
 30 58  1  0
M  END
>  <i_m_ct_stereo_status>  (70) 
1

>  <s_m_source_file>  (70) 
/var/tmp/pbs.5076255.sched01/tmp0qfm3vo4/0bcu552to.sdf

>  <i_m_source_file_index>  (70) 
27

>  <i_lp_mmshare_version>  (70) 
48012

>  <i_f3d_flags>  (70) 
0

>  <s_epik_input>  (70) 
Tz1bQ0hdQzE9W0NIXS9DKD1DKFxbQ0gzXSlbQ0BASF0oW0NAQEhdMltPSF0pW0NIMl1bT0hdKVtDQEBIXShbQ0BASF0oW0NAXTMoW0NIM10pW09IXSlDNChbT0hdKVtDQF0yKFtPSF0pW0NAQF0xM1tPSF0pQz01W0NAXTQoW0NIM10pW0NASF0oW09IXSlbQ0gyXVtDSF01

>  <s_epik_cmdline>  (70) 
J2VwaWtfcHl0aG9uJywgJy1waHQnLCAnMi4wJywgJy1waCcsICc3LjAnLCAnLXRuJywgJzgnLCAnLW1hJywgJzIwMCcsICctaW1hZScsICc8aW5maWxlLm1hZT4nLCAnLW9tYWUnLCAnPG91dGZpbGUubWFlPic=

>  <r_lp_tautomer_probability>  (70) 
1

>  <r_epik_Ionization_Penalty>  (70) 
3.2273e-05

>  <r_epik_Ionization_Penalty_Charging>  (70) 
0

>  <r_epik_Ionization_Penalty_Neutral>  (70) 
3.2273e-05

>  <r_epik_State_Penalty>  (70) 
-0

>  <r_epik_Charging_Adjusted_Penalty>  (70) 
0

>  <i_epik_Tot_Q>  (70) 
0

>  <i_epik_Tot_abs_Q>  (70) 
0

>  <s_lp_Force_Field>  (70) 
OPLS3e

>  <r_lp_Energy>  (70) 
144.504

>  <b_lp_Chiralities_Consistent>  (70) 
1

>  <s_lp_Variant>  (70) 
16:0-4

>  <s_i_glide_gridfile>  (70) 
pfpi4k_grid

>  <i_i_glide_lignum>  (70) 
27

>  <i_i_glide_rotatable_bonds>  (70) 
9

>  <r_i_docking_score>  (70) 
-3.15825

>  <r_i_glide_ligand_efficiency>  (70) 
-0.105275

>  <r_i_glide_ligand_efficiency_sa>  (70) 
-0.327114

>  <r_i_glide_ligand_efficiency_ln>  (70) 
-0.717588

>  <r_i_glide_gscore>  (70) 
-3.15825

>  <r_i_glide_lipo>  (70) 
-0.032149

>  <r_i_glide_hbond>  (70) 
-0.24164

>  <r_i_glide_metal>  (70) 
-0

>  <r_i_glide_rewards>  (70) 
-0.542366

>  <r_i_glide_evdw>  (70) 
-18.0349

>  <r_i_glide_ecoul>  (70) 
-9.99618

>  <r_i_glide_erotb>  (70) 
0.111961

>  <r_i_glide_esite>  (70) 
-0.0528845

>  <r_i_glide_emodel>  (70) 
-32.9782

>  <r_i_glide_energy>  (70) 
-28.031

>  <r_i_glide_einternal>  (70) 
2.04526

>  <r_i_glide_intrahb_reward>  (70) 
-0

>  <i_i_glide_confnum>  (70) 
6

>  <i_i_glide_posenum>  (70) 
8

>  <r_i_glide_eff_state_penalty>  (70) 
0

>  <ligand_id>  (70) 
16

>  <original_smiles>  (70) 
CC1=C2C=C(C=O)C3(O)C(C)(O)C4C2C2=CCC(O)C2(C)C4(O)C3(O)C(O)C1CO

>  <smiles>  (70) 
[H]OC([H])([H])C1([H])C(C([H])([H])[H])=C2C([H])=C(C([H])=O)C3(O[H])C(O[H])(C([H])([H])[H])C4([H])C2([H])C2=C([H])C([H])([H])C([H])(O[H])C2(C([H])([H])[H])C4(O[H])C3(O[H])C1([H])O[H]

$$$$
16:3:2
     RDKit          3D

 58 62  0  0  1  0  0  0  0  0999 V2000
    1.7278   -1.2915    4.0916 C   0  0  0  0  0  0  0  0  0  0  0  0
    0.9122   -0.0028    3.8860 C   0  0  0  0  0  0  0  0  0  0  0  0
   -0.1605    0.3105    4.6491 C   0  0  0  0  0  0  0  0  0  0  0  0
   -1.1968    1.0330    3.9308 C   0  0  0  0  0  0  0  0  0  0  0  0
   -1.3867    2.3704    3.9508 C   0  0  0  0  0  0  0  0  0  0  0  0
   -2.4196    2.9107    3.0171 C   0  0  0  0  0  0  0  0  0  0  0  0
   -2.7718    4.0835    2.8798 O   0  0  0  0  0  0  0  0  0  0  0  0
   -0.6326    3.2284    4.9744 C   0  0  1  0  0  0  0  0  0  0  0  0
   -0.9279    4.6108    4.8033 O   0  0  0  0  0  0  0  0  0  0  0  0
   -1.1642    2.7679    6.3773 C   0  0  1  0  0  0  0  0  0  0  0  0
   -1.3413    3.9103    7.4051 C   0  0  0  0  0  0  0  0  0  0  0  0
   -2.4385    2.1504    6.4040 O   0  0  0  0  0  0  0  0  0  0  0  0
   -0.1350    1.7120    6.8289 C   0  0  1  0  0  0  0  0  0  0  0  0
   -0.0901    0.2720    6.1911 C   0  0  2  0  0  0  0  0  0  0  0  0
    1.3038   -0.0784    6.6785 C   0  0  0  0  0  0  0  0  0  0  0  0
    1.6253   -1.0461    7.5394 C   0  0  0  0  0  0  0  0  0  0  0  0
    2.8075   -0.6496    8.3729 C   0  0  0  0  0  0  0  0  0  0  0  0
    2.7350    0.8893    8.2122 C   0  0  1  0  0  0  0  0  0  0  0  0
    3.9457    1.5328    8.5466 O   0  0  0  0  0  0  0  0  0  0  0  0
    2.2289    1.1122    6.7449 C   0  0  1  0  0  0  0  0  0  0  0  0
    3.4638    1.0046    5.8374 C   0  0  0  0  0  0  0  0  0  0  0  0
    1.2438    2.2964    6.4523 C   0  0  2  0  0  0  0  0  0  0  0  0
    1.5857    3.2639    7.4265 O   0  0  0  0  0  0  0  0  0  0  0  0
    0.9631    2.9876    4.9982 C   0  0  2  0  0  0  0  0  0  0  0  0
    1.5711    4.2759    5.1339 O   0  0  0  0  0  0  0  0  0  0  0  0
    1.5830    2.4963    3.5719 C   0  0  1  0  0  0  0  0  0  0  0  0
    2.9491    2.8508    3.5342 O   0  0  0  0  0  0  0  0  0  0  0  0
    1.3566    1.0657    2.8739 C   0  0  1  0  0  0  0  0  0  0  0  0
    2.4959    0.6284    1.9213 C   0  0  0  0  0  0  0  0  0  0  0  0
    2.2350   -0.6021    1.2909 O   0  0  0  0  0  0  0  0  0  0  0  0
    1.6344   -1.9397    3.2218 H   0  0  0  0  0  0  0  0  0  0  0  0
    1.3284   -1.9113    4.8874 H   0  0  0  0  0  0  0  0  0  0  0  0
    2.7941   -1.1415    4.2604 H   0  0  0  0  0  0  0  0  0  0  0  0
   -1.7760    0.4463    3.2386 H   0  0  0  0  0  0  0  0  0  0  0  0
   -2.9190    2.1438    2.4239 H   0  0  0  0  0  0  0  0  0  0  0  0
   -0.5913    4.8520    3.9481 H   0  0  0  0  0  0  0  0  0  0  0  0
   -0.4928    4.5919    7.4494 H   0  0  0  0  0  0  0  0  0  0  0  0
   -1.5023    3.5087    8.4050 H   0  0  0  0  0  0  0  0  0  0  0  0
   -2.2072    4.5217    7.1804 H   0  0  0  0  0  0  0  0  0  0  0  0
   -3.0640    2.8077    6.1320 H   0  0  0  0  0  0  0  0  0  0  0  0
   -0.2164    1.5839    7.9082 H   0  0  0  0  0  0  0  0  0  0  0  0
   -0.8674   -0.3973    6.5864 H   0  0  0  0  0  0  0  0  0  0  0  0
    1.0114   -1.9062    7.7919 H   0  0  0  0  0  0  0  0  0  0  0  0
    2.7202   -0.9664    9.4086 H   0  0  0  0  0  0  0  0  0  0  0  0
    3.7260   -1.0761    7.9513 H   0  0  0  0  0  0  0  0  0  0  0  0
    1.9762    1.2389    8.9105 H   0  0  0  0  0  0  0  0  0  0  0  0
    4.1044    1.3897    9.4711 H   0  0  0  0  0  0  0  0  0  0  0  0
    4.0676    1.9090    5.8920 H   0  0  0  0  0  0  0  0  0  0  0  0
    3.2206    0.8439    4.7982 H   0  0  0  0  0  0  0  0  0  0  0  0
    4.1007    0.1646    6.1097 H   0  0  0  0  0  0  0  0  0  0  0  0
    2.4092    3.6490    7.1435 H   0  0  0  0  0  0  0  0  0  0  0  0
    1.5096    4.7069    4.2930 H   0  0  0  0  0  0  0  0  0  0  0  0
    1.1661    3.1911    2.8386 H   0  0  0  0  0  0  0  0  0  0  0  0
    3.2847    2.8128    2.6511 H   0  0  0  0  0  0  0  0  0  0  0  0
    0.5270    1.1899    2.1798 H   0  0  0  0  0  0  0  0  0  0  0  0
    2.6370    1.3796    1.1501 H   0  0  0  0  0  0  0  0  0  0  0  0
    3.4487    0.5265    2.4402 H   0  0  0  0  0  0  0  0  0  0  0  0
    1.5767   -0.5141    0.5840 H   0  0  0  0  0  0  0  0  0  0  0  0
  1  2  1  0
  1 31  1  0
  1 32  1  0
  1 33  1  0
  2 28  1  0
  2  3  2  3
  3 14  1  0
  3  4  1  0
  4  5  2  0
  4 34  1  0
  5  6  1  0
  5  8  1  0
  6  7  2  0
  6 35  1  0
  8 24  1  0
  8  9  1  6
  8 10  1  0
  9 36  1  0
 10 11  1  0
 10 12  1  6
 10 13  1  0
 11 37  1  0
 11 38  1  0
 11 39  1  0
 12 40  1  0
 13 22  1  0
 13 14  1  0
 13 41  1  1
 14 15  1  0
 14 42  1  1
 15 20  1  0
 15 16  2  0
 16 17  1  0
 16 43  1  0
 17 18  1  0
 17 44  1  0
 17 45  1  0
 18 19  1  0
 18 20  1  0
 18 46  1  1
 19 47  1  0
 20 21  1  6
 20 22  1  0
 21 48  1  0
 21 49  1  0
 21 50  1  0
 22 23  1  1
 22 24  1  0
 23 51  1  0
 24 25  1  1
 24 26  1  0
 25 52  1  0
 26 27  1  0
 26 28  1  0
 26 53  1  6
 27 54  1  0
 28 29  1  0
 28 55  1  6
 29 30  1  0
 29 56  1  0
 29 57  1  0
 30 58  1  0
M  END
>  <i_m_ct_stereo_status>  (71) 
1

>  <s_m_source_file>  (71) 
/var/tmp/pbs.5076255.sched01/tmp0qfm3vo4/0bcu552to.sdf

>  <i_m_source_file_index>  (71) 
27

>  <i_lp_mmshare_version>  (71) 
48012

>  <i_f3d_flags>  (71) 
0

>  <s_epik_input>  (71) 
Tz1bQ0hdQzE9W0NIXS9DKD1DKFxbQ0gzXSlbQ0BASF0oW0NAQEhdMltPSF0pW0NIMl1bT0hdKVtDQEBIXShbQ0BASF0oW0NAXTMoW0NIM10pW09IXSlDNChbT0hdKVtDQF0yKFtPSF0pW0NAQF0xM1tPSF0pQz01W0NAXTQoW0NIM10pW0NASF0oW09IXSlbQ0gyXVtDSF01

>  <s_epik_cmdline>  (71) 
J2VwaWtfcHl0aG9uJywgJy1waHQnLCAnMi4wJywgJy1waCcsICc3LjAnLCAnLXRuJywgJzgnLCAnLW1hJywgJzIwMCcsICctaW1hZScsICc8aW5maWxlLm1hZT4nLCAnLW9tYWUnLCAnPG91dGZpbGUubWFlPic=

>  <r_lp_tautomer_probability>  (71) 
1

>  <r_epik_Ionization_Penalty>  (71) 
3.2273e-05

>  <r_epik_Ionization_Penalty_Charging>  (71) 
0

>  <r_epik_Ionization_Penalty_Neutral>  (71) 
3.2273e-05

>  <r_epik_State_Penalty>  (71) 
-0

>  <r_epik_Charging_Adjusted_Penalty>  (71) 
0

>  <i_epik_Tot_Q>  (71) 
0

>  <i_epik_Tot_abs_Q>  (71) 
0

>  <s_lp_Force_Field>  (71) 
OPLS3e

>  <r_lp_Energy>  (71) 
144.504

>  <b_lp_Chiralities_Consistent>  (71) 
1

>  <s_lp_Variant>  (71) 
16:0-4

>  <s_i_glide_gridfile>  (71) 
pfpi4k_grid

>  <i_i_glide_lignum>  (71) 
27

>  <i_i_glide_rotatable_bonds>  (71) 
9

>  <r_i_docking_score>  (71) 
-3.05963

>  <r_i_glide_ligand_efficiency>  (71) 
-0.101988

>  <r_i_glide_ligand_efficiency_sa>  (71) 
-0.3169

>  <r_i_glide_ligand_efficiency_ln>  (71) 
-0.695182

>  <r_i_glide_gscore>  (71) 
-3.05963

>  <r_i_glide_lipo>  (71) 
-0.0353059

>  <r_i_glide_hbond>  (71) 
-0.16

>  <r_i_glide_metal>  (71) 
-0

>  <r_i_glide_rewards>  (71) 
-0.542366

>  <r_i_glide_evdw>  (71) 
-17.9677

>  <r_i_glide_ecoul>  (71) 
-9.97451

>  <r_i_glide_erotb>  (71) 
0.111961

>  <r_i_glide_esite>  (71) 
-0.0393625

>  <r_i_glide_emodel>  (71) 
-32.4683

>  <r_i_glide_energy>  (71) 
-27.9422

>  <r_i_glide_einternal>  (71) 
2.32359

>  <r_i_glide_intrahb_reward>  (71) 
-0

>  <i_i_glide_confnum>  (71) 
6

>  <i_i_glide_posenum>  (71) 
1

>  <r_i_glide_eff_state_penalty>  (71) 
0

>  <ligand_id>  (71) 
16

>  <original_smiles>  (71) 
CC1=C2C=C(C=O)C3(O)C(C)(O)C4C2C2=CCC(O)C2(C)C4(O)C3(O)C(O)C1CO

>  <smiles>  (71) 
[H]OC([H])([H])C1([H])C(C([H])([H])[H])=C2C([H])=C(C([H])=O)C3(O[H])C(O[H])(C([H])([H])[H])C4([H])C2([H])C2=C([H])C([H])([H])C([H])(O[H])C2(C([H])([H])[H])C4(O[H])C3(O[H])C1([H])O[H]

$$$$
17:0:0
     RDKit          3D

 38 40  0  0  1  0  0  0  0  0999 V2000
    2.7455   -0.2752    3.8694 S   0  0  0  0  0  0  0  0  0  0  0  0
    1.8471   -0.3257    2.4510 C   0  0  0  0  0  0  0  0  0  0  0  0
    0.6134    0.1998    2.2525 N   0  0  0  0  0  0  0  0  0  0  0  0
   -0.1791    0.9725    3.1505 C   0  0  0  0  0  0  0  0  0  0  0  0
   -0.7630    2.1642    2.6845 C   0  0  0  0  0  0  0  0  0  0  0  0
   -1.5527    2.9594    3.5366 C   0  0  0  0  0  0  0  0  0  0  0  0
   -1.8046    2.5681    4.8651 C   0  0  0  0  0  0  0  0  0  0  0  0
   -2.5637    3.3450    5.6723 N   0  0  0  0  0  0  0  0  0  0  0  0
   -2.7480    2.9302    6.9456 C   0  0  0  0  0  0  0  0  0  0  0  0
   -2.1850    1.7247    7.4123 C   0  0  0  0  0  0  0  0  0  0  0  0
   -1.4585    0.9279    6.6087 N   0  0  0  0  0  0  0  0  0  0  0  0
   -1.2406    1.3462    5.3406 C   0  0  0  0  0  0  0  0  0  0  0  0
   -0.4613    0.5591    4.4755 C   0  0  0  0  0  0  0  0  0  0  0  0
    2.2602   -0.8900    1.2937 N   0  0  0  0  0  0  0  0  0  0  0  0
    3.5330   -1.5943    1.1011 C   0  0  0  0  0  0  0  0  0  0  0  0
    4.6896   -0.5973    0.8700 C   0  0  0  0  0  0  0  0  0  0  0  0
    6.0145   -1.3255    0.6153 C   0  0  0  0  0  0  0  0  0  0  0  0
    5.8925   -2.2982   -0.5666 C   0  0  0  0  0  0  0  0  0  0  0  0
    4.7491   -3.2988   -0.3417 C   0  0  0  0  0  0  0  0  0  0  0  0
    3.4162   -2.5754   -0.0797 C   0  0  0  0  0  0  0  0  0  0  0  0
    0.2936    0.1946    1.2898 H   0  0  0  0  0  0  0  0  0  0  0  0
   -0.5791    2.5199    1.6809 H   0  0  0  0  0  0  0  0  0  0  0  0
   -1.9690    3.8814    3.1526 H   0  0  0  0  0  0  0  0  0  0  0  0
   -3.3681    3.5372    7.5879 H   0  0  0  0  0  0  0  0  0  0  0  0
   -2.3402    1.3908    8.4282 H   0  0  0  0  0  0  0  0  0  0  0  0
   -0.0462   -0.3610    4.8434 H   0  0  0  0  0  0  0  0  0  0  0  0
    1.6551   -0.8204    0.4618 H   0  0  0  0  0  0  0  0  0  0  0  0
    3.7539   -2.2007    1.9839 H   0  0  0  0  0  0  0  0  0  0  0  0
    4.4488    0.0484    0.0287 H   0  0  0  0  0  0  0  0  0  0  0  0
    4.8146    0.0608    1.7273 H   0  0  0  0  0  0  0  0  0  0  0  0
    6.7982   -0.5946    0.4290 H   0  0  0  0  0  0  0  0  0  0  0  0
    6.3080   -1.8694    1.5138 H   0  0  0  0  0  0  0  0  0  0  0  0
    5.7094   -1.7402   -1.4852 H   0  0  0  0  0  0  0  0  0  0  0  0
    6.8309   -2.8347   -0.7045 H   0  0  0  0  0  0  0  0  0  0  0  0
    4.6444   -3.9498   -1.2090 H   0  0  0  0  0  0  0  0  0  0  0  0
    4.9844   -3.9454    0.5049 H   0  0  0  0  0  0  0  0  0  0  0  0
    2.6298   -3.3078    0.1217 H   0  0  0  0  0  0  0  0  0  0  0  0
    3.1109   -2.0292   -0.9744 H   0  0  0  0  0  0  0  0  0  0  0  0
  1  2  2  0
  2  3  1  0
  2 14  1  0
  3  4  1  0
  3 21  1  0
  4 13  1  0
  4  5  2  0
  5  6  1  0
  5 22  1  0
  6  7  2  0
  6 23  1  0
  7 12  1  0
  7  8  1  0
  8  9  2  0
  9 10  1  0
  9 24  1  0
 10 11  2  0
 10 25  1  0
 11 12  1  0
 12 13  2  0
 13 26  1  0
 14 15  1  0
 14 27  1  0
 15 20  1  0
 15 16  1  0
 15 28  1  0
 16 17  1  0
 16 29  1  0
 16 30  1  0
 17 18  1  0
 17 31  1  0
 17 32  1  0
 18 19  1  0
 18 33  1  0
 18 34  1  0
 19 20  1  0
 19 35  1  0
 19 36  1  0
 20 37  1  0
 20 38  1  0
M  END
>  <i_m_ct_stereo_status>  (72) 
1

>  <s_m_source_file>  (72) 
/var/tmp/pbs.5076255.sched01/tmp0qfm3vo4/0bcu552to.sdf

>  <i_m_source_file_index>  (72) 
28

>  <i_lp_mmshare_version>  (72) 
48012

>  <i_f3d_flags>  (72) 
0

>  <s_epik_input>  (72) 
W0NIMl0xW0NIMl1bQ0gyXVtDSDJdW0NIMl1bQ0hdMVtOSF1DKD1TKVtOSF1jKFtjSF1bY0hdMilbY0hdYyhjMjMpbltjSF1bY0hdbjM=

>  <s_epik_cmdline>  (72) 
J2VwaWtfcHl0aG9uJywgJy1waHQnLCAnMi4wJywgJy1waCcsICc3LjAnLCAnLXRuJywgJzgnLCAnLW1hJywgJzIwMCcsICctaW1hZScsICc8aW5maWxlLm1hZT4nLCAnLW9tYWUnLCAnPG91dGZpbGUubWFlPic=

>  <r_lp_tautomer_probability>  (72) 
1

>  <r_epik_Ionization_Penalty>  (72) 
8.01021e-07

>  <r_epik_Ionization_Penalty_Charging>  (72) 
0

>  <r_epik_Ionization_Penalty_Neutral>  (72) 
8.01021e-07

>  <r_epik_State_Penalty>  (72) 
-0

>  <r_epik_Charging_Adjusted_Penalty>  (72) 
0

>  <i_epik_Tot_Q>  (72) 
0

>  <i_epik_Tot_abs_Q>  (72) 
0

>  <s_lp_Force_Field>  (72) 
OPLS3e

>  <r_lp_Energy>  (72) 
46.8279

>  <b_lp_Chiralities_Consistent>  (72) 
1

>  <s_lp_Variant>  (72) 
17:0-1

>  <s_i_glide_gridfile>  (72) 
pfpi4k_grid

>  <i_i_glide_lignum>  (72) 
28

>  <i_i_glide_rotatable_bonds>  (72) 
4

>  <r_i_docking_score>  (72) 
-4.17185

>  <r_i_glide_ligand_efficiency>  (72) 
-0.208592

>  <r_i_glide_ligand_efficiency_sa>  (72) 
-0.566207

>  <r_i_glide_ligand_efficiency_ln>  (72) 
-1.04408

>  <r_i_glide_gscore>  (72) 
-4.17185

>  <r_i_glide_lipo>  (72) 
-0.460849

>  <r_i_glide_hbond>  (72) 
-0.244832

>  <r_i_glide_metal>  (72) 
-0

>  <r_i_glide_rewards>  (72) 
-1.45639

>  <r_i_glide_evdw>  (72) 
-25.7403

>  <r_i_glide_ecoul>  (72) 
-6.6341

>  <r_i_glide_erotb>  (72) 
0.442788

>  <r_i_glide_esite>  (72) 
-0.170436

>  <r_i_glide_emodel>  (72) 
-41.0875

>  <r_i_glide_energy>  (72) 
-32.3744

>  <r_i_glide_einternal>  (72) 
1.86951

>  <r_i_glide_intrahb_reward>  (72) 
-0

>  <i_i_glide_confnum>  (72) 
4

>  <i_i_glide_posenum>  (72) 
31

>  <r_i_glide_eff_state_penalty>  (72) 
0

>  <ligand_id>  (72) 
17

>  <original_smiles>  (72) 
S=C(Nc1ccc2nccnc2c1)NC1CCCCC1

>  <smiles>  (72) 
[H]c1nc2c([H])c([H])c(N([H])C(=S)N([H])C3([H])C([H])([H])C([H])([H])C([H])([H])C([H])([H])C3([H])[H])c([H])c2nc1[H]

$$$$
17:0:1
     RDKit          3D

 38 40  0  0  1  0  0  0  0  0999 V2000
    3.6417   -0.0539    3.5678 S   0  0  0  0  0  0  0  0  0  0  0  0
    2.6567   -0.4048    2.2560 C   0  0  0  0  0  0  0  0  0  0  0  0
    3.0096   -1.1707    1.1900 N   0  0  0  0  0  0  0  0  0  0  0  0
    4.1785   -1.9662    1.0736 C   0  0  0  0  0  0  0  0  0  0  0  0
    4.4610   -2.9913    2.0040 C   0  0  0  0  0  0  0  0  0  0  0  0
    5.6355   -3.7486    1.8802 C   0  0  0  0  0  0  0  0  0  0  0  0
    6.5357   -3.5195    0.8202 C   0  0  0  0  0  0  0  0  0  0  0  0
    7.6645   -4.2629    0.7287 N   0  0  0  0  0  0  0  0  0  0  0  0
    8.4955   -4.0019   -0.3034 C   0  0  0  0  0  0  0  0  0  0  0  0
    8.2001   -3.0097   -1.2562 C   0  0  0  0  0  0  0  0  0  0  0  0
    7.0831   -2.2585   -1.1708 N   0  0  0  0  0  0  0  0  0  0  0  0
    6.2398   -2.5017   -0.1389 C   0  0  0  0  0  0  0  0  0  0  0  0
    5.0625   -1.7406   -0.0023 C   0  0  0  0  0  0  0  0  0  0  0  0
    1.3920    0.0427    2.0610 N   0  0  0  0  0  0  0  0  0  0  0  0
    0.6660    0.9798    2.9296 C   0  0  0  0  0  0  0  0  0  0  0  0
    0.1640    0.2918    4.2207 C   0  0  0  0  0  0  0  0  0  0  0  0
   -0.6262    1.2615    5.1067 C   0  0  0  0  0  0  0  0  0  0  0  0
   -1.8015    1.8708    4.3401 C   0  0  0  0  0  0  0  0  0  0  0  0
   -1.3322    2.5558    3.0511 C   0  0  0  0  0  0  0  0  0  0  0  0
   -0.5220    1.5920    2.1637 C   0  0  0  0  0  0  0  0  0  0  0  0
    2.3860   -1.1498    0.3913 H   0  0  0  0  0  0  0  0  0  0  0  0
    3.7956   -3.1810    2.8309 H   0  0  0  0  0  0  0  0  0  0  0  0
    5.8571   -4.5204    2.6007 H   0  0  0  0  0  0  0  0  0  0  0  0
    9.3800   -4.6179   -0.3915 H   0  0  0  0  0  0  0  0  0  0  0  0
    8.8684   -2.8238   -2.0847 H   0  0  0  0  0  0  0  0  0  0  0  0
    4.8392   -0.9617   -0.7114 H   0  0  0  0  0  0  0  0  0  0  0  0
    0.9469   -0.2240    1.1889 H   0  0  0  0  0  0  0  0  0  0  0  0
    1.3369    1.8026    3.1878 H   0  0  0  0  0  0  0  0  0  0  0  0
   -0.4539   -0.5665    3.9544 H   0  0  0  0  0  0  0  0  0  0  0  0
    0.9865   -0.0906    4.8231 H   0  0  0  0  0  0  0  0  0  0  0  0
   -0.9863    0.7332    5.9874 H   0  0  0  0  0  0  0  0  0  0  0  0
    0.0323    2.0556    5.4607 H   0  0  0  0  0  0  0  0  0  0  0  0
   -2.5054    1.0804    4.0836 H   0  0  0  0  0  0  0  0  0  0  0  0
   -2.3410    2.5765    4.9730 H   0  0  0  0  0  0  0  0  0  0  0  0
   -2.1925    2.9258    2.4941 H   0  0  0  0  0  0  0  0  0  0  0  0
   -0.7222    3.4273    3.2935 H   0  0  0  0  0  0  0  0  0  0  0  0
   -0.1616    2.1280    1.2822 H   0  0  0  0  0  0  0  0  0  0  0  0
   -1.1795    0.8006    1.7957 H   0  0  0  0  0  0  0  0  0  0  0  0
  1  2  2  0
  2  3  1  0
  2 14  1  0
  3  4  1  0
  3 21  1  0
  4 13  1  0
  4  5  2  0
  5  6  1  0
  5 22  1  0
  6  7  2  0
  6 23  1  0
  7 12  1  0
  7  8  1  0
  8  9  2  0
  9 10  1  0
  9 24  1  0
 10 11  2  0
 10 25  1  0
 11 12  1  0
 12 13  2  0
 13 26  1  0
 14 15  1  0
 14 27  1  0
 15 20  1  0
 15 16  1  0
 15 28  1  0
 16 17  1  0
 16 29  1  0
 16 30  1  0
 17 18  1  0
 17 31  1  0
 17 32  1  0
 18 19  1  0
 18 33  1  0
 18 34  1  0
 19 20  1  0
 19 35  1  0
 19 36  1  0
 20 37  1  0
 20 38  1  0
M  END
>  <i_m_ct_stereo_status>  (73) 
1

>  <s_m_source_file>  (73) 
/var/tmp/pbs.5076255.sched01/tmp0qfm3vo4/0bcu552to.sdf

>  <i_m_source_file_index>  (73) 
28

>  <i_lp_mmshare_version>  (73) 
48012

>  <i_f3d_flags>  (73) 
0

>  <s_epik_input>  (73) 
W0NIMl0xW0NIMl1bQ0gyXVtDSDJdW0NIMl1bQ0hdMVtOSF1DKD1TKVtOSF1jKFtjSF1bY0hdMilbY0hdYyhjMjMpbltjSF1bY0hdbjM=

>  <s_epik_cmdline>  (73) 
J2VwaWtfcHl0aG9uJywgJy1waHQnLCAnMi4wJywgJy1waCcsICc3LjAnLCAnLXRuJywgJzgnLCAnLW1hJywgJzIwMCcsICctaW1hZScsICc8aW5maWxlLm1hZT4nLCAnLW9tYWUnLCAnPG91dGZpbGUubWFlPic=

>  <r_lp_tautomer_probability>  (73) 
1

>  <r_epik_Ionization_Penalty>  (73) 
8.01021e-07

>  <r_epik_Ionization_Penalty_Charging>  (73) 
0

>  <r_epik_Ionization_Penalty_Neutral>  (73) 
8.01021e-07

>  <r_epik_State_Penalty>  (73) 
-0

>  <r_epik_Charging_Adjusted_Penalty>  (73) 
0

>  <i_epik_Tot_Q>  (73) 
0

>  <i_epik_Tot_abs_Q>  (73) 
0

>  <s_lp_Force_Field>  (73) 
OPLS3e

>  <r_lp_Energy>  (73) 
46.8279

>  <b_lp_Chiralities_Consistent>  (73) 
1

>  <s_lp_Variant>  (73) 
17:0-1

>  <s_i_glide_gridfile>  (73) 
pfpi4k_grid

>  <i_i_glide_lignum>  (73) 
28

>  <i_i_glide_rotatable_bonds>  (73) 
4

>  <r_i_docking_score>  (73) 
-3.95789

>  <r_i_glide_ligand_efficiency>  (73) 
-0.197895

>  <r_i_glide_ligand_efficiency_sa>  (73) 
-0.537169

>  <r_i_glide_ligand_efficiency_ln>  (73) 
-0.99053

>  <r_i_glide_gscore>  (73) 
-3.95789

>  <r_i_glide_lipo>  (73) 
-0.153268

>  <r_i_glide_hbond>  (73) 
-0.428304

>  <r_i_glide_metal>  (73) 
-0

>  <r_i_glide_rewards>  (73) 
-1.46036

>  <r_i_glide_evdw>  (73) 
-25.5503

>  <r_i_glide_ecoul>  (73) 
-6.29456

>  <r_i_glide_erotb>  (73) 
0.442788

>  <r_i_glide_esite>  (73) 
-0.137051

>  <r_i_glide_emodel>  (73) 
-39.7765

>  <r_i_glide_energy>  (73) 
-31.8448

>  <r_i_glide_einternal>  (73) 
2.34674

>  <r_i_glide_intrahb_reward>  (73) 
-0

>  <i_i_glide_confnum>  (73) 
4

>  <i_i_glide_posenum>  (73) 
13

>  <r_i_glide_eff_state_penalty>  (73) 
0

>  <ligand_id>  (73) 
17

>  <original_smiles>  (73) 
S=C(Nc1ccc2nccnc2c1)NC1CCCCC1

>  <smiles>  (73) 
[H]c1nc2c([H])c([H])c(N([H])C(=S)N([H])C3([H])C([H])([H])C([H])([H])C([H])([H])C([H])([H])C3([H])[H])c([H])c2nc1[H]

$$$$
17:0:2
     RDKit          3D

 38 40  0  0  1  0  0  0  0  0999 V2000
    2.9564   -0.6227    3.9520 S   0  0  0  0  0  0  0  0  0  0  0  0
    2.3093   -0.5220    2.4043 C   0  0  0  0  0  0  0  0  0  0  0  0
    2.7762   -1.1401    1.2844 N   0  0  0  0  0  0  0  0  0  0  0  0
    3.9382   -1.9540    1.1458 C   0  0  0  0  0  0  0  0  0  0  0  0
    4.2041   -3.0191    2.0344 C   0  0  0  0  0  0  0  0  0  0  0  0
    5.3755   -3.7748    1.9028 C   0  0  0  0  0  0  0  0  0  0  0  0
    6.2756   -3.5354    0.8533 C   0  0  0  0  0  0  0  0  0  0  0  0
    7.3973   -4.2863    0.7592 N   0  0  0  0  0  0  0  0  0  0  0  0
    8.2332   -4.0270   -0.2659 C   0  0  0  0  0  0  0  0  0  0  0  0
    7.9545   -3.0203   -1.2080 C   0  0  0  0  0  0  0  0  0  0  0  0
    6.8461   -2.2547   -1.1168 N   0  0  0  0  0  0  0  0  0  0  0  0
    5.9921   -2.4984   -0.0908 C   0  0  0  0  0  0  0  0  0  0  0  0
    4.8176   -1.7269    0.0647 C   0  0  0  0  0  0  0  0  0  0  0  0
    1.2251    0.2224    2.0678 N   0  0  0  0  0  0  0  0  0  0  0  0
    0.4554    1.0574    2.9951 C   0  0  0  0  0  0  0  0  0  0  0  0
   -0.9482    1.3001    2.4295 C   0  0  0  0  0  0  0  0  0  0  0  0
   -1.7837    2.1990    3.3557 C   0  0  0  0  0  0  0  0  0  0  0  0
   -1.0724    3.5258    3.6402 C   0  0  0  0  0  0  0  0  0  0  0  0
    0.3358    3.2933    4.2008 C   0  0  0  0  0  0  0  0  0  0  0  0
    1.1703    2.4004    3.2703 C   0  0  0  0  0  0  0  0  0  0  0  0
    2.2703   -0.9470    0.4289 H   0  0  0  0  0  0  0  0  0  0  0  0
    3.5296   -3.2499    2.8430 H   0  0  0  0  0  0  0  0  0  0  0  0
    5.5848   -4.5523    2.6196 H   0  0  0  0  0  0  0  0  0  0  0  0
    9.1016   -4.6655   -0.3564 H   0  0  0  0  0  0  0  0  0  0  0  0
    8.6245   -2.8381   -2.0363 H   0  0  0  0  0  0  0  0  0  0  0  0
    4.6102   -0.9368   -0.6441 H   0  0  0  0  0  0  0  0  0  0  0  0
    0.9523    0.2280    1.0926 H   0  0  0  0  0  0  0  0  0  0  0  0
    0.3242    0.5241    3.9386 H   0  0  0  0  0  0  0  0  0  0  0  0
   -0.8566    1.7444    1.4393 H   0  0  0  0  0  0  0  0  0  0  0  0
   -1.4595    0.3484    2.2930 H   0  0  0  0  0  0  0  0  0  0  0  0
   -2.7504    2.3859    2.8911 H   0  0  0  0  0  0  0  0  0  0  0  0
   -1.9792    1.6729    4.2897 H   0  0  0  0  0  0  0  0  0  0  0  0
   -1.0009    4.0959    2.7158 H   0  0  0  0  0  0  0  0  0  0  0  0
   -1.6611    4.1265    4.3284 H   0  0  0  0  0  0  0  0  0  0  0  0
    0.8450    4.2458    4.3365 H   0  0  0  0  0  0  0  0  0  0  0  0
    0.2666    2.8289    5.1840 H   0  0  0  0  0  0  0  0  0  0  0  0
    2.1483    2.2431    3.7252 H   0  0  0  0  0  0  0  0  0  0  0  0
    1.3599    2.9156    2.3281 H   0  0  0  0  0  0  0  0  0  0  0  0
  1  2  2  0
  2  3  1  0
  2 14  1  0
  3  4  1  0
  3 21  1  0
  4 13  1  0
  4  5  2  0
  5  6  1  0
  5 22  1  0
  6  7  2  0
  6 23  1  0
  7 12  1  0
  7  8  1  0
  8  9  2  0
  9 10  1  0
  9 24  1  0
 10 11  2  0
 10 25  1  0
 11 12  1  0
 12 13  2  0
 13 26  1  0
 14 15  1  0
 14 27  1  0
 15 20  1  0
 15 16  1  0
 15 28  1  0
 16 17  1  0
 16 29  1  0
 16 30  1  0
 17 18  1  0
 17 31  1  0
 17 32  1  0
 18 19  1  0
 18 33  1  0
 18 34  1  0
 19 20  1  0
 19 35  1  0
 19 36  1  0
 20 37  1  0
 20 38  1  0
M  END
>  <i_m_ct_stereo_status>  (74) 
1

>  <s_m_source_file>  (74) 
/var/tmp/pbs.5076255.sched01/tmp0qfm3vo4/0bcu552to.sdf

>  <i_m_source_file_index>  (74) 
28

>  <i_lp_mmshare_version>  (74) 
48012

>  <i_f3d_flags>  (74) 
0

>  <s_epik_input>  (74) 
W0NIMl0xW0NIMl1bQ0gyXVtDSDJdW0NIMl1bQ0hdMVtOSF1DKD1TKVtOSF1jKFtjSF1bY0hdMilbY0hdYyhjMjMpbltjSF1bY0hdbjM=

>  <s_epik_cmdline>  (74) 
J2VwaWtfcHl0aG9uJywgJy1waHQnLCAnMi4wJywgJy1waCcsICc3LjAnLCAnLXRuJywgJzgnLCAnLW1hJywgJzIwMCcsICctaW1hZScsICc8aW5maWxlLm1hZT4nLCAnLW9tYWUnLCAnPG91dGZpbGUubWFlPic=

>  <r_lp_tautomer_probability>  (74) 
1

>  <r_epik_Ionization_Penalty>  (74) 
8.01021e-07

>  <r_epik_Ionization_Penalty_Charging>  (74) 
0

>  <r_epik_Ionization_Penalty_Neutral>  (74) 
8.01021e-07

>  <r_epik_State_Penalty>  (74) 
-0

>  <r_epik_Charging_Adjusted_Penalty>  (74) 
0

>  <i_epik_Tot_Q>  (74) 
0

>  <i_epik_Tot_abs_Q>  (74) 
0

>  <s_lp_Force_Field>  (74) 
OPLS3e

>  <r_lp_Energy>  (74) 
46.8279

>  <b_lp_Chiralities_Consistent>  (74) 
1

>  <s_lp_Variant>  (74) 
17:0-1

>  <s_i_glide_gridfile>  (74) 
pfpi4k_grid

>  <i_i_glide_lignum>  (74) 
28

>  <i_i_glide_rotatable_bonds>  (74) 
4

>  <r_i_docking_score>  (74) 
-3.91015

>  <r_i_glide_ligand_efficiency>  (74) 
-0.195507

>  <r_i_glide_ligand_efficiency_sa>  (74) 
-0.530689

>  <r_i_glide_ligand_efficiency_ln>  (74) 
-0.978581

>  <r_i_glide_gscore>  (74) 
-3.91015

>  <r_i_glide_lipo>  (74) 
-0.223265

>  <r_i_glide_hbond>  (74) 
-0.391317

>  <r_i_glide_metal>  (74) 
-0

>  <r_i_glide_rewards>  (74) 
-1.45639

>  <r_i_glide_evdw>  (74) 
-25.3729

>  <r_i_glide_ecoul>  (74) 
-5.80093

>  <r_i_glide_erotb>  (74) 
0.442788

>  <r_i_glide_esite>  (74) 
-0.14318

>  <r_i_glide_emodel>  (74) 
-39.6703

>  <r_i_glide_energy>  (74) 
-31.1738

>  <r_i_glide_einternal>  (74) 
0.821955

>  <r_i_glide_intrahb_reward>  (74) 
-0

>  <i_i_glide_confnum>  (74) 
1

>  <i_i_glide_posenum>  (74) 
11

>  <r_i_glide_eff_state_penalty>  (74) 
0

>  <ligand_id>  (74) 
17

>  <original_smiles>  (74) 
S=C(Nc1ccc2nccnc2c1)NC1CCCCC1

>  <smiles>  (74) 
[H]c1nc2c([H])c([H])c(N([H])C(=S)N([H])C3([H])C([H])([H])C([H])([H])C([H])([H])C([H])([H])C3([H])[H])c([H])c2nc1[H]

$$$$
18:0:0
     RDKit          3D

 84 92  0  0  1  0  0  0  0  0999 V2000
   -0.5556   -7.4513    3.6290 C   0  0  0  0  0  0  0  0  0  0  0  0
    0.9355   -7.1595    3.2651 C   0  0  2  0  0  0  0  0  0  0  0  0
    1.2475   -8.1061    2.0697 C   0  0  0  0  0  0  0  0  0  0  0  0
    1.2814   -9.6295    2.5003 C   0  0  0  0  0  0  0  0  0  0  0  0
    2.1515   -9.9989    3.7551 C   0  0  0  0  0  0  0  0  0  0  0  0
    2.7014  -11.0952    3.8180 O   0  0  0  0  0  0  0  0  0  0  0  0
    2.2806   -8.9712    4.9320 C   0  0  2  0  0  0  0  0  0  0  0  0
    1.3786   -9.4857    6.0898 C   0  0  0  0  0  0  0  0  0  0  0  0
    1.9378   -7.7228    4.2168 C   0  0  1  0  0  0  0  0  0  0  0  0
    3.3309   -7.1502    3.8838 C   0  0  2  0  0  0  0  0  0  0  0  0
    4.4370   -8.1756    3.4072 C   0  0  0  0  0  0  0  0  0  0  0  0
    4.8173   -8.8120    4.7132 C   0  0  0  0  0  0  0  0  0  0  0  0
    3.6627   -8.2258    5.5155 C   0  0  1  0  0  0  0  0  0  0  0  0
    3.6179   -6.5845    5.2155 C   0  0  2  0  0  0  0  0  0  0  0  0
    2.4382   -5.8921    6.0058 C   0  0  0  0  0  0  0  0  0  0  0  0
    1.2883   -5.2355    5.1066 C   0  0  0  0  0  0  0  0  0  0  0  0
    1.2275   -5.5247    3.5170 C   0  0  1  0  0  0  0  0  0  0  0  0
    2.1920   -4.4357    2.7080 C   0  0  1  0  0  0  0  0  0  0  0  0
    2.3988   -3.0707    3.4722 C   0  0  1  0  0  0  0  0  0  0  0  0
    1.1974   -2.3811    3.7706 O   0  0  0  0  0  0  0  0  0  0  0  0
    3.4679   -2.8693    4.5771 C   0  0  1  0  0  0  0  0  0  0  0  0
    3.2717   -3.3768    5.8995 O   0  0  0  0  0  0  0  0  0  0  0  0
    4.4320   -3.8725    5.2424 C   0  0  1  0  0  0  0  0  0  0  0  0
    4.7624   -5.4126    5.0126 C   0  0  1  0  0  0  0  0  0  0  0  0
    5.8256   -5.7467    6.0869 C   0  0  0  0  0  0  0  0  0  0  0  0
    5.4828   -5.2838    3.6123 C   0  0  0  0  0  0  0  0  0  0  0  0
    4.9072   -4.5110    2.3366 C   0  0  2  0  0  0  0  0  0  0  0  0
    5.2759   -3.1437    2.5455 O   0  0  0  0  0  0  0  0  0  0  0  0
    5.5204   -2.3185    1.4565 C   0  0  1  0  0  0  0  0  0  0  0  0
    6.7498   -2.6008    0.8375 O   0  0  0  0  0  0  0  0  0  0  0  0
    4.3418   -2.3439    0.4844 C   0  0  2  0  0  0  0  0  0  0  0  0
    3.7108   -1.0827    0.3599 O   0  0  0  0  0  0  0  0  0  0  0  0
    3.3242   -3.4773    0.5798 C   0  0  2  0  0  0  0  0  0  0  0  0
    3.4466   -4.6185    1.6624 C   0  0  2  0  0  0  0  0  0  0  0  0
    3.3178   -5.8905    0.7836 C   0  0  0  0  0  0  0  0  0  0  0  0
    4.1443   -3.2520   -0.7193 C   0  0  0  0  0  0  0  0  0  0  0  0
    3.3843   -2.7690   -1.9480 C   0  0  0  0  0  0  0  0  0  0  0  0
    5.2803   -4.1255   -1.2402 C   0  0  0  0  0  0  0  0  0  0  0  0
   -1.2096   -7.1862    2.7993 H   0  0  0  0  0  0  0  0  0  0  0  0
   -0.9116   -6.9089    4.5012 H   0  0  0  0  0  0  0  0  0  0  0  0
   -0.7280   -8.5041    3.8500 H   0  0  0  0  0  0  0  0  0  0  0  0
    0.5282   -7.9577    1.2649 H   0  0  0  0  0  0  0  0  0  0  0  0
    2.2182   -7.9477    1.6319 H   0  0  0  0  0  0  0  0  0  0  0  0
    0.2727   -9.9904    2.6856 H   0  0  0  0  0  0  0  0  0  0  0  0
    1.6490  -10.2161    1.6617 H   0  0  0  0  0  0  0  0  0  0  0  0
    1.0897   -8.7124    6.8016 H   0  0  0  0  0  0  0  0  0  0  0  0
    1.9103  -10.2543    6.6536 H   0  0  0  0  0  0  0  0  0  0  0  0
    0.4641   -9.9441    5.7106 H   0  0  0  0  0  0  0  0  0  0  0  0
    1.2839   -7.5112    5.0310 H   0  0  0  0  0  0  0  0  0  0  0  0
    3.3350   -6.4314    3.1399 H   0  0  0  0  0  0  0  0  0  0  0  0
    4.0811   -8.8805    2.6654 H   0  0  0  0  0  0  0  0  0  0  0  0
    5.3055   -7.8182    2.8810 H   0  0  0  0  0  0  0  0  0  0  0  0
    4.8230   -9.9025    4.6831 H   0  0  0  0  0  0  0  0  0  0  0  0
    5.7950   -8.4892    5.0624 H   0  0  0  0  0  0  0  0  0  0  0  0
    3.8066   -8.4286    6.5766 H   0  0  0  0  0  0  0  0  0  0  0  0
    1.9797   -6.6249    6.6682 H   0  0  0  0  0  0  0  0  0  0  0  0
    2.7896   -5.2793    6.8271 H   0  0  0  0  0  0  0  0  0  0  0  0
    0.3567   -5.5950    5.5401 H   0  0  0  0  0  0  0  0  0  0  0  0
    1.1659   -4.1895    5.3516 H   0  0  0  0  0  0  0  0  0  0  0  0
    0.2422   -5.1175    3.2789 H   0  0  0  0  0  0  0  0  0  0  0  0
    1.4210   -4.1732    1.9934 H   0  0  0  0  0  0  0  0  0  0  0  0
    2.7650   -2.3838    2.7188 H   0  0  0  0  0  0  0  0  0  0  0  0
    0.7823   -2.1279    2.9621 H   0  0  0  0  0  0  0  0  0  0  0  0
    3.8251   -1.8419    4.5893 H   0  0  0  0  0  0  0  0  0  0  0  0
    5.3293   -3.3485    5.5710 H   0  0  0  0  0  0  0  0  0  0  0  0
    6.6175   -4.9990    6.1541 H   0  0  0  0  0  0  0  0  0  0  0  0
    6.3429   -6.6784    5.8885 H   0  0  0  0  0  0  0  0  0  0  0  0
    5.3798   -5.8250    7.0782 H   0  0  0  0  0  0  0  0  0  0  0  0
    6.3451   -4.6659    3.8518 H   0  0  0  0  0  0  0  0  0  0  0  0
    6.0740   -6.1462    3.3460 H   0  0  0  0  0  0  0  0  0  0  0  0
    5.5933   -4.8701    1.5785 H   0  0  0  0  0  0  0  0  0  0  0  0
    5.6416   -1.3152    1.8734 H   0  0  0  0  0  0  0  0  0  0  0  0
    6.6716   -3.4429    0.4154 H   0  0  0  0  0  0  0  0  0  0  0  0
    2.8801   -1.1777   -0.0964 H   0  0  0  0  0  0  0  0  0  0  0  0
    2.2846   -3.2030    0.4046 H   0  0  0  0  0  0  0  0  0  0  0  0
    3.7595   -5.7965   -0.1989 H   0  0  0  0  0  0  0  0  0  0  0  0
    2.2733   -6.1249    0.5787 H   0  0  0  0  0  0  0  0  0  0  0  0
    3.8554   -6.7469    1.1813 H   0  0  0  0  0  0  0  0  0  0  0  0
    2.9729   -3.6133   -2.5065 H   0  0  0  0  0  0  0  0  0  0  0  0
    4.0425   -2.2012   -2.6066 H   0  0  0  0  0  0  0  0  0  0  0  0
    2.5543   -2.1265   -1.6702 H   0  0  0  0  0  0  0  0  0  0  0  0
    4.8960   -4.8878   -1.9237 H   0  0  0  0  0  0  0  0  0  0  0  0
    5.8161   -4.6462   -0.4558 H   0  0  0  0  0  0  0  0  0  0  0  0
    5.9878   -3.5176   -1.8094 H   0  0  0  0  0  0  0  0  0  0  0  0
  2  1  1  1
  1 39  1  0
  1 40  1  0
  1 41  1  0
  2  9  1  0
  2 17  1  0
  2  3  1  0
  3  4  1  0
  3 42  1  0
  3 43  1  0
  4  5  1  0
  4 44  1  0
  4 45  1  0
  5  6  2  0
  5  7  1  0
  7 13  1  0
  7  8  1  1
  7  9  1  0
  8 46  1  0
  8 47  1  0
  8 48  1  0
  9 10  1  0
  9 49  1  1
 10 14  1  0
 10 11  1  0
 10 50  1  6
 11 12  1  0
 11 51  1  0
 11 52  1  0
 12 13  1  0
 12 53  1  0
 12 54  1  0
 13 14  1  0
 13 55  1  1
 14 24  1  0
 14 15  1  1
 15 16  1  0
 15 56  1  0
 15 57  1  0
 16 17  1  0
 16 58  1  0
 16 59  1  0
 17 18  1  0
 17 60  1  6
 18 34  1  0
 18 19  1  0
 18 61  1  6
 19 20  1  0
 19 21  1  0
 19 62  1  6
 20 63  1  0
 21 23  1  0
 21 22  1  0
 21 64  1  1
 22 23  1  0
 23 24  1  0
 23 65  1  1
 24 25  1  1
 24 26  1  0
 25 66  1  0
 25 67  1  0
 25 68  1  0
 26 27  1  0
 26 69  1  0
 26 70  1  0
 27 34  1  0
 27 28  1  0
 27 71  1  6
 28 29  1  0
 29 30  1  0
 29 31  1  0
 29 72  1  1
 30 73  1  0
 31 36  1  0
 31 32  1  6
 31 33  1  0
 32 74  1  0
 33 34  1  0
 33 36  1  0
 33 75  1  6
 34 35  1  6
 35 76  1  0
 35 77  1  0
 35 78  1  0
 36 37  1  0
 36 38  1  0
 37 79  1  0
 37 80  1  0
 37 81  1  0
 38 82  1  0
 38 83  1  0
 38 84  1  0
M  END
>  <i_m_ct_stereo_status>  (75) 
1

>  <s_m_source_file>  (75) 
/var/tmp/pbs.5076255.sched01/tmp0qfm3vo4/0bcu552to.sdf

>  <i_m_source_file_index>  (75) 
29

>  <i_lp_mmshare_version>  (75) 
48012

>  <i_f3d_flags>  (75) 
0

>  <s_epik_input>  (75) 
W0NIMl0xW0NIMl1bQ0BASF0yW0NAXTMoW0NIM10pQyg9TylbQ0gyXVtDSDJdW0NAQF0oW0NIM10pKFtDQEBIXTNbQ0BIXTFbQ0BdMjQ1KVtDQEBIXShbQ0gyXVtDSDJdNClbQ0BASF02W0NAXTcoW0NIM10pW0NASF0oW0NIMl1bQ0BAXTUoW0NIM10pW0NASF04W0NASF0oTzgpW0NAQEhdNltPSF0pT1tDQEBIXShbT0hdKUM5KFtPSF0pW0NASF03QzkoW0NIM10pW0NIM10=

>  <s_epik_cmdline>  (75) 
J2VwaWtfcHl0aG9uJywgJy1waHQnLCAnMi4wJywgJy1waCcsICc3LjAnLCAnLXRuJywgJzgnLCAnLW1hJywgJzIwMCcsICctaW1hZScsICc8aW5maWxlLm1hZT4nLCAnLW9tYWUnLCAnPG91dGZpbGUubWFlPic=

>  <r_lp_tautomer_probability>  (75) 
1

>  <r_epik_Ionization_Penalty>  (75) 
1.80318e-07

>  <r_epik_Ionization_Penalty_Charging>  (75) 
0

>  <r_epik_Ionization_Penalty_Neutral>  (75) 
1.80318e-07

>  <r_epik_State_Penalty>  (75) 
-0

>  <r_epik_Charging_Adjusted_Penalty>  (75) 
0

>  <i_epik_Tot_Q>  (75) 
0

>  <i_epik_Tot_abs_Q>  (75) 
0

>  <s_epik_Chemistry_Notes>  (75) 
This compound contains an acetal/aminal-like group ( X-CH(R)-Y where X, Y are N, S, or O) that may be acid/base labile, releasing an aldehyde.

>  <s_lp_Force_Field>  (75) 
OPLS3e

>  <r_lp_Energy>  (75) 
392.716

>  <b_lp_Chiralities_Consistent>  (75) 
1

>  <s_lp_Variant>  (75) 
18:0-1

>  <s_i_glide_gridfile>  (75) 
pfpi4k_grid

>  <i_i_glide_lignum>  (75) 
29

>  <i_i_glide_rotatable_bonds>  (75) 
3

>  <r_i_docking_score>  (75) 
-2.36982

>  <r_i_glide_ligand_efficiency>  (75) 
-0.0623636

>  <r_i_glide_ligand_efficiency_sa>  (75) 
-0.209665

>  <r_i_glide_ligand_efficiency_ln>  (75) 
-0.511002

>  <r_i_glide_gscore>  (75) 
-2.36982

>  <r_i_glide_lipo>  (75) 
-0.159261

>  <r_i_glide_hbond>  (75) 
0

>  <r_i_glide_metal>  (75) 
-0

>  <r_i_glide_rewards>  (75) 
-0.101169

>  <r_i_glide_evdw>  (75) 
-31.5405

>  <r_i_glide_ecoul>  (75) 
-3.52353

>  <r_i_glide_erotb>  (75) 
0

>  <r_i_glide_esite>  (75) 
-0.00383357

>  <r_i_glide_emodel>  (75) 
-39.4933

>  <r_i_glide_energy>  (75) 
-35.064

>  <r_i_glide_einternal>  (75) 
0.739963

>  <r_i_glide_intrahb_reward>  (75) 
-0

>  <i_i_glide_confnum>  (75) 
2

>  <i_i_glide_posenum>  (75) 
5

>  <r_i_glide_eff_state_penalty>  (75) 
0

>  <ligand_id>  (75) 
18

>  <original_smiles>  (75) 
CC12CCC(=O)C3(C)C1C1CCC3C13CCC2C1C(O)C2OC2C3(C)CC2OC(O)C3(O)C(C21C)C3(C)C

>  <smiles>  (75) 
[H]OC1([H])OC2([H])C([H])([H])C3(C([H])([H])[H])C4([H])OC4([H])C([H])(O[H])C([H])(C4([H])C([H])([H])C([H])([H])C35C3([H])C([H])([H])C([H])([H])C5([H])C5(C([H])([H])[H])C(=O)C([H])([H])C([H])([H])C4(C([H])([H])[H])C35[H])C2(C([H])([H])[H])C2([H])C1(O[H])C2(C([H])([H])[H])C([H])([H])[H]

$$$$
18:0:1
     RDKit          3D

 84 92  0  0  1  0  0  0  0  0999 V2000
    0.8108   -6.2814    6.4383 C   0  0  0  0  0  0  0  0  0  0  0  0
    1.4161   -6.3262    5.0013 C   0  0  2  0  0  0  0  0  0  0  0  0
    0.2177   -6.0105    4.0585 C   0  0  0  0  0  0  0  0  0  0  0  0
   -0.8458   -7.1801    4.0273 C   0  0  0  0  0  0  0  0  0  0  0  0
   -0.2963   -8.6310    3.7656 C   0  0  0  0  0  0  0  0  0  0  0  0
   -0.9650   -9.4149    3.1025 O   0  0  0  0  0  0  0  0  0  0  0  0
    1.1092   -9.0363    4.3455 C   0  0  2  0  0  0  0  0  0  0  0  0
    0.8657   -9.9198    5.6028 C   0  0  0  0  0  0  0  0  0  0  0  0
    1.7165   -7.6947    4.4885 C   0  0  1  0  0  0  0  0  0  0  0  0
    2.5364   -7.5734    3.1878 C   0  0  2  0  0  0  0  0  0  0  0  0
    1.8708   -8.1178    1.8658 C   0  0  0  0  0  0  0  0  0  0  0  0
    2.0447   -9.5968    2.0486 C   0  0  0  0  0  0  0  0  0  0  0  0
    2.4687   -9.5308    3.5048 C   0  0  1  0  0  0  0  0  0  0  0  0
    3.6853   -8.3913    3.6121 C   0  0  2  0  0  0  0  0  0  0  0  0
    4.1890   -8.2429    5.1026 C   0  0  0  0  0  0  0  0  0  0  0  0
    3.9396   -6.8153    5.7855 C   0  0  0  0  0  0  0  0  0  0  0  0
    2.9842   -5.7197    5.0733 C   0  0  1  0  0  0  0  0  0  0  0  0
    3.8717   -4.8096    4.0005 C   0  0  1  0  0  0  0  0  0  0  0  0
    5.4104   -4.7460    4.3342 C   0  0  1  0  0  0  0  0  0  0  0  0
    5.6957   -4.1977    5.6101 O   0  0  0  0  0  0  0  0  0  0  0  0
    6.4346   -5.8489    3.9312 C   0  0  1  0  0  0  0  0  0  0  0  0
    6.5149   -7.0804    4.6501 O   0  0  0  0  0  0  0  0  0  0  0  0
    6.2318   -7.2195    3.2584 C   0  0  1  0  0  0  0  0  0  0  0  0
    4.9710   -7.9756    2.6629 C   0  0  1  0  0  0  0  0  0  0  0  0
    5.5296   -9.3356    2.1742 C   0  0  0  0  0  0  0  0  0  0  0  0
    4.7307   -7.0505    1.4000 C   0  0  0  0  0  0  0  0  0  0  0  0
    4.6058   -5.4587    1.4275 C   0  0  2  0  0  0  0  0  0  0  0  0
    5.9563   -4.9856    1.3820 O   0  0  0  0  0  0  0  0  0  0  0  0
    6.2499   -3.7746    0.7731 C   0  0  1  0  0  0  0  0  0  0  0  0
    6.1777   -3.8556   -0.6246 O   0  0  0  0  0  0  0  0  0  0  0  0
    5.3703   -2.6652    1.3527 C   0  0  2  0  0  0  0  0  0  0  0  0
    6.0991   -1.6399    1.9833 O   0  0  0  0  0  0  0  0  0  0  0  0
    4.1256   -3.0245    2.1423 C   0  0  2  0  0  0  0  0  0  0  0  0
    3.7099   -4.5241    2.3897 C   0  0  2  0  0  0  0  0  0  0  0  0
    2.2412   -4.4965    1.9353 C   0  0  0  0  0  0  0  0  0  0  0  0
    4.0272   -2.1635    0.8513 C   0  0  0  0  0  0  0  0  0  0  0  0
    3.6411   -0.6936    1.0342 C   0  0  0  0  0  0  0  0  0  0  0  0
    3.4853   -2.6050   -0.5040 C   0  0  0  0  0  0  0  0  0  0  0  0
    0.4459   -5.2807    6.6697 H   0  0  0  0  0  0  0  0  0  0  0  0
    1.5152   -6.5455    7.2272 H   0  0  0  0  0  0  0  0  0  0  0  0
   -0.0302   -6.9642    6.5592 H   0  0  0  0  0  0  0  0  0  0  0  0
   -0.2378   -5.0644    4.3452 H   0  0  0  0  0  0  0  0  0  0  0  0
    0.5128   -5.9045    3.0310 H   0  0  0  0  0  0  0  0  0  0  0  0
   -1.4179   -7.2021    4.9512 H   0  0  0  0  0  0  0  0  0  0  0  0
   -1.5736   -6.9719    3.2483 H   0  0  0  0  0  0  0  0  0  0  0  0
    1.7168   -9.9567    6.2861 H   0  0  0  0  0  0  0  0  0  0  0  0
    0.6682  -10.9489    5.3008 H   0  0  0  0  0  0  0  0  0  0  0  0
   -0.0007   -9.5850    6.1727 H   0  0  0  0  0  0  0  0  0  0  0  0
    2.0189   -8.0005    5.4663 H   0  0  0  0  0  0  0  0  0  0  0  0
    2.8174   -6.6096    2.9389 H   0  0  0  0  0  0  0  0  0  0  0  0
    0.8371   -7.8195    1.7350 H   0  0  0  0  0  0  0  0  0  0  0  0
    2.2446   -7.7890    0.9094 H   0  0  0  0  0  0  0  0  0  0  0  0
    1.1316  -10.1726    1.8877 H   0  0  0  0  0  0  0  0  0  0  0  0
    2.7998  -10.0103    1.3906 H   0  0  0  0  0  0  0  0  0  0  0  0
    2.8115  -10.5118    3.8352 H   0  0  0  0  0  0  0  0  0  0  0  0
    3.7118   -9.0043    5.7178 H   0  0  0  0  0  0  0  0  0  0  0  0
    5.1731   -8.6627    5.2536 H   0  0  0  0  0  0  0  0  0  0  0  0
    3.5051   -7.0457    6.7582 H   0  0  0  0  0  0  0  0  0  0  0  0
    4.8701   -6.3981    6.1458 H   0  0  0  0  0  0  0  0  0  0  0  0
    2.8717   -4.9919    5.8804 H   0  0  0  0  0  0  0  0  0  0  0  0
    3.5084   -3.8548    4.3774 H   0  0  0  0  0  0  0  0  0  0  0  0
    5.7803   -3.9065    3.7543 H   0  0  0  0  0  0  0  0  0  0  0  0
    6.6349   -4.1472    5.7136 H   0  0  0  0  0  0  0  0  0  0  0  0
    7.4231   -5.4496    3.7472 H   0  0  0  0  0  0  0  0  0  0  0  0
    7.1232   -7.4801    2.6993 H   0  0  0  0  0  0  0  0  0  0  0  0
    6.4553   -9.2369    1.6072 H   0  0  0  0  0  0  0  0  0  0  0  0
    4.8488   -9.8554    1.5083 H   0  0  0  0  0  0  0  0  0  0  0  0
    5.7373   -9.9985    3.0130 H   0  0  0  0  0  0  0  0  0  0  0  0
    5.6502   -7.1721    0.8283 H   0  0  0  0  0  0  0  0  0  0  0  0
    4.1060   -7.5006    0.6473 H   0  0  0  0  0  0  0  0  0  0  0  0
    4.2189   -5.2853    0.4303 H   0  0  0  0  0  0  0  0  0  0  0  0
    7.3037   -3.5894    0.9928 H   0  0  0  0  0  0  0  0  0  0  0  0
    5.2769   -3.9843   -0.8640 H   0  0  0  0  0  0  0  0  0  0  0  0
    6.6037   -1.9969    2.6921 H   0  0  0  0  0  0  0  0  0  0  0  0
    3.9218   -2.3991    3.0055 H   0  0  0  0  0  0  0  0  0  0  0  0
    2.0527   -3.8225    1.1083 H   0  0  0  0  0  0  0  0  0  0  0  0
    1.5869   -4.1225    2.7277 H   0  0  0  0  0  0  0  0  0  0  0  0
    1.8889   -5.4435    1.5282 H   0  0  0  0  0  0  0  0  0  0  0  0
    2.5560   -0.5774    1.0213 H   0  0  0  0  0  0  0  0  0  0  0  0
    4.0672   -0.0826    0.2361 H   0  0  0  0  0  0  0  0  0  0  0  0
    3.9979   -0.2944    1.9808 H   0  0  0  0  0  0  0  0  0  0  0  0
    2.4208   -2.3840   -0.5648 H   0  0  0  0  0  0  0  0  0  0  0  0
    3.5945   -3.6662   -0.6867 H   0  0  0  0  0  0  0  0  0  0  0  0
    3.9810   -2.0558   -1.3087 H   0  0  0  0  0  0  0  0  0  0  0  0
  2  1  1  1
  1 39  1  0
  1 40  1  0
  1 41  1  0
  2  9  1  0
  2 17  1  0
  2  3  1  0
  3  4  1  0
  3 42  1  0
  3 43  1  0
  4  5  1  0
  4 44  1  0
  4 45  1  0
  5  6  2  0
  5  7  1  0
  7 13  1  0
  7  8  1  1
  7  9  1  0
  8 46  1  0
  8 47  1  0
  8 48  1  0
  9 10  1  0
  9 49  1  1
 10 14  1  0
 10 11  1  0
 10 50  1  6
 11 12  1  0
 11 51  1  0
 11 52  1  0
 12 13  1  0
 12 53  1  0
 12 54  1  0
 13 14  1  0
 13 55  1  1
 14 24  1  0
 14 15  1  1
 15 16  1  0
 15 56  1  0
 15 57  1  0
 16 17  1  0
 16 58  1  0
 16 59  1  0
 17 18  1  0
 17 60  1  1
 18 34  1  0
 18 19  1  0
 18 61  1  1
 19 20  1  0
 19 21  1  0
 19 62  1  6
 20 63  1  0
 21 23  1  0
 21 22  1  0
 21 64  1  6
 22 23  1  0
 23 24  1  0
 23 65  1  6
 24 25  1  6
 24 26  1  0
 25 66  1  0
 25 67  1  0
 25 68  1  0
 26 27  1  0
 26 69  1  0
 26 70  1  0
 27 34  1  0
 27 28  1  0
 27 71  1  6
 28 29  1  0
 29 30  1  0
 29 31  1  0
 29 72  1  6
 30 73  1  0
 31 36  1  0
 31 32  1  1
 31 33  1  0
 32 74  1  0
 33 34  1  0
 33 36  1  0
 33 75  1  1
 34 35  1  6
 35 76  1  0
 35 77  1  0
 35 78  1  0
 36 37  1  0
 36 38  1  0
 37 79  1  0
 37 80  1  0
 37 81  1  0
 38 82  1  0
 38 83  1  0
 38 84  1  0
M  END
>  <i_m_ct_stereo_status>  (76) 
1

>  <s_m_source_file>  (76) 
/var/tmp/pbs.5076255.sched01/tmp0qfm3vo4/0bcu552to.sdf

>  <i_m_source_file_index>  (76) 
29

>  <i_lp_mmshare_version>  (76) 
48012

>  <i_f3d_flags>  (76) 
0

>  <s_epik_input>  (76) 
W0NIMl0xW0NIMl1bQ0BASF0yW0NAXTMoW0NIM10pQyg9TylbQ0gyXVtDSDJdW0NAQF0oW0NIM10pKFtDQEBIXTNbQ0BIXTFbQ0BdMjQ1KVtDQEBIXShbQ0gyXVtDSDJdNClbQ0BASF02W0NAXTcoW0NIM10pW0NASF0oW0NIMl1bQ0BAXTUoW0NIM10pW0NASF04W0NASF0oTzgpW0NAQEhdNltPSF0pT1tDQEBIXShbT0hdKUM5KFtPSF0pW0NASF03QzkoW0NIM10pW0NIM10=

>  <s_epik_cmdline>  (76) 
J2VwaWtfcHl0aG9uJywgJy1waHQnLCAnMi4wJywgJy1waCcsICc3LjAnLCAnLXRuJywgJzgnLCAnLW1hJywgJzIwMCcsICctaW1hZScsICc8aW5maWxlLm1hZT4nLCAnLW9tYWUnLCAnPG91dGZpbGUubWFlPic=

>  <r_lp_tautomer_probability>  (76) 
1

>  <r_epik_Ionization_Penalty>  (76) 
1.80318e-07

>  <r_epik_Ionization_Penalty_Charging>  (76) 
0

>  <r_epik_Ionization_Penalty_Neutral>  (76) 
1.80318e-07

>  <r_epik_State_Penalty>  (76) 
-0

>  <r_epik_Charging_Adjusted_Penalty>  (76) 
0

>  <i_epik_Tot_Q>  (76) 
0

>  <i_epik_Tot_abs_Q>  (76) 
0

>  <s_epik_Chemistry_Notes>  (76) 
This compound contains an acetal/aminal-like group ( X-CH(R)-Y where X, Y are N, S, or O) that may be acid/base labile, releasing an aldehyde.

>  <s_lp_Force_Field>  (76) 
OPLS3e

>  <r_lp_Energy>  (76) 
392.716

>  <b_lp_Chiralities_Consistent>  (76) 
1

>  <s_lp_Variant>  (76) 
18:0-1

>  <s_i_glide_gridfile>  (76) 
pfpi4k_grid

>  <i_i_glide_lignum>  (76) 
29

>  <i_i_glide_rotatable_bonds>  (76) 
3

>  <r_i_docking_score>  (76) 
-2.08441

>  <r_i_glide_ligand_efficiency>  (76) 
-0.054853

>  <r_i_glide_ligand_efficiency_sa>  (76) 
-0.184414

>  <r_i_glide_ligand_efficiency_ln>  (76) 
-0.449461

>  <r_i_glide_gscore>  (76) 
-2.08441

>  <r_i_glide_lipo>  (76) 
-0.273452

>  <r_i_glide_hbond>  (76) 
0

>  <r_i_glide_metal>  (76) 
-0

>  <r_i_glide_rewards>  (76) 
-0.120972

>  <r_i_glide_evdw>  (76) 
-32.9279

>  <r_i_glide_ecoul>  (76) 
0.0601783

>  <r_i_glide_erotb>  (76) 
0

>  <r_i_glide_esite>  (76) 
-0.0526227

>  <r_i_glide_emodel>  (76) 
-36.7219

>  <r_i_glide_energy>  (76) 
-32.8677

>  <r_i_glide_einternal>  (76) 
0.407312

>  <r_i_glide_intrahb_reward>  (76) 
-0

>  <i_i_glide_confnum>  (76) 
2

>  <i_i_glide_posenum>  (76) 
12

>  <r_i_glide_eff_state_penalty>  (76) 
0

>  <ligand_id>  (76) 
18

>  <original_smiles>  (76) 
CC12CCC(=O)C3(C)C1C1CCC3C13CCC2C1C(O)C2OC2C3(C)CC2OC(O)C3(O)C(C21C)C3(C)C

>  <smiles>  (76) 
[H]OC1([H])OC2([H])C([H])([H])C3(C([H])([H])[H])C4([H])OC4([H])C([H])(O[H])C([H])(C4([H])C([H])([H])C([H])([H])C35C3([H])C([H])([H])C([H])([H])C5([H])C5(C([H])([H])[H])C(=O)C([H])([H])C([H])([H])C4(C([H])([H])[H])C35[H])C2(C([H])([H])[H])C2([H])C1(O[H])C2(C([H])([H])[H])C([H])([H])[H]

$$$$
18:0:2
     RDKit          3D

 84 92  0  0  1  0  0  0  0  0999 V2000
   -0.2363   -6.5418    4.8786 C   0  0  0  0  0  0  0  0  0  0  0  0
    0.9604   -6.7226    3.8919 C   0  0  2  0  0  0  0  0  0  0  0  0
    0.3033   -7.0308    2.5106 C   0  0  0  0  0  0  0  0  0  0  0  0
   -0.4086   -8.4416    2.4955 C   0  0  0  0  0  0  0  0  0  0  0  0
    0.4316   -9.6672    3.0033 C   0  0  0  0  0  0  0  0  0  0  0  0
    0.2431  -10.7687    2.5114 O   0  0  0  0  0  0  0  0  0  0  0  0
    1.4739   -9.4650    4.1638 C   0  0  2  0  0  0  0  0  0  0  0  0
    0.8473  -10.0543    5.4558 C   0  0  0  0  0  0  0  0  0  0  0  0
    1.7013   -8.0096    4.0437 C   0  0  1  0  0  0  0  0  0  0  0  0
    2.9935   -7.9536    3.2064 C   0  0  2  0  0  0  0  0  0  0  0  0
    3.1181   -8.9801    2.0064 C   0  0  0  0  0  0  0  0  0  0  0  0
    3.4414  -10.2455    2.7480 C   0  0  0  0  0  0  0  0  0  0  0  0
    3.1295   -9.7011    4.1329 C   0  0  1  0  0  0  0  0  0  0  0  0
    3.9360   -8.2477    4.3015 C   0  0  2  0  0  0  0  0  0  0  0  0
    3.6533   -7.6052    5.7189 C   0  0  0  0  0  0  0  0  0  0  0  0
    2.8720   -6.2076    5.7096 C   0  0  0  0  0  0  0  0  0  0  0  0
    2.1804   -5.6644    4.3506 C   0  0  1  0  0  0  0  0  0  0  0  0
    3.2870   -4.8006    3.4551 C   0  0  1  0  0  0  0  0  0  0  0  0
    4.4563   -4.1755    4.3167 C   0  0  1  0  0  0  0  0  0  0  0  0
    4.0144   -3.2877    5.3248 O   0  0  0  0  0  0  0  0  0  0  0  0
    5.7212   -4.9650    4.7620 C   0  0  1  0  0  0  0  0  0  0  0  0
    5.6748   -5.9168    5.8255 O   0  0  0  0  0  0  0  0  0  0  0  0
    6.1009   -6.4501    4.5745 C   0  0  1  0  0  0  0  0  0  0  0  0
    5.4170   -7.6849    3.8429 C   0  0  1  0  0  0  0  0  0  0  0  0
    6.3646   -8.8785    4.1189 C   0  0  0  0  0  0  0  0  0  0  0  0
    5.6289   -7.2101    2.3484 C   0  0  0  0  0  0  0  0  0  0  0  0
    5.2257   -5.7773    1.7667 C   0  0  2  0  0  0  0  0  0  0  0  0
    6.3385   -4.9453    2.0917 O   0  0  0  0  0  0  0  0  0  0  0  0
    6.6612   -3.8849    1.2600 C   0  0  1  0  0  0  0  0  0  0  0  0
    7.2659   -4.3031    0.0770 O   0  0  0  0  0  0  0  0  0  0  0  0
    5.4587   -2.9788    1.0383 C   0  0  2  0  0  0  0  0  0  0  0  0
    5.6539   -1.6826    1.5673 O   0  0  0  0  0  0  0  0  0  0  0  0
    4.0666   -3.5057    1.3497 C   0  0  2  0  0  0  0  0  0  0  0  0
    3.8399   -4.9630    1.9135 C   0  0  2  0  0  0  0  0  0  0  0  0
    2.7626   -5.5027    0.9401 C   0  0  0  0  0  0  0  0  0  0  0  0
    4.4401   -3.0386   -0.0821 C   0  0  0  0  0  0  0  0  0  0  0  0
    3.7672   -1.7690   -0.5880 C   0  0  0  0  0  0  0  0  0  0  0  0
    4.6569   -3.9245   -1.3018 C   0  0  0  0  0  0  0  0  0  0  0  0
   -0.8296   -5.6778    4.5866 H   0  0  0  0  0  0  0  0  0  0  0  0
    0.0593   -6.3808    5.9120 H   0  0  0  0  0  0  0  0  0  0  0  0
   -0.9037   -7.4022    4.8918 H   0  0  0  0  0  0  0  0  0  0  0  0
   -0.4082   -6.2603    2.2309 H   0  0  0  0  0  0  0  0  0  0  0  0
    1.0137   -7.0970    1.7041 H   0  0  0  0  0  0  0  0  0  0  0  0
   -1.3275   -8.4173    3.0743 H   0  0  0  0  0  0  0  0  0  0  0  0
   -0.7225   -8.6542    1.4743 H   0  0  0  0  0  0  0  0  0  0  0  0
    1.2844   -9.6737    6.3783 H   0  0  0  0  0  0  0  0  0  0  0  0
    0.9730  -11.1385    5.4703 H   0  0  0  0  0  0  0  0  0  0  0  0
   -0.2198   -9.8487    5.4968 H   0  0  0  0  0  0  0  0  0  0  0  0
    1.5620   -7.9674    5.1004 H   0  0  0  0  0  0  0  0  0  0  0  0
    3.1821   -7.0361    2.7645 H   0  0  0  0  0  0  0  0  0  0  0  0
    2.2237   -9.0507    1.3991 H   0  0  0  0  0  0  0  0  0  0  0  0
    3.8305   -8.7992    1.2192 H   0  0  0  0  0  0  0  0  0  0  0  0
    2.8202  -11.0946    2.4615 H   0  0  0  0  0  0  0  0  0  0  0  0
    4.4782  -10.5452    2.6199 H   0  0  0  0  0  0  0  0  0  0  0  0
    3.4414  -10.4172    4.8932 H   0  0  0  0  0  0  0  0  0  0  0  0
    3.0886   -8.3111    6.3241 H   0  0  0  0  0  0  0  0  0  0  0  0
    4.5139   -7.6518    6.3758 H   0  0  0  0  0  0  0  0  0  0  0  0
    2.0855   -6.3261    6.4526 H   0  0  0  0  0  0  0  0  0  0  0  0
    3.4406   -5.4488    6.2288 H   0  0  0  0  0  0  0  0  0  0  0  0
    1.5808   -4.8375    4.7437 H   0  0  0  0  0  0  0  0  0  0  0  0
    2.6303   -3.9444    3.3102 H   0  0  0  0  0  0  0  0  0  0  0  0
    4.9053   -3.4286    3.6710 H   0  0  0  0  0  0  0  0  0  0  0  0
    4.7696   -2.8431    5.6804 H   0  0  0  0  0  0  0  0  0  0  0  0
    6.5696   -4.3013    4.8967 H   0  0  0  0  0  0  0  0  0  0  0  0
    7.1853   -6.5480    4.5305 H   0  0  0  0  0  0  0  0  0  0  0  0
    7.4149   -8.6366    3.9580 H   0  0  0  0  0  0  0  0  0  0  0  0
    6.1706   -9.7243    3.4695 H   0  0  0  0  0  0  0  0  0  0  0  0
    6.2726   -9.2291    5.1484 H   0  0  0  0  0  0  0  0  0  0  0  0
    6.7154   -7.1742    2.2552 H   0  0  0  0  0  0  0  0  0  0  0  0
    5.5064   -8.0010    1.6266 H   0  0  0  0  0  0  0  0  0  0  0  0
    5.3217   -5.9753    0.7030 H   0  0  0  0  0  0  0  0  0  0  0  0
    7.4427   -3.3277    1.7541 H   0  0  0  0  0  0  0  0  0  0  0  0
    6.5991   -4.6989   -0.4626 H   0  0  0  0  0  0  0  0  0  0  0  0
    4.9041   -1.1550    1.3413 H   0  0  0  0  0  0  0  0  0  0  0  0
    3.3755   -2.7923    1.7962 H   0  0  0  0  0  0  0  0  0  0  0  0
    2.8600   -5.1416   -0.0762 H   0  0  0  0  0  0  0  0  0  0  0  0
    1.7695   -5.1781    1.2483 H   0  0  0  0  0  0  0  0  0  0  0  0
    2.8137   -6.5792    0.7971 H   0  0  0  0  0  0  0  0  0  0  0  0
    2.8151   -2.0195   -1.0572 H   0  0  0  0  0  0  0  0  0  0  0  0
    4.3911   -1.2673   -1.3264 H   0  0  0  0  0  0  0  0  0  0  0  0
    3.5509   -1.0698    0.2200 H   0  0  0  0  0  0  0  0  0  0  0  0
    3.7188   -4.0433   -1.8488 H   0  0  0  0  0  0  0  0  0  0  0  0
    5.0039   -4.9220   -1.0485 H   0  0  0  0  0  0  0  0  0  0  0  0
    5.3759   -3.4677   -1.9847 H   0  0  0  0  0  0  0  0  0  0  0  0
  2  1  1  1
  1 39  1  0
  1 40  1  0
  1 41  1  0
  2  9  1  0
  2 17  1  0
  2  3  1  0
  3  4  1  0
  3 42  1  0
  3 43  1  0
  4  5  1  0
  4 44  1  0
  4 45  1  0
  5  6  2  0
  5  7  1  0
  7 13  1  0
  7  8  1  1
  7  9  1  0
  8 46  1  0
  8 47  1  0
  8 48  1  0
  9 10  1  0
  9 49  1  1
 10 14  1  0
 10 11  1  0
 10 50  1  6
 11 12  1  0
 11 51  1  0
 11 52  1  0
 12 13  1  0
 12 53  1  0
 12 54  1  0
 13 14  1  0
 13 55  1  1
 14 24  1  0
 14 15  1  1
 15 16  1  0
 15 56  1  0
 15 57  1  0
 16 17  1  0
 16 58  1  0
 16 59  1  0
 17 18  1  0
 17 60  1  1
 18 34  1  0
 18 19  1  0
 18 61  1  6
 19 20  1  0
 19 21  1  0
 19 62  1  6
 20 63  1  0
 21 23  1  0
 21 22  1  0
 21 64  1  1
 22 23  1  0
 23 24  1  0
 23 65  1  1
 24 25  1  6
 24 26  1  0
 25 66  1  0
 25 67  1  0
 25 68  1  0
 26 27  1  0
 26 69  1  0
 26 70  1  0
 27 34  1  0
 27 28  1  0
 27 71  1  6
 28 29  1  0
 29 30  1  0
 29 31  1  0
 29 72  1  1
 30 73  1  0
 31 36  1  0
 31 32  1  1
 31 33  1  0
 32 74  1  0
 33 34  1  0
 33 36  1  0
 33 75  1  1
 34 35  1  6
 35 76  1  0
 35 77  1  0
 35 78  1  0
 36 37  1  0
 36 38  1  0
 37 79  1  0
 37 80  1  0
 37 81  1  0
 38 82  1  0
 38 83  1  0
 38 84  1  0
M  END
>  <i_m_ct_stereo_status>  (77) 
1

>  <s_m_source_file>  (77) 
/var/tmp/pbs.5076255.sched01/tmp0qfm3vo4/0bcu552to.sdf

>  <i_m_source_file_index>  (77) 
29

>  <i_lp_mmshare_version>  (77) 
48012

>  <i_f3d_flags>  (77) 
0

>  <s_epik_input>  (77) 
W0NIMl0xW0NIMl1bQ0BASF0yW0NAXTMoW0NIM10pQyg9TylbQ0gyXVtDSDJdW0NAQF0oW0NIM10pKFtDQEBIXTNbQ0BIXTFbQ0BdMjQ1KVtDQEBIXShbQ0gyXVtDSDJdNClbQ0BASF02W0NAXTcoW0NIM10pW0NASF0oW0NIMl1bQ0BAXTUoW0NIM10pW0NASF04W0NASF0oTzgpW0NAQEhdNltPSF0pT1tDQEBIXShbT0hdKUM5KFtPSF0pW0NASF03QzkoW0NIM10pW0NIM10=

>  <s_epik_cmdline>  (77) 
J2VwaWtfcHl0aG9uJywgJy1waHQnLCAnMi4wJywgJy1waCcsICc3LjAnLCAnLXRuJywgJzgnLCAnLW1hJywgJzIwMCcsICctaW1hZScsICc8aW5maWxlLm1hZT4nLCAnLW9tYWUnLCAnPG91dGZpbGUubWFlPic=

>  <r_lp_tautomer_probability>  (77) 
1

>  <r_epik_Ionization_Penalty>  (77) 
1.80318e-07

>  <r_epik_Ionization_Penalty_Charging>  (77) 
0

>  <r_epik_Ionization_Penalty_Neutral>  (77) 
1.80318e-07

>  <r_epik_State_Penalty>  (77) 
-0

>  <r_epik_Charging_Adjusted_Penalty>  (77) 
0

>  <i_epik_Tot_Q>  (77) 
0

>  <i_epik_Tot_abs_Q>  (77) 
0

>  <s_epik_Chemistry_Notes>  (77) 
This compound contains an acetal/aminal-like group ( X-CH(R)-Y where X, Y are N, S, or O) that may be acid/base labile, releasing an aldehyde.

>  <s_lp_Force_Field>  (77) 
OPLS3e

>  <r_lp_Energy>  (77) 
392.716

>  <b_lp_Chiralities_Consistent>  (77) 
1

>  <s_lp_Variant>  (77) 
18:0-1

>  <s_i_glide_gridfile>  (77) 
pfpi4k_grid

>  <i_i_glide_lignum>  (77) 
29

>  <i_i_glide_rotatable_bonds>  (77) 
3

>  <r_i_docking_score>  (77) 
-1.91812

>  <r_i_glide_ligand_efficiency>  (77) 
-0.0504768

>  <r_i_glide_ligand_efficiency_sa>  (77) 
-0.169702

>  <r_i_glide_ligand_efficiency_ln>  (77) 
-0.413603

>  <r_i_glide_gscore>  (77) 
-1.91812

>  <r_i_glide_lipo>  (77) 
-0.14906

>  <r_i_glide_hbond>  (77) 
0

>  <r_i_glide_metal>  (77) 
-0

>  <r_i_glide_rewards>  (77) 
-0.114995

>  <r_i_glide_evdw>  (77) 
-32.451

>  <r_i_glide_ecoul>  (77) 
-0.147331

>  <r_i_glide_erotb>  (77) 
0

>  <r_i_glide_esite>  (77) 
-0.00941318

>  <r_i_glide_emodel>  (77) 
-36.1827

>  <r_i_glide_energy>  (77) 
-32.5984

>  <r_i_glide_einternal>  (77) 
0.524012

>  <r_i_glide_intrahb_reward>  (77) 
-0

>  <i_i_glide_confnum>  (77) 
2

>  <i_i_glide_posenum>  (77) 
21

>  <r_i_glide_eff_state_penalty>  (77) 
0

>  <ligand_id>  (77) 
18

>  <original_smiles>  (77) 
CC12CCC(=O)C3(C)C1C1CCC3C13CCC2C1C(O)C2OC2C3(C)CC2OC(O)C3(O)C(C21C)C3(C)C

>  <smiles>  (77) 
[H]OC1([H])OC2([H])C([H])([H])C3(C([H])([H])[H])C4([H])OC4([H])C([H])(O[H])C([H])(C4([H])C([H])([H])C([H])([H])C35C3([H])C([H])([H])C([H])([H])C5([H])C5(C([H])([H])[H])C(=O)C([H])([H])C([H])([H])C4(C([H])([H])[H])C35[H])C2(C([H])([H])[H])C2([H])C1(O[H])C2(C([H])([H])[H])C([H])([H])[H]

$$$$
19:0:0
     RDKit          3D

 43 46  0  0  1  0  0  0  0  0999 V2000
    2.2045    0.6876    1.6913 C   0  0  0  0  0  0  0  0  0  0  0  0
    2.2972   -0.7825    2.0791 C   0  0  0  0  0  0  0  0  0  0  0  0
    1.4097   -1.0749    3.1583 O   0  0  0  0  0  0  0  0  0  0  0  0
    1.2373   -2.3332    3.6466 C   0  0  0  0  0  0  0  0  0  0  0  0
    0.5776   -2.5521    4.6616 O   0  0  0  0  0  0  0  0  0  0  0  0
    1.8584   -3.2773    2.8223 N   0  0  0  0  0  0  0  0  0  0  0  0
    1.9395   -4.6220    2.9546 C   0  0  0  0  0  0  0  0  0  0  0  0
    1.6769   -5.4329    4.4945 S   0  0  0  0  0  0  0  0  0  0  0  0
    1.9956   -6.9522    3.7586 C   0  0  0  0  0  0  0  0  0  0  0  0
    2.2902   -6.8525    2.4476 C   0  0  0  0  0  0  0  0  0  0  0  0
    2.2743   -5.5139    1.9425 C   0  0  0  0  0  0  0  0  0  0  0  0
    2.5704   -5.1316    0.4965 C   0  0  0  0  0  0  0  0  0  0  0  0
    1.4354   -5.4805   -0.2768 O   0  0  0  0  0  0  0  0  0  0  0  0
    3.7239   -5.8351    0.0931 O   0  0  0  0  0  0  0  0  0  0  0  0
    2.5405   -8.2057    1.8724 C   0  0  0  0  0  0  0  0  0  0  0  0
    2.3306   -9.1818    3.0782 C   0  0  2  0  0  0  0  0  0  0  0  0
    1.0935  -10.0997    2.9653 C   0  0  1  0  0  0  0  0  0  0  0  0
    1.1077  -11.1135    4.1232 C   0  0  0  0  0  0  0  0  0  0  0  0
    0.7544  -10.2362    5.3407 C   0  0  0  0  0  0  0  0  0  0  0  0
    0.5818   -8.8411    4.7199 C   0  0  2  0  0  0  0  0  0  0  0  0
   -0.0537   -9.1842    3.3761 C   0  0  0  0  0  0  0  0  0  0  0  0
    1.9762   -8.3132    4.3180 C   0  0  2  0  0  0  0  0  0  0  0  0
    2.9070    0.8991    0.8864 H   0  0  0  0  0  0  0  0  0  0  0  0
    2.4464    1.3329    2.5339 H   0  0  0  0  0  0  0  0  0  0  0  0
    1.2034    0.9312    1.3359 H   0  0  0  0  0  0  0  0  0  0  0  0
    2.0593   -1.3879    1.1989 H   0  0  0  0  0  0  0  0  0  0  0  0
    3.3167   -1.0231    2.3915 H   0  0  0  0  0  0  0  0  0  0  0  0
    2.2567   -2.8886    1.9805 H   0  0  0  0  0  0  0  0  0  0  0  0
    2.7502   -4.0600    0.3778 H   0  0  0  0  0  0  0  0  0  0  0  0
    1.6641   -5.3453   -1.1877 H   0  0  0  0  0  0  0  0  0  0  0  0
    3.8484   -5.7089   -0.8402 H   0  0  0  0  0  0  0  0  0  0  0  0
    1.8562   -8.4205    1.0483 H   0  0  0  0  0  0  0  0  0  0  0  0
    3.5641   -8.2755    1.4980 H   0  0  0  0  0  0  0  0  0  0  0  0
    3.2391   -9.7588    3.2495 H   0  0  0  0  0  0  0  0  0  0  0  0
    0.9793  -10.5613    1.9893 H   0  0  0  0  0  0  0  0  0  0  0  0
    0.3512  -11.8830    3.9736 H   0  0  0  0  0  0  0  0  0  0  0  0
    2.0700  -11.6151    4.2323 H   0  0  0  0  0  0  0  0  0  0  0  0
   -0.1745  -10.5758    5.7998 H   0  0  0  0  0  0  0  0  0  0  0  0
    1.5260  -10.2661    6.1110 H   0  0  0  0  0  0  0  0  0  0  0  0
    0.0053   -8.1575    5.3444 H   0  0  0  0  0  0  0  0  0  0  0  0
   -0.1900   -8.3285    2.7129 H   0  0  0  0  0  0  0  0  0  0  0  0
   -1.0023   -9.7129    3.4669 H   0  0  0  0  0  0  0  0  0  0  0  0
    2.7037   -8.4071    5.1270 H   0  0  0  0  0  0  0  0  0  0  0  0
  1  2  1  0
  1 23  1  0
  1 24  1  0
  1 25  1  0
  2  3  1  0
  2 26  1  0
  2 27  1  0
  3  4  1  0
  4  5  2  0
  4  6  1  0
  6  7  1  0
  6 28  1  0
  7 11  2  0
  7  8  1  0
  8  9  1  0
  9 22  1  0
  9 10  2  0
 10 11  1  0
 10 15  1  0
 11 12  1  0
 12 13  1  0
 12 14  1  0
 12 29  1  0
 13 30  1  0
 14 31  1  0
 15 16  1  0
 15 32  1  0
 15 33  1  0
 16 22  1  0
 16 17  1  0
 16 34  1  1
 17 21  1  0
 17 18  1  0
 17 35  1  6
 18 19  1  0
 18 36  1  0
 18 37  1  0
 19 20  1  0
 19 38  1  0
 19 39  1  0
 20 21  1  0
 20 22  1  0
 20 40  1  1
 21 41  1  0
 21 42  1  0
 22 43  1  1
M  END
>  <i_m_ct_stereo_status>  (78) 
1

>  <s_m_source_file>  (78) 
/var/tmp/pbs.5076255.sched01/tmp0qfm3vo4/0bcu552to.sdf

>  <i_m_source_file_index>  (78) 
30

>  <i_lp_mmshare_version>  (78) 
48012

>  <i_f3d_flags>  (78) 
0

>  <s_epik_input>  (78) 
W0NIM11bQ0gyXU9DKD1PKVtOSF1jKHMxKWMoW0NIXShbT0hdKVtPSF0pYyhjMTIpW0NIMl1bQ0BASF0zW0NASF00W0NIMl1bQ0gyXVtDQEhdKFtDSDJdNClbQ0BIXTIz

>  <s_epik_cmdline>  (78) 
J2VwaWtfcHl0aG9uJywgJy1waHQnLCAnMi4wJywgJy1waCcsICc3LjAnLCAnLXRuJywgJzgnLCAnLW1hJywgJzIwMCcsICctaW1hZScsICc8aW5maWxlLm1hZT4nLCAnLW9tYWUnLCAnPG91dGZpbGUubWFlPic=

>  <r_lp_tautomer_probability>  (78) 
1

>  <r_epik_Ionization_Penalty>  (78) 
1.11872e-06

>  <r_epik_Ionization_Penalty_Charging>  (78) 
0

>  <r_epik_Ionization_Penalty_Neutral>  (78) 
1.11872e-06

>  <r_epik_State_Penalty>  (78) 
-0

>  <r_epik_Charging_Adjusted_Penalty>  (78) 
0

>  <i_epik_Tot_Q>  (78) 
0

>  <i_epik_Tot_abs_Q>  (78) 
0

>  <s_epik_Chemistry_Notes>  (78) 
This compound has an ester and may undergo hydrolysis at high or low pH. This compound contains an acetal/aminal-like group ( X-CH(R)-Y where X, Y are N, S, or O) that may be acid/base labile, releasing an aldehyde.

>  <s_lp_Force_Field>  (78) 
OPLS3e

>  <r_lp_Energy>  (78) 
43.8024

>  <b_lp_Chiralities_Consistent>  (78) 
1

>  <s_lp_Variant>  (78) 
19:0-1

>  <s_i_glide_gridfile>  (78) 
pfpi4k_grid

>  <i_i_glide_lignum>  (78) 
30

>  <i_i_glide_rotatable_bonds>  (78) 
7

>  <r_i_docking_score>  (78) 
-3.41385

>  <r_i_glide_ligand_efficiency>  (78) 
-0.155175

>  <r_i_glide_ligand_efficiency_sa>  (78) 
-0.434807

>  <r_i_glide_ligand_efficiency_ln>  (78) 
-0.83447

>  <r_i_glide_gscore>  (78) 
-3.41385

>  <r_i_glide_lipo>  (78) 
-0.258178

>  <r_i_glide_hbond>  (78) 
0

>  <r_i_glide_metal>  (78) 
-0

>  <r_i_glide_rewards>  (78) 
-1.26731

>  <r_i_glide_evdw>  (78) 
-23.0334

>  <r_i_glide_ecoul>  (78) 
-9.38903

>  <r_i_glide_erotb>  (78) 
0.715675

>  <r_i_glide_esite>  (78) 
-0.0440174

>  <r_i_glide_emodel>  (78) 
-37.5281

>  <r_i_glide_energy>  (78) 
-32.4224

>  <r_i_glide_einternal>  (78) 
5.05309

>  <r_i_glide_intrahb_reward>  (78) 
-0

>  <i_i_glide_confnum>  (78) 
2

>  <i_i_glide_posenum>  (78) 
39

>  <r_i_glide_eff_state_penalty>  (78) 
0

>  <ligand_id>  (78) 
19

>  <original_smiles>  (78) 
CCOC(=O)Nc1sc2c(c1C(O)O)CC1C3CCC(C3)C21

>  <smiles>  (78) 
[H]OC([H])(O[H])c1c(N([H])C(=O)OC([H])([H])C([H])([H])[H])sc2c1C([H])([H])C1([H])C2([H])C2([H])C([H])([H])C([H])([H])C1([H])C2([H])[H]

$$$$
19:0:1
     RDKit          3D

 43 46  0  0  1  0  0  0  0  0999 V2000
    3.4196   -0.1734    2.3243 C   0  0  0  0  0  0  0  0  0  0  0  0
    1.9541   -0.4631    1.9617 C   0  0  0  0  0  0  0  0  0  0  0  0
    1.2024   -0.7826    3.1434 O   0  0  0  0  0  0  0  0  0  0  0  0
    1.1216   -2.0387    3.6812 C   0  0  0  0  0  0  0  0  0  0  0  0
    0.4838   -2.2639    4.7107 O   0  0  0  0  0  0  0  0  0  0  0  0
    1.8200   -2.9609    2.8969 N   0  0  0  0  0  0  0  0  0  0  0  0
    1.9270   -4.3035    3.0307 C   0  0  0  0  0  0  0  0  0  0  0  0
    1.5933   -5.1402    4.5395 S   0  0  0  0  0  0  0  0  0  0  0  0
    2.0007   -6.6403    3.8044 C   0  0  0  0  0  0  0  0  0  0  0  0
    2.3706   -6.5150    2.5137 C   0  0  0  0  0  0  0  0  0  0  0  0
    2.3382   -5.1730    2.0239 C   0  0  0  0  0  0  0  0  0  0  0  0
    2.6881   -4.7681    0.6016 C   0  0  0  0  0  0  0  0  0  0  0  0
    1.8143   -5.4537   -0.2748 O   0  0  0  0  0  0  0  0  0  0  0  0
    4.0394   -5.0931    0.3829 O   0  0  0  0  0  0  0  0  0  0  0  0
    2.6912   -7.8504    1.9349 C   0  0  0  0  0  0  0  0  0  0  0  0
    2.4384   -8.8459    3.1186 C   0  0  2  0  0  0  0  0  0  0  0  0
    1.2376   -9.7978    2.9257 C   0  0  1  0  0  0  0  0  0  0  0  0
    1.2171  -10.8163    4.0792 C   0  0  0  0  0  0  0  0  0  0  0  0
    0.7654   -9.9631    5.2833 C   0  0  0  0  0  0  0  0  0  0  0  0
    0.5883   -8.5686    4.6621 C   0  0  2  0  0  0  0  0  0  0  0  0
    0.0406   -8.9194    3.2813 C   0  0  0  0  0  0  0  0  0  0  0  0
    1.9875   -8.0024    4.3449 C   0  0  2  0  0  0  0  0  0  0  0  0
    4.0100    0.0062    1.4252 H   0  0  0  0  0  0  0  0  0  0  0  0
    3.8782   -1.0091    2.8537 H   0  0  0  0  0  0  0  0  0  0  0  0
    3.4974    0.7046    2.9661 H   0  0  0  0  0  0  0  0  0  0  0  0
    1.4990    0.4057    1.4837 H   0  0  0  0  0  0  0  0  0  0  0  0
    1.9070   -1.2564    1.2099 H   0  0  0  0  0  0  0  0  0  0  0  0
    2.2316   -2.5631    2.0673 H   0  0  0  0  0  0  0  0  0  0  0  0
    2.5682   -3.6964    0.4223 H   0  0  0  0  0  0  0  0  0  0  0  0
    2.1788   -5.4067   -1.1608 H   0  0  0  0  0  0  0  0  0  0  0  0
    4.1402   -6.0265    0.4918 H   0  0  0  0  0  0  0  0  0  0  0  0
    2.0568   -8.0758    1.0735 H   0  0  0  0  0  0  0  0  0  0  0  0
    3.7364   -7.8864    1.6188 H   0  0  0  0  0  0  0  0  0  0  0  0
    3.3556   -9.3920    3.3427 H   0  0  0  0  0  0  0  0  0  0  0  0
    1.2050  -10.2528    1.9369 H   0  0  0  0  0  0  0  0  0  0  0  0
    0.4936  -11.6052    3.8820 H   0  0  0  0  0  0  0  0  0  0  0  0
    2.1860  -11.2887    4.2407 H   0  0  0  0  0  0  0  0  0  0  0  0
   -0.1759  -10.3295    5.6823 H   0  0  0  0  0  0  0  0  0  0  0  0
    1.4954   -9.9761    6.0958 H   0  0  0  0  0  0  0  0  0  0  0  0
   -0.0408   -7.9061    5.2572 H   0  0  0  0  0  0  0  0  0  0  0  0
   -0.0843   -8.0603    2.6197 H   0  0  0  0  0  0  0  0  0  0  0  0
   -0.8979   -9.4735    3.3178 H   0  0  0  0  0  0  0  0  0  0  0  0
    2.6695   -8.0746    5.1937 H   0  0  0  0  0  0  0  0  0  0  0  0
  1  2  1  0
  1 23  1  0
  1 24  1  0
  1 25  1  0
  2  3  1  0
  2 26  1  0
  2 27  1  0
  3  4  1  0
  4  5  2  0
  4  6  1  0
  6  7  1  0
  6 28  1  0
  7 11  2  0
  7  8  1  0
  8  9  1  0
  9 22  1  0
  9 10  2  0
 10 11  1  0
 10 15  1  0
 11 12  1  0
 12 13  1  0
 12 14  1  0
 12 29  1  0
 13 30  1  0
 14 31  1  0
 15 16  1  0
 15 32  1  0
 15 33  1  0
 16 22  1  0
 16 17  1  0
 16 34  1  1
 17 21  1  0
 17 18  1  0
 17 35  1  6
 18 19  1  0
 18 36  1  0
 18 37  1  0
 19 20  1  0
 19 38  1  0
 19 39  1  0
 20 21  1  0
 20 22  1  0
 20 40  1  1
 21 41  1  0
 21 42  1  0
 22 43  1  1
M  END
>  <i_m_ct_stereo_status>  (79) 
1

>  <s_m_source_file>  (79) 
/var/tmp/pbs.5076255.sched01/tmp0qfm3vo4/0bcu552to.sdf

>  <i_m_source_file_index>  (79) 
30

>  <i_lp_mmshare_version>  (79) 
48012

>  <i_f3d_flags>  (79) 
0

>  <s_epik_input>  (79) 
W0NIM11bQ0gyXU9DKD1PKVtOSF1jKHMxKWMoW0NIXShbT0hdKVtPSF0pYyhjMTIpW0NIMl1bQ0BASF0zW0NASF00W0NIMl1bQ0gyXVtDQEhdKFtDSDJdNClbQ0BIXTIz

>  <s_epik_cmdline>  (79) 
J2VwaWtfcHl0aG9uJywgJy1waHQnLCAnMi4wJywgJy1waCcsICc3LjAnLCAnLXRuJywgJzgnLCAnLW1hJywgJzIwMCcsICctaW1hZScsICc8aW5maWxlLm1hZT4nLCAnLW9tYWUnLCAnPG91dGZpbGUubWFlPic=

>  <r_lp_tautomer_probability>  (79) 
1

>  <r_epik_Ionization_Penalty>  (79) 
1.11872e-06

>  <r_epik_Ionization_Penalty_Charging>  (79) 
0

>  <r_epik_Ionization_Penalty_Neutral>  (79) 
1.11872e-06

>  <r_epik_State_Penalty>  (79) 
-0

>  <r_epik_Charging_Adjusted_Penalty>  (79) 
0

>  <i_epik_Tot_Q>  (79) 
0

>  <i_epik_Tot_abs_Q>  (79) 
0

>  <s_epik_Chemistry_Notes>  (79) 
This compound has an ester and may undergo hydrolysis at high or low pH. This compound contains an acetal/aminal-like group ( X-CH(R)-Y where X, Y are N, S, or O) that may be acid/base labile, releasing an aldehyde.

>  <s_lp_Force_Field>  (79) 
OPLS3e

>  <r_lp_Energy>  (79) 
43.8024

>  <b_lp_Chiralities_Consistent>  (79) 
1

>  <s_lp_Variant>  (79) 
19:0-1

>  <s_i_glide_gridfile>  (79) 
pfpi4k_grid

>  <i_i_glide_lignum>  (79) 
30

>  <i_i_glide_rotatable_bonds>  (79) 
7

>  <r_i_docking_score>  (79) 
-2.88058

>  <r_i_glide_ligand_efficiency>  (79) 
-0.130936

>  <r_i_glide_ligand_efficiency_sa>  (79) 
-0.366887

>  <r_i_glide_ligand_efficiency_ln>  (79) 
-0.70412

>  <r_i_glide_gscore>  (79) 
-2.88058

>  <r_i_glide_lipo>  (79) 
-0.151656

>  <r_i_glide_hbond>  (79) 
0

>  <r_i_glide_metal>  (79) 
-0

>  <r_i_glide_rewards>  (79) 
-1.24347

>  <r_i_glide_evdw>  (79) 
-22.3565

>  <r_i_glide_ecoul>  (79) 
-7.00469

>  <r_i_glide_erotb>  (79) 
0.715675

>  <r_i_glide_esite>  (79) 
-0.0326098

>  <r_i_glide_emodel>  (79) 
-33.3972

>  <r_i_glide_energy>  (79) 
-29.3611

>  <r_i_glide_einternal>  (79) 
4.71353

>  <r_i_glide_intrahb_reward>  (79) 
-0

>  <i_i_glide_confnum>  (79) 
2

>  <i_i_glide_posenum>  (79) 
16

>  <r_i_glide_eff_state_penalty>  (79) 
0

>  <ligand_id>  (79) 
19

>  <original_smiles>  (79) 
CCOC(=O)Nc1sc2c(c1C(O)O)CC1C3CCC(C3)C21

>  <smiles>  (79) 
[H]OC([H])(O[H])c1c(N([H])C(=O)OC([H])([H])C([H])([H])[H])sc2c1C([H])([H])C1([H])C2([H])C2([H])C([H])([H])C([H])([H])C1([H])C2([H])[H]

$$$$
19:0:2
     RDKit          3D

 43 46  0  0  1  0  0  0  0  0999 V2000
    0.8427    1.0819    2.0776 C   0  0  0  0  0  0  0  0  0  0  0  0
    1.0061    0.0580    3.2013 C   0  0  0  0  0  0  0  0  0  0  0  0
    1.6147   -1.1272    2.7136 O   0  0  0  0  0  0  0  0  0  0  0  0
    1.4267   -2.2899    3.3558 C   0  0  0  0  0  0  0  0  0  0  0  0
    0.7409   -2.4284    4.3674 O   0  0  0  0  0  0  0  0  0  0  0  0
    2.1248   -3.2631    2.6453 N   0  0  0  0  0  0  0  0  0  0  0  0
    2.1894   -4.6069    2.8596 C   0  0  0  0  0  0  0  0  0  0  0  0
    1.8338   -5.3069    4.4418 S   0  0  0  0  0  0  0  0  0  0  0  0
    2.1492   -6.8954    3.8485 C   0  0  0  0  0  0  0  0  0  0  0  0
    2.5071   -6.8996    2.5481 C   0  0  0  0  0  0  0  0  0  0  0  0
    2.5460   -5.5997    1.9463 C   0  0  0  0  0  0  0  0  0  0  0  0
    2.9194   -5.4359    0.4785 C   0  0  0  0  0  0  0  0  0  0  0  0
    3.6405   -4.2396    0.3116 O   0  0  0  0  0  0  0  0  0  0  0  0
    1.7314   -5.4557   -0.2915 O   0  0  0  0  0  0  0  0  0  0  0  0
    2.7484   -8.3025    2.0841 C   0  0  0  0  0  0  0  0  0  0  0  0
    2.4663   -9.1829    3.3507 C   0  0  2  0  0  0  0  0  0  0  0  0
    1.2205  -10.0961    3.2543 C   0  0  1  0  0  0  0  0  0  0  0  0
    1.1645  -11.0147    4.4892 C   0  0  0  0  0  0  0  0  0  0  0  0
    0.7762  -10.0388    5.6201 C   0  0  0  0  0  0  0  0  0  0  0  0
    0.6615   -8.6926    4.8866 C   0  0  2  0  0  0  0  0  0  0  0  0
    0.0755   -9.1329    3.5481 C   0  0  0  0  0  0  0  0  0  0  0  0
    2.0766   -8.2136    4.5051 C   0  0  2  0  0  0  0  0  0  0  0  0
    0.3691    1.9919    2.4445 H   0  0  0  0  0  0  0  0  0  0  0  0
    0.2152    0.6854    1.2783 H   0  0  0  0  0  0  0  0  0  0  0  0
    1.8061    1.3567    1.6488 H   0  0  0  0  0  0  0  0  0  0  0  0
    1.6202    0.4619    4.0042 H   0  0  0  0  0  0  0  0  0  0  0  0
    0.0269   -0.1666    3.6204 H   0  0  0  0  0  0  0  0  0  0  0  0
    2.5924   -2.8787    1.8415 H   0  0  0  0  0  0  0  0  0  0  0  0
    3.5567   -6.2533    0.1462 H   0  0  0  0  0  0  0  0  0  0  0  0
    3.0601   -3.5289    0.5064 H   0  0  0  0  0  0  0  0  0  0  0  0
    2.0010   -5.4676   -1.2056 H   0  0  0  0  0  0  0  0  0  0  0  0
    2.0977   -8.5805    1.2505 H   0  0  0  0  0  0  0  0  0  0  0  0
    3.7840   -8.4266    1.7599 H   0  0  0  0  0  0  0  0  0  0  0  0
    3.3554   -9.7631    3.6051 H   0  0  0  0  0  0  0  0  0  0  0  0
    1.1451  -10.6351    2.3109 H   0  0  0  0  0  0  0  0  0  0  0  0
    0.3988  -11.7808    4.3709 H   0  0  0  0  0  0  0  0  0  0  0  0
    2.1082  -11.5251    4.6849 H   0  0  0  0  0  0  0  0  0  0  0  0
   -0.1799  -10.3305    6.0601 H   0  0  0  0  0  0  0  0  0  0  0  0
    1.5125  -10.0283    6.4254 H   0  0  0  0  0  0  0  0  0  0  0  0
    0.0740   -7.9562    5.4324 H   0  0  0  0  0  0  0  0  0  0  0  0
   -0.0172   -8.3296    2.8161 H   0  0  0  0  0  0  0  0  0  0  0  0
   -0.8884   -9.6346    3.6429 H   0  0  0  0  0  0  0  0  0  0  0  0
    2.7700   -8.2639    5.3445 H   0  0  0  0  0  0  0  0  0  0  0  0
  1  2  1  0
  1 23  1  0
  1 24  1  0
  1 25  1  0
  2  3  1  0
  2 26  1  0
  2 27  1  0
  3  4  1  0
  4  5  2  0
  4  6  1  0
  6  7  1  0
  6 28  1  0
  7 11  2  0
  7  8  1  0
  8  9  1  0
  9 22  1  0
  9 10  2  0
 10 11  1  0
 10 15  1  0
 11 12  1  0
 12 13  1  0
 12 14  1  0
 12 29  1  0
 13 30  1  0
 14 31  1  0
 15 16  1  0
 15 32  1  0
 15 33  1  0
 16 22  1  0
 16 17  1  0
 16 34  1  1
 17 21  1  0
 17 18  1  0
 17 35  1  6
 18 19  1  0
 18 36  1  0
 18 37  1  0
 19 20  1  0
 19 38  1  0
 19 39  1  0
 20 21  1  0
 20 22  1  0
 20 40  1  1
 21 41  1  0
 21 42  1  0
 22 43  1  1
M  END
>  <i_m_ct_stereo_status>  (80) 
1

>  <s_m_source_file>  (80) 
/var/tmp/pbs.5076255.sched01/tmp0qfm3vo4/0bcu552to.sdf

>  <i_m_source_file_index>  (80) 
30

>  <i_lp_mmshare_version>  (80) 
48012

>  <i_f3d_flags>  (80) 
0

>  <s_epik_input>  (80) 
W0NIM11bQ0gyXU9DKD1PKVtOSF1jKHMxKWMoW0NIXShbT0hdKVtPSF0pYyhjMTIpW0NIMl1bQ0BASF0zW0NASF00W0NIMl1bQ0gyXVtDQEhdKFtDSDJdNClbQ0BIXTIz

>  <s_epik_cmdline>  (80) 
J2VwaWtfcHl0aG9uJywgJy1waHQnLCAnMi4wJywgJy1waCcsICc3LjAnLCAnLXRuJywgJzgnLCAnLW1hJywgJzIwMCcsICctaW1hZScsICc8aW5maWxlLm1hZT4nLCAnLW9tYWUnLCAnPG91dGZpbGUubWFlPic=

>  <r_lp_tautomer_probability>  (80) 
1

>  <r_epik_Ionization_Penalty>  (80) 
1.11872e-06

>  <r_epik_Ionization_Penalty_Charging>  (80) 
0

>  <r_epik_Ionization_Penalty_Neutral>  (80) 
1.11872e-06

>  <r_epik_State_Penalty>  (80) 
-0

>  <r_epik_Charging_Adjusted_Penalty>  (80) 
0

>  <i_epik_Tot_Q>  (80) 
0

>  <i_epik_Tot_abs_Q>  (80) 
0

>  <s_epik_Chemistry_Notes>  (80) 
This compound has an ester and may undergo hydrolysis at high or low pH. This compound contains an acetal/aminal-like group ( X-CH(R)-Y where X, Y are N, S, or O) that may be acid/base labile, releasing an aldehyde.

>  <s_lp_Force_Field>  (80) 
OPLS3e

>  <r_lp_Energy>  (80) 
43.8024

>  <b_lp_Chiralities_Consistent>  (80) 
1

>  <s_lp_Variant>  (80) 
19:0-1

>  <s_i_glide_gridfile>  (80) 
pfpi4k_grid

>  <i_i_glide_lignum>  (80) 
30

>  <i_i_glide_rotatable_bonds>  (80) 
7

>  <r_i_docking_score>  (80) 
-2.82609

>  <r_i_glide_ligand_efficiency>  (80) 
-0.128458

>  <r_i_glide_ligand_efficiency_sa>  (80) 
-0.359946

>  <r_i_glide_ligand_efficiency_ln>  (80) 
-0.690799

>  <r_i_glide_gscore>  (80) 
-2.82609

>  <r_i_glide_lipo>  (80) 
-0.113

>  <r_i_glide_hbond>  (80) 
0

>  <r_i_glide_metal>  (80) 
-0

>  <r_i_glide_rewards>  (80) 
-1.26468

>  <r_i_glide_evdw>  (80) 
-23.4774

>  <r_i_glide_ecoul>  (80) 
-6.36608

>  <r_i_glide_erotb>  (80) 
0.715675

>  <r_i_glide_esite>  (80) 
-0.0353027

>  <r_i_glide_emodel>  (80) 
-35.0993

>  <r_i_glide_energy>  (80) 
-29.8435

>  <r_i_glide_einternal>  (80) 
1.93458

>  <r_i_glide_intrahb_reward>  (80) 
-0

>  <i_i_glide_confnum>  (80) 
6

>  <i_i_glide_posenum>  (80) 
1

>  <r_i_glide_eff_state_penalty>  (80) 
0

>  <ligand_id>  (80) 
19

>  <original_smiles>  (80) 
CCOC(=O)Nc1sc2c(c1C(O)O)CC1C3CCC(C3)C21

>  <smiles>  (80) 
[H]OC([H])(O[H])c1c(N([H])C(=O)OC([H])([H])C([H])([H])[H])sc2c1C([H])([H])C1([H])C2([H])C2([H])C([H])([H])C([H])([H])C1([H])C2([H])[H]

$$$$
20:0:0
     RDKit          3D

 67 72  0  0  1  0  0  0  0  0999 V2000
   -1.1234   -1.4087    5.8068 C   0  0  0  0  0  0  0  0  0  0  0  0
   -0.0987   -0.7845    6.4155 C   0  0  0  0  0  0  0  0  0  0  0  0
    0.5823   -1.3026    7.5982 C   0  0  0  0  0  0  0  0  0  0  0  0
    0.3560   -2.3882    8.1338 O   0  0  0  0  0  0  0  0  0  0  0  0
    1.5339   -0.4013    7.9816 O   0  0  0  0  0  0  0  0  0  0  0  0
    1.3009    0.8569    7.4047 C   0  0  1  0  0  0  0  0  0  0  0  0
    0.4444    1.5693    8.2677 O   0  0  0  0  0  0  0  0  0  0  0  0
    2.6403    1.6646    7.3005 C   0  0  0  0  0  0  0  0  0  0  0  0
    3.7541    1.1527    6.3429 C   0  0  0  0  0  0  0  0  0  0  0  0
    3.5145    1.1599    4.8057 C   0  0  2  0  0  0  0  0  0  0  0  0
    2.7395    2.4139    4.3277 C   0  0  0  0  0  0  0  0  0  0  0  0
    3.2578    3.5135    4.2284 O   0  0  0  0  0  0  0  0  0  0  0  0
    1.2365    2.1268    4.0839 C   0  0  2  0  0  0  0  0  0  0  0  0
    0.8790    2.1342    2.5702 C   0  0  0  0  0  0  0  0  0  0  0  0
   -0.6278    1.9614    2.3452 C   0  0  1  0  0  0  0  0  0  0  0  0
   -1.1156    0.6556    2.6892 O   0  0  0  0  0  0  0  0  0  0  0  0
   -1.3649    3.0863    3.0629 C   0  0  1  0  0  0  0  0  0  0  0  0
   -2.7547    2.9778    2.8484 O   0  0  0  0  0  0  0  0  0  0  0  0
   -1.0396    3.0272    4.4230 O   0  0  0  0  0  0  0  0  0  0  0  0
    0.3355    3.2760    4.6763 C   0  0  1  0  0  0  0  0  0  0  0  0
    0.5603    3.4257    6.0443 O   0  0  0  0  0  0  0  0  0  0  0  0
   -0.0550    4.5365    6.6863 C   0  0  0  0  0  0  0  0  0  0  0  0
    1.1516    0.6684    4.6881 C   0  0  2  0  0  0  0  0  0  0  0  0
    0.4808    0.5595    6.1089 C   0  0  1  0  0  0  0  0  0  0  0  0
    2.5655    0.0312    4.4144 C   0  0  2  0  0  0  0  0  0  0  0  0
    2.8051   -1.3821    5.0330 C   0  0  0  0  0  0  0  0  0  0  0  0
    2.0283   -2.3836    4.1533 C   0  0  1  0  0  0  0  0  0  0  0  0
    2.3091   -1.6823    2.8850 C   0  0  0  0  0  0  0  0  0  0  0  0
    2.7150   -0.3920    2.9339 C   0  0  0  0  0  0  0  0  0  0  0  0
    3.6592    0.2330    1.9101 C   0  0  0  0  0  0  0  0  0  0  0  0
    2.7782   -2.8310    2.1504 C   0  0  0  0  0  0  0  0  0  0  0  0
    3.2303   -2.9965    1.0316 O   0  0  0  0  0  0  0  0  0  0  0  0
    2.6346   -3.6551    3.4635 C   0  0  0  0  0  0  0  0  0  0  0  0
    3.9762   -4.1418    4.0132 C   0  0  0  0  0  0  0  0  0  0  0  0
    1.6763   -4.8362    3.3103 C   0  0  0  0  0  0  0  0  0  0  0  0
   -1.6512   -0.9756    4.9704 H   0  0  0  0  0  0  0  0  0  0  0  0
   -1.4628   -2.3705    6.1508 H   0  0  0  0  0  0  0  0  0  0  0  0
    0.9456    1.8274    9.0531 H   0  0  0  0  0  0  0  0  0  0  0  0
    2.4508    2.7327    7.1477 H   0  0  0  0  0  0  0  0  0  0  0  0
    3.0625    1.6478    8.3146 H   0  0  0  0  0  0  0  0  0  0  0  0
    4.5902    1.8221    6.5088 H   0  0  0  0  0  0  0  0  0  0  0  0
    4.1073    0.1758    6.6814 H   0  0  0  0  0  0  0  0  0  0  0  0
    4.4875    1.1099    4.2839 H   0  0  0  0  0  0  0  0  0  0  0  0
    1.2396    3.0724    2.1512 H   0  0  0  0  0  0  0  0  0  0  0  0
    1.2912    1.3293    1.9463 H   0  0  0  0  0  0  0  0  0  0  0  0
   -0.7447    2.0625    1.2749 H   0  0  0  0  0  0  0  0  0  0  0  0
   -2.0827    0.6303    2.5899 H   0  0  0  0  0  0  0  0  0  0  0  0
   -1.0723    4.0329    2.6435 H   0  0  0  0  0  0  0  0  0  0  0  0
   -2.9923    2.0661    2.9461 H   0  0  0  0  0  0  0  0  0  0  0  0
    0.5931    4.2316    4.2111 H   0  0  0  0  0  0  0  0  0  0  0  0
    0.1768    4.4623    7.7468 H   0  0  0  0  0  0  0  0  0  0  0  0
   -1.1409    4.5183    6.5903 H   0  0  0  0  0  0  0  0  0  0  0  0
    0.3406    5.4914    6.3313 H   0  0  0  0  0  0  0  0  0  0  0  0
    0.5054    0.0097    4.0743 H   0  0  0  0  0  0  0  0  0  0  0  0
   -0.3934    1.1935    6.1016 H   0  0  0  0  0  0  0  0  0  0  0  0
    3.8804   -1.5827    4.9665 H   0  0  0  0  0  0  0  0  0  0  0  0
    2.5839   -1.4867    6.0794 H   0  0  0  0  0  0  0  0  0  0  0  0
    0.9596   -2.4926    4.3431 H   0  0  0  0  0  0  0  0  0  0  0  0
    3.4713    1.2977    1.7793 H   0  0  0  0  0  0  0  0  0  0  0  0
    3.5538   -0.2311    0.9241 H   0  0  0  0  0  0  0  0  0  0  0  0
    4.7019    0.0966    2.2158 H   0  0  0  0  0  0  0  0  0  0  0  0
    3.8878   -4.3470    5.0822 H   0  0  0  0  0  0  0  0  0  0  0  0
    4.7527   -3.3838    3.8924 H   0  0  0  0  0  0  0  0  0  0  0  0
    4.3196   -5.0584    3.5218 H   0  0  0  0  0  0  0  0  0  0  0  0
    1.3834   -5.2231    4.2888 H   0  0  0  0  0  0  0  0  0  0  0  0
    2.1166   -5.6582    2.7369 H   0  0  0  0  0  0  0  0  0  0  0  0
    0.7554   -4.5318    2.8173 H   0  0  0  0  0  0  0  0  0  0  0  0
  1  2  2  0
  1 36  1  0
  1 37  1  0
  2 24  1  0
  2  3  1  0
  3  4  2  0
  3  5  1  0
  5  6  1  0
  6 24  1  0
  6  7  1  1
  6  8  1  0
  7 38  1  0
  8  9  1  0
  8 39  1  0
  8 40  1  0
  9 10  1  0
  9 41  1  0
  9 42  1  0
 10 25  1  0
 10 11  1  0
 10 43  1  6
 11 12  2  0
 11 13  1  0
 13 20  1  0
 13 14  1  6
 13 23  1  0
 14 15  1  0
 14 44  1  0
 14 45  1  0
 15 16  1  0
 15 17  1  0
 15 46  1  6
 16 47  1  0
 17 18  1  0
 17 19  1  0
 17 48  1  6
 18 49  1  0
 19 20  1  0
 20 21  1  0
 20 50  1  6
 21 22  1  0
 22 51  1  0
 22 52  1  0
 22 53  1  0
 23 24  1  0
 23 25  1  0
 23 54  1  6
 24 55  1  6
 25 29  1  0
 25 26  1  1
 26 27  1  0
 26 56  1  0
 26 57  1  0
 27 33  1  0
 27 28  1  0
 27 58  1  1
 28 29  2  0
 28 31  1  0
 29 30  1  0
 30 59  1  0
 30 60  1  0
 30 61  1  0
 31 32  2  0
 31 33  1  0
 33 34  1  0
 33 35  1  0
 34 62  1  0
 34 63  1  0
 34 64  1  0
 35 65  1  0
 35 66  1  0
 35 67  1  0
M  END
>  <i_m_ct_stereo_status>  (81) 
1

>  <s_m_source_file>  (81) 
/var/tmp/pbs.5076255.sched01/tmp0qfm3vo4/0bcu552to.sdf

>  <i_m_source_file_index>  (81) 
31

>  <i_lp_mmshare_version>  (81) 
48012

>  <i_f3d_flags>  (81) 
0

>  <s_epik_input>  (81) 
Tz1DKE8xKUMoPVtDSDJdKVtDQEhdMltDQF0xKFtPSF0pW0NIMl1bQ0gyXVtDQEhdKEMzPU8pW0NAQF00KFtDSDJdW0NASF01Qyg9QzRbQ0gzXSlDKD1PKUM1KFtDSDNdKVtDSDNdKVtDQEBIXTJbQ0BdMzZbQ0gyXVtDQEBIXShbT0hdKVtDQEBIXShbT0hdKU9bQ0BIXTZPW0NIM10=

>  <s_epik_cmdline>  (81) 
J2VwaWtfcHl0aG9uJywgJy1waHQnLCAnMi4wJywgJy1waCcsICc3LjAnLCAnLXRuJywgJzgnLCAnLW1hJywgJzIwMCcsICctaW1hZScsICc8aW5maWxlLm1hZT4nLCAnLW9tYWUnLCAnPG91dGZpbGUubWFlPic=

>  <r_lp_tautomer_probability>  (81) 
1

>  <r_epik_Ionization_Penalty>  (81) 
0.000256136

>  <r_epik_Ionization_Penalty_Charging>  (81) 
0

>  <r_epik_Ionization_Penalty_Neutral>  (81) 
0.000256136

>  <r_epik_State_Penalty>  (81) 
-0

>  <r_epik_Charging_Adjusted_Penalty>  (81) 
0

>  <i_epik_Tot_Q>  (81) 
0

>  <i_epik_Tot_abs_Q>  (81) 
0

>  <s_epik_Chemistry_Notes>  (81) 
This compound has an ester and may undergo hydrolysis at high or low pH. This compound contains an acetal/aminal-like group ( X-CH(R)-Y where X, Y are N, S, or O) that may be acid/base labile, releasing an aldehyde.

>  <s_lp_Force_Field>  (81) 
OPLS3e

>  <r_lp_Energy>  (81) 
71.8802

>  <b_lp_Chiralities_Consistent>  (81) 
1

>  <s_lp_Variant>  (81) 
20:0-1

>  <s_i_glide_gridfile>  (81) 
pfpi4k_grid

>  <i_i_glide_lignum>  (81) 
31

>  <i_i_glide_rotatable_bonds>  (81) 
4

>  <r_i_docking_score>  (81) 
-2.3166

>  <r_i_glide_ligand_efficiency>  (81) 
-0.0661885

>  <r_i_glide_ligand_efficiency_sa>  (81) 
-0.216507

>  <r_i_glide_ligand_efficiency_ln>  (81) 
-0.508544

>  <r_i_glide_gscore>  (81) 
-2.3166

>  <r_i_glide_lipo>  (81) 
-0.0335118

>  <r_i_glide_hbond>  (81) 
-0.00282879

>  <r_i_glide_metal>  (81) 
-0

>  <r_i_glide_rewards>  (81) 
-0.0782258

>  <r_i_glide_evdw>  (81) 
-20.5193

>  <r_i_glide_ecoul>  (81) 
-6.85177

>  <r_i_glide_erotb>  (81) 
0

>  <r_i_glide_esite>  (81) 
-0.148299

>  <r_i_glide_emodel>  (81) 
-29.5338

>  <r_i_glide_energy>  (81) 
-27.3711

>  <r_i_glide_einternal>  (81) 
0.722491

>  <r_i_glide_intrahb_reward>  (81) 
-0

>  <i_i_glide_confnum>  (81) 
2

>  <i_i_glide_posenum>  (81) 
33

>  <r_i_glide_eff_state_penalty>  (81) 
0

>  <ligand_id>  (81) 
20

>  <original_smiles>  (81) 
C=C1C(=O)OC2(O)CCC3C(=O)C4(CC(O)C(O)OC4OC)C(C12)C31CC2C(=C1C)C(=O)C2(C)C

>  <smiles>  (81) 
[H]OC1([H])OC([H])(OC([H])([H])[H])C2(C(=O)C3([H])C([H])([H])C([H])([H])C4(O[H])OC(=O)C(=C([H])[H])C4([H])C2([H])C32C(C([H])([H])[H])=C3C(=O)C(C([H])([H])[H])(C([H])([H])[H])C3([H])C2([H])[H])C([H])([H])C1([H])O[H]

$$$$
20:0:1
     RDKit          3D

 67 72  0  0  1  0  0  0  0  0999 V2000
   -1.1268   -1.3921    5.3347 C   0  0  0  0  0  0  0  0  0  0  0  0
   -0.4515   -0.7408    6.2985 C   0  0  0  0  0  0  0  0  0  0  0  0
    0.2251   -1.4024    7.4072 C   0  0  0  0  0  0  0  0  0  0  0  0
    0.3385   -2.6190    7.5474 O   0  0  0  0  0  0  0  0  0  0  0  0
    0.7515   -0.4454    8.2332 O   0  0  0  0  0  0  0  0  0  0  0  0
    0.1798    0.8071    7.9850 C   0  0  1  0  0  0  0  0  0  0  0  0
   -0.9673    0.9238    8.8296 O   0  0  0  0  0  0  0  0  0  0  0  0
    1.1369    1.9598    8.4270 C   0  0  0  0  0  0  0  0  0  0  0  0
    2.4625    2.1540    7.6357 C   0  0  0  0  0  0  0  0  0  0  0  0
    2.3942    2.6169    6.1529 C   0  0  2  0  0  0  0  0  0  0  0  0
    1.2870    3.6601    5.8750 C   0  0  0  0  0  0  0  0  0  0  0  0
    1.3985    4.8410    6.1927 O   0  0  0  0  0  0  0  0  0  0  0  0
    0.0297    3.0461    5.2208 C   0  0  2  0  0  0  0  0  0  0  0  0
   -0.1296    3.4794    3.7236 C   0  0  0  0  0  0  0  0  0  0  0  0
   -1.4239    2.9306    3.0925 C   0  0  1  0  0  0  0  0  0  0  0  0
   -1.4460    1.5251    2.8864 O   0  0  0  0  0  0  0  0  0  0  0  0
   -2.5908    3.4289    3.9361 C   0  0  1  0  0  0  0  0  0  0  0  0
   -3.7795    2.9466    3.3387 O   0  0  0  0  0  0  0  0  0  0  0  0
   -2.4258    3.0354    5.2617 O   0  0  0  0  0  0  0  0  0  0  0  0
   -1.3031    3.5799    5.9056 C   0  0  1  0  0  0  0  0  0  0  0  0
   -1.2941    3.3286    7.2755 O   0  0  0  0  0  0  0  0  0  0  0  0
   -2.3629    3.8853    8.0467 C   0  0  0  0  0  0  0  0  0  0  0  0
    0.3778    1.5105    5.3569 C   0  0  2  0  0  0  0  0  0  0  0  0
   -0.3508    0.7342    6.5235 C   0  0  1  0  0  0  0  0  0  0  0  0
    1.9533    1.4544    5.2666 C   0  0  2  0  0  0  0  0  0  0  0  0
    2.6091    0.0536    5.4947 C   0  0  0  0  0  0  0  0  0  0  0  0
    2.3477   -0.7643    4.2192 C   0  0  1  0  0  0  0  0  0  0  0  0
    2.5125    0.3763    3.3008 C   0  0  0  0  0  0  0  0  0  0  0  0
    2.3867    1.6222    3.8077 C   0  0  0  0  0  0  0  0  0  0  0  0
    3.1283    2.8417    3.2721 C   0  0  0  0  0  0  0  0  0  0  0  0
    3.4195   -0.2532    2.3899 C   0  0  0  0  0  0  0  0  0  0  0  0
    4.0356    0.1324    1.3913 O   0  0  0  0  0  0  0  0  0  0  0  0
    3.4403   -1.4924    3.3401 C   0  0  0  0  0  0  0  0  0  0  0  0
    4.7935   -1.7029    4.0094 C   0  0  0  0  0  0  0  0  0  0  0  0
    2.9821   -2.7609    2.6402 C   0  0  0  0  0  0  0  0  0  0  0  0
   -1.6717   -0.8837    4.5590 H   0  0  0  0  0  0  0  0  0  0  0  0
   -1.1459   -2.4706    5.3152 H   0  0  0  0  0  0  0  0  0  0  0  0
   -0.6485    1.1776    9.6933 H   0  0  0  0  0  0  0  0  0  0  0  0
    0.6044    2.9066    8.5340 H   0  0  0  0  0  0  0  0  0  0  0  0
    1.4138    1.7291    9.4586 H   0  0  0  0  0  0  0  0  0  0  0  0
    2.9838    2.9491    8.1761 H   0  0  0  0  0  0  0  0  0  0  0  0
    3.0842    1.2739    7.7591 H   0  0  0  0  0  0  0  0  0  0  0  0
    3.3807    3.0329    5.8756 H   0  0  0  0  0  0  0  0  0  0  0  0
   -0.1210    4.5604    3.6742 H   0  0  0  0  0  0  0  0  0  0  0  0
    0.6165    3.0920    3.0104 H   0  0  0  0  0  0  0  0  0  0  0  0
   -1.5139    3.4119    2.1196 H   0  0  0  0  0  0  0  0  0  0  0  0
   -2.3259    1.2393    2.7152 H   0  0  0  0  0  0  0  0  0  0  0  0
   -2.5979    4.5044    3.8810 H   0  0  0  0  0  0  0  0  0  0  0  0
   -3.7680    1.9903    3.3353 H   0  0  0  0  0  0  0  0  0  0  0  0
   -1.3261    4.6743    5.8130 H   0  0  0  0  0  0  0  0  0  0  0  0
   -2.2401    3.5332    9.0724 H   0  0  0  0  0  0  0  0  0  0  0  0
   -3.3367    3.5361    7.7053 H   0  0  0  0  0  0  0  0  0  0  0  0
   -2.3404    4.9752    8.0761 H   0  0  0  0  0  0  0  0  0  0  0  0
    0.0828    0.9460    4.4595 H   0  0  0  0  0  0  0  0  0  0  0  0
   -1.3821    1.0435    6.5005 H   0  0  0  0  0  0  0  0  0  0  0  0
    3.6927    0.2227    5.6168 H   0  0  0  0  0  0  0  0  0  0  0  0
    2.3292   -0.4584    6.3935 H   0  0  0  0  0  0  0  0  0  0  0  0
    1.3669   -1.2421    4.1199 H   0  0  0  0  0  0  0  0  0  0  0  0
    2.6170    3.7954    3.4029 H   0  0  0  0  0  0  0  0  0  0  0  0
    3.2972    2.7135    2.2017 H   0  0  0  0  0  0  0  0  0  0  0  0
    4.0951    2.8958    3.7677 H   0  0  0  0  0  0  0  0  0  0  0  0
    4.6681   -2.2798    4.9389 H   0  0  0  0  0  0  0  0  0  0  0  0
    5.2574   -0.7567    4.2847 H   0  0  0  0  0  0  0  0  0  0  0  0
    5.4912   -2.2507    3.3717 H   0  0  0  0  0  0  0  0  0  0  0  0
    2.7216   -3.5389    3.3759 H   0  0  0  0  0  0  0  0  0  0  0  0
    3.7485   -3.1687    1.9794 H   0  0  0  0  0  0  0  0  0  0  0  0
    2.0868   -2.5865    2.0425 H   0  0  0  0  0  0  0  0  0  0  0  0
  1  2  2  0
  1 36  1  0
  1 37  1  0
  2 24  1  0
  2  3  1  0
  3  4  2  0
  3  5  1  0
  5  6  1  0
  6 24  1  0
  6  7  1  1
  6  8  1  0
  7 38  1  0
  8  9  1  0
  8 39  1  0
  8 40  1  0
  9 10  1  0
  9 41  1  0
  9 42  1  0
 10 25  1  0
 10 11  1  0
 10 43  1  6
 11 12  2  0
 11 13  1  0
 13 20  1  0
 13 14  1  6
 13 23  1  0
 14 15  1  0
 14 44  1  0
 14 45  1  0
 15 16  1  0
 15 17  1  0
 15 46  1  6
 16 47  1  0
 17 18  1  0
 17 19  1  0
 17 48  1  1
 18 49  1  0
 19 20  1  0
 20 21  1  0
 20 50  1  1
 21 22  1  0
 22 51  1  0
 22 52  1  0
 22 53  1  0
 23 24  1  0
 23 25  1  0
 23 54  1  6
 24 55  1  1
 25 29  1  0
 25 26  1  1
 26 27  1  0
 26 56  1  0
 26 57  1  0
 27 33  1  0
 27 28  1  0
 27 58  1  1
 28 29  2  0
 28 31  1  0
 29 30  1  0
 30 59  1  0
 30 60  1  0
 30 61  1  0
 31 32  2  0
 31 33  1  0
 33 34  1  0
 33 35  1  0
 34 62  1  0
 34 63  1  0
 34 64  1  0
 35 65  1  0
 35 66  1  0
 35 67  1  0
M  END
>  <i_m_ct_stereo_status>  (82) 
1

>  <s_m_source_file>  (82) 
/var/tmp/pbs.5076255.sched01/tmp0qfm3vo4/0bcu552to.sdf

>  <i_m_source_file_index>  (82) 
31

>  <i_lp_mmshare_version>  (82) 
48012

>  <i_f3d_flags>  (82) 
0

>  <s_epik_input>  (82) 
Tz1DKE8xKUMoPVtDSDJdKVtDQEhdMltDQF0xKFtPSF0pW0NIMl1bQ0gyXVtDQEhdKEMzPU8pW0NAQF00KFtDSDJdW0NASF01Qyg9QzRbQ0gzXSlDKD1PKUM1KFtDSDNdKVtDSDNdKVtDQEBIXTJbQ0BdMzZbQ0gyXVtDQEBIXShbT0hdKVtDQEBIXShbT0hdKU9bQ0BIXTZPW0NIM10=

>  <s_epik_cmdline>  (82) 
J2VwaWtfcHl0aG9uJywgJy1waHQnLCAnMi4wJywgJy1waCcsICc3LjAnLCAnLXRuJywgJzgnLCAnLW1hJywgJzIwMCcsICctaW1hZScsICc8aW5maWxlLm1hZT4nLCAnLW9tYWUnLCAnPG91dGZpbGUubWFlPic=

>  <r_lp_tautomer_probability>  (82) 
1

>  <r_epik_Ionization_Penalty>  (82) 
0.000256136

>  <r_epik_Ionization_Penalty_Charging>  (82) 
0

>  <r_epik_Ionization_Penalty_Neutral>  (82) 
0.000256136

>  <r_epik_State_Penalty>  (82) 
-0

>  <r_epik_Charging_Adjusted_Penalty>  (82) 
0

>  <i_epik_Tot_Q>  (82) 
0

>  <i_epik_Tot_abs_Q>  (82) 
0

>  <s_epik_Chemistry_Notes>  (82) 
This compound has an ester and may undergo hydrolysis at high or low pH. This compound contains an acetal/aminal-like group ( X-CH(R)-Y where X, Y are N, S, or O) that may be acid/base labile, releasing an aldehyde.

>  <s_lp_Force_Field>  (82) 
OPLS3e

>  <r_lp_Energy>  (82) 
71.8802

>  <b_lp_Chiralities_Consistent>  (82) 
1

>  <s_lp_Variant>  (82) 
20:0-1

>  <s_i_glide_gridfile>  (82) 
pfpi4k_grid

>  <i_i_glide_lignum>  (82) 
31

>  <i_i_glide_rotatable_bonds>  (82) 
4

>  <r_i_docking_score>  (82) 
-2.27037

>  <r_i_glide_ligand_efficiency>  (82) 
-0.0648677

>  <r_i_glide_ligand_efficiency_sa>  (82) 
-0.212186

>  <r_i_glide_ligand_efficiency_ln>  (82) 
-0.498396

>  <r_i_glide_gscore>  (82) 
-2.27037

>  <r_i_glide_lipo>  (82) 
-0.0961532

>  <r_i_glide_hbond>  (82) 
0

>  <r_i_glide_metal>  (82) 
-0

>  <r_i_glide_rewards>  (82) 
-0.0893815

>  <r_i_glide_evdw>  (82) 
-19.6137

>  <r_i_glide_ecoul>  (82) 
-6.58099

>  <r_i_glide_erotb>  (82) 
0

>  <r_i_glide_esite>  (82) 
-0.117001

>  <r_i_glide_emodel>  (82) 
-28.5564

>  <r_i_glide_energy>  (82) 
-26.1947

>  <r_i_glide_einternal>  (82) 
0.611098

>  <r_i_glide_intrahb_reward>  (82) 
-0

>  <i_i_glide_confnum>  (82) 
2

>  <i_i_glide_posenum>  (82) 
15

>  <r_i_glide_eff_state_penalty>  (82) 
0

>  <ligand_id>  (82) 
20

>  <original_smiles>  (82) 
C=C1C(=O)OC2(O)CCC3C(=O)C4(CC(O)C(O)OC4OC)C(C12)C31CC2C(=C1C)C(=O)C2(C)C

>  <smiles>  (82) 
[H]OC1([H])OC([H])(OC([H])([H])[H])C2(C(=O)C3([H])C([H])([H])C([H])([H])C4(O[H])OC(=O)C(=C([H])[H])C4([H])C2([H])C32C(C([H])([H])[H])=C3C(=O)C(C([H])([H])[H])(C([H])([H])[H])C3([H])C2([H])[H])C([H])([H])C1([H])O[H]

$$$$
20:0:2
     RDKit          3D

 67 72  0  0  1  0  0  0  0  0999 V2000
    2.5327    3.6268    3.1389 C   0  0  0  0  0  0  0  0  0  0  0  0
    2.9287    3.6514    4.4410 C   0  0  0  0  0  0  0  0  0  0  0  0
    2.6979    4.7892    5.3280 C   0  0  0  0  0  0  0  0  0  0  0  0
    2.0280    5.7850    5.0761 O   0  0  0  0  0  0  0  0  0  0  0  0
    3.2753    4.4998    6.5402 O   0  0  0  0  0  0  0  0  0  0  0  0
    4.1851    3.4393    6.4336 C   0  0  1  0  0  0  0  0  0  0  0  0
    5.4499    4.0001    6.1217 O   0  0  0  0  0  0  0  0  0  0  0  0
    4.3438    2.7157    7.8174 C   0  0  0  0  0  0  0  0  0  0  0  0
    3.1348    1.9272    8.3938 C   0  0  0  0  0  0  0  0  0  0  0  0
    2.6390    0.6483    7.6675 C   0  0  2  0  0  0  0  0  0  0  0  0
    3.7712   -0.2194    7.0834 C   0  0  0  0  0  0  0  0  0  0  0  0
    4.4656   -0.9513    7.7901 O   0  0  0  0  0  0  0  0  0  0  0  0
    3.9808   -0.0184    5.5647 C   0  0  2  0  0  0  0  0  0  0  0  0
    3.5165   -1.2683    4.7363 C   0  0  0  0  0  0  0  0  0  0  0  0
    3.8233   -1.1102    3.2368 C   0  0  1  0  0  0  0  0  0  0  0  0
    3.0185   -0.1485    2.5642 O   0  0  0  0  0  0  0  0  0  0  0  0
    5.3160   -0.8512    3.0669 C   0  0  1  0  0  0  0  0  0  0  0  0
    5.6321   -0.7009    1.7032 O   0  0  0  0  0  0  0  0  0  0  0  0
    5.6887    0.2635    3.8235 O   0  0  0  0  0  0  0  0  0  0  0  0
    5.5165    0.1221    5.2137 C   0  0  1  0  0  0  0  0  0  0  0  0
    6.1016    1.1826    5.9095 O   0  0  0  0  0  0  0  0  0  0  0  0
    7.5172    1.3082    5.8297 C   0  0  0  0  0  0  0  0  0  0  0  0
    3.0130    1.2204    5.3213 C   0  0  2  0  0  0  0  0  0  0  0  0
    3.7210    2.6280    5.1761 C   0  0  1  0  0  0  0  0  0  0  0  0
    1.8720    1.0368    6.4043 C   0  0  2  0  0  0  0  0  0  0  0  0
    0.8266    2.1932    6.4993 C   0  0  0  0  0  0  0  0  0  0  0  0
   -0.0822    2.0546    5.2544 C   0  0  1  0  0  0  0  0  0  0  0  0
   -0.0804    0.5753    5.2574 C   0  0  0  0  0  0  0  0  0  0  0  0
    0.8793   -0.0597    5.9481 C   0  0  0  0  0  0  0  0  0  0  0  0
    0.6664   -1.4193    6.6275 C   0  0  0  0  0  0  0  0  0  0  0  0
   -1.4978    0.3964    5.1544 C   0  0  0  0  0  0  0  0  0  0  0  0
   -2.1940   -0.6058    5.2645 O   0  0  0  0  0  0  0  0  0  0  0  0
   -1.6487    1.9527    5.2698 C   0  0  0  0  0  0  0  0  0  0  0  0
   -2.3294    2.4022    6.5687 C   0  0  0  0  0  0  0  0  0  0  0  0
   -2.3539    2.5688    4.0570 C   0  0  0  0  0  0  0  0  0  0  0  0
    2.7545    2.7951    2.4992 H   0  0  0  0  0  0  0  0  0  0  0  0
    1.9810    4.4398    2.7113 H   0  0  0  0  0  0  0  0  0  0  0  0
    5.7672    4.4801    6.8861 H   0  0  0  0  0  0  0  0  0  0  0  0
    5.2519    2.1091    7.8381 H   0  0  0  0  0  0  0  0  0  0  0  0
    4.5811    3.5124    8.5340 H   0  0  0  0  0  0  0  0  0  0  0  0
    3.4610    1.5971    9.3756 H   0  0  0  0  0  0  0  0  0  0  0  0
    2.3189    2.6205    8.5964 H   0  0  0  0  0  0  0  0  0  0  0  0
    2.0397    0.0516    8.3713 H   0  0  0  0  0  0  0  0  0  0  0  0
    4.0579   -2.1309    5.1185 H   0  0  0  0  0  0  0  0  0  0  0  0
    2.4350   -1.4817    4.7436 H   0  0  0  0  0  0  0  0  0  0  0  0
    3.6096   -2.0739    2.7707 H   0  0  0  0  0  0  0  0  0  0  0  0
    3.3444   -0.0945    1.6631 H   0  0  0  0  0  0  0  0  0  0  0  0
    5.8254   -1.7238    3.4080 H   0  0  0  0  0  0  0  0  0  0  0  0
    6.5547   -0.4936    1.6575 H   0  0  0  0  0  0  0  0  0  0  0  0
    6.0474   -0.7777    5.5379 H   0  0  0  0  0  0  0  0  0  0  0  0
    7.7886    2.2120    6.3721 H   0  0  0  0  0  0  0  0  0  0  0  0
    7.8697    1.4271    4.8061 H   0  0  0  0  0  0  0  0  0  0  0  0
    8.0409    0.4788    6.3051 H   0  0  0  0  0  0  0  0  0  0  0  0
    2.4761    1.1017    4.3523 H   0  0  0  0  0  0  0  0  0  0  0  0
    4.5728    2.4695    4.5430 H   0  0  0  0  0  0  0  0  0  0  0  0
    0.2400    2.0414    7.4151 H   0  0  0  0  0  0  0  0  0  0  0  0
    1.2299    3.1806    6.6131 H   0  0  0  0  0  0  0  0  0  0  0  0
    0.2864    2.4774    4.3165 H   0  0  0  0  0  0  0  0  0  0  0  0
    1.5814   -2.0098    6.6807 H   0  0  0  0  0  0  0  0  0  0  0  0
   -0.0753   -2.0276    6.0969 H   0  0  0  0  0  0  0  0  0  0  0  0
    0.2866   -1.2835    7.6428 H   0  0  0  0  0  0  0  0  0  0  0  0
   -2.0496    3.4341    6.8032 H   0  0  0  0  0  0  0  0  0  0  0  0
   -2.0204    1.7907    7.4197 H   0  0  0  0  0  0  0  0  0  0  0  0
   -3.4186    2.3723    6.5114 H   0  0  0  0  0  0  0  0  0  0  0  0
   -2.1851    3.6484    4.0164 H   0  0  0  0  0  0  0  0  0  0  0  0
   -3.4318    2.4164    4.0602 H   0  0  0  0  0  0  0  0  0  0  0  0
   -1.9760    2.1487    3.1256 H   0  0  0  0  0  0  0  0  0  0  0  0
  1  2  2  0
  1 36  1  0
  1 37  1  0
  2 24  1  0
  2  3  1  0
  3  4  2  0
  3  5  1  0
  5  6  1  0
  6 24  1  0
  6  7  1  6
  6  8  1  0
  7 38  1  0
  8  9  1  0
  8 39  1  0
  8 40  1  0
  9 10  1  0
  9 41  1  0
  9 42  1  0
 10 25  1  0
 10 11  1  0
 10 43  1  1
 11 12  2  0
 11 13  1  0
 13 20  1  0
 13 14  1  6
 13 23  1  0
 14 15  1  0
 14 44  1  0
 14 45  1  0
 15 16  1  0
 15 17  1  0
 15 46  1  6
 16 47  1  0
 17 18  1  0
 17 19  1  0
 17 48  1  1
 18 49  1  0
 19 20  1  0
 20 21  1  0
 20 50  1  1
 21 22  1  0
 22 51  1  0
 22 52  1  0
 22 53  1  0
 23 24  1  0
 23 25  1  0
 23 54  1  6
 24 55  1  6
 25 29  1  0
 25 26  1  1
 26 27  1  0
 26 56  1  0
 26 57  1  0
 27 33  1  0
 27 28  1  0
 27 58  1  6
 28 29  2  0
 28 31  1  0
 29 30  1  0
 30 59  1  0
 30 60  1  0
 30 61  1  0
 31 32  2  0
 31 33  1  0
 33 34  1  0
 33 35  1  0
 34 62  1  0
 34 63  1  0
 34 64  1  0
 35 65  1  0
 35 66  1  0
 35 67  1  0
M  END
>  <i_m_ct_stereo_status>  (83) 
1

>  <s_m_source_file>  (83) 
/var/tmp/pbs.5076255.sched01/tmp0qfm3vo4/0bcu552to.sdf

>  <i_m_source_file_index>  (83) 
31

>  <i_lp_mmshare_version>  (83) 
48012

>  <i_f3d_flags>  (83) 
0

>  <s_epik_input>  (83) 
Tz1DKE8xKUMoPVtDSDJdKVtDQEhdMltDQF0xKFtPSF0pW0NIMl1bQ0gyXVtDQEhdKEMzPU8pW0NAQF00KFtDSDJdW0NASF01Qyg9QzRbQ0gzXSlDKD1PKUM1KFtDSDNdKVtDSDNdKVtDQEBIXTJbQ0BdMzZbQ0gyXVtDQEBIXShbT0hdKVtDQEBIXShbT0hdKU9bQ0BIXTZPW0NIM10=

>  <s_epik_cmdline>  (83) 
J2VwaWtfcHl0aG9uJywgJy1waHQnLCAnMi4wJywgJy1waCcsICc3LjAnLCAnLXRuJywgJzgnLCAnLW1hJywgJzIwMCcsICctaW1hZScsICc8aW5maWxlLm1hZT4nLCAnLW9tYWUnLCAnPG91dGZpbGUubWFlPic=

>  <r_lp_tautomer_probability>  (83) 
1

>  <r_epik_Ionization_Penalty>  (83) 
0.000256136

>  <r_epik_Ionization_Penalty_Charging>  (83) 
0

>  <r_epik_Ionization_Penalty_Neutral>  (83) 
0.000256136

>  <r_epik_State_Penalty>  (83) 
-0

>  <r_epik_Charging_Adjusted_Penalty>  (83) 
0

>  <i_epik_Tot_Q>  (83) 
0

>  <i_epik_Tot_abs_Q>  (83) 
0

>  <s_epik_Chemistry_Notes>  (83) 
This compound has an ester and may undergo hydrolysis at high or low pH. This compound contains an acetal/aminal-like group ( X-CH(R)-Y where X, Y are N, S, or O) that may be acid/base labile, releasing an aldehyde.

>  <s_lp_Force_Field>  (83) 
OPLS3e

>  <r_lp_Energy>  (83) 
71.8802

>  <b_lp_Chiralities_Consistent>  (83) 
1

>  <s_lp_Variant>  (83) 
20:0-1

>  <s_i_glide_gridfile>  (83) 
pfpi4k_grid

>  <i_i_glide_lignum>  (83) 
31

>  <i_i_glide_rotatable_bonds>  (83) 
4

>  <r_i_docking_score>  (83) 
-2.15676

>  <r_i_glide_ligand_efficiency>  (83) 
-0.0616218

>  <r_i_glide_ligand_efficiency_sa>  (83) 
-0.201569

>  <r_i_glide_ligand_efficiency_ln>  (83) 
-0.473457

>  <r_i_glide_gscore>  (83) 
-2.15676

>  <r_i_glide_lipo>  (83) 
-0.147569

>  <r_i_glide_hbond>  (83) 
0

>  <r_i_glide_metal>  (83) 
-0

>  <r_i_glide_rewards>  (83) 
-0.327912

>  <r_i_glide_evdw>  (83) 
-24.5493

>  <r_i_glide_ecoul>  (83) 
-2.75988

>  <r_i_glide_erotb>  (83) 
0

>  <r_i_glide_esite>  (83) 
-0.0398317

>  <r_i_glide_emodel>  (83) 
-29.7171

>  <r_i_glide_energy>  (83) 
-27.3092

>  <r_i_glide_einternal>  (83) 
0.755378

>  <r_i_glide_intrahb_reward>  (83) 
-0

>  <i_i_glide_confnum>  (83) 
1

>  <i_i_glide_posenum>  (83) 
27

>  <r_i_glide_eff_state_penalty>  (83) 
0

>  <ligand_id>  (83) 
20

>  <original_smiles>  (83) 
C=C1C(=O)OC2(O)CCC3C(=O)C4(CC(O)C(O)OC4OC)C(C12)C31CC2C(=C1C)C(=O)C2(C)C

>  <smiles>  (83) 
[H]OC1([H])OC([H])(OC([H])([H])[H])C2(C(=O)C3([H])C([H])([H])C([H])([H])C4(O[H])OC(=O)C(=C([H])[H])C4([H])C2([H])C32C(C([H])([H])[H])=C3C(=O)C(C([H])([H])[H])(C([H])([H])[H])C3([H])C2([H])[H])C([H])([H])C1([H])O[H]

$$$$
21:0:0
     RDKit          3D

 63 68  0  0  1  0  0  0  0  0999 V2000
    2.8138   -3.0484   -1.9756 C   0  0  0  0  0  0  0  0  0  0  0  0
    3.6060   -2.4727   -1.0616 C   0  0  0  0  0  0  0  0  0  0  0  0
    3.1077   -1.8001    0.2382 C   0  0  0  0  0  0  0  0  0  0  0  0
    4.3902   -1.9969    1.0370 C   0  0  2  0  0  0  0  0  0  0  0  0
    5.2837   -1.3421   -0.0873 C   0  0  1  0  0  0  0  0  0  0  0  0
    6.6095   -0.8874    0.1304 O   0  0  0  0  0  0  0  0  0  0  0  0
    5.1391   -2.3674   -1.1501 C   0  0  1  0  0  0  0  0  0  0  0  0
    5.9899   -3.6034   -0.6883 C   0  0  0  0  0  0  0  0  0  0  0  0
    6.6644   -3.5855    0.7577 C   0  0  0  0  0  0  0  0  0  0  0  0
    5.7641   -3.2119    1.9897 C   0  0  2  0  0  0  0  0  0  0  0  0
    4.3697   -3.4819    1.6246 C   0  0  2  0  0  0  0  0  0  0  0  0
    3.5643   -4.7511    1.3081 C   0  0  0  0  0  0  0  0  0  0  0  0
    2.8768   -5.4370    2.5908 C   0  0  1  0  0  0  0  0  0  0  0  0
    2.0244   -6.5820    1.9881 C   0  0  0  0  0  0  0  0  0  0  0  0
    3.9982   -6.0330    3.4926 C   0  0  0  0  0  0  0  0  0  0  0  0
    4.3256   -5.0219    4.6184 C   0  0  0  0  0  0  0  0  0  0  0  0
    3.1225   -4.0975    4.7245 C   0  0  2  0  0  0  0  0  0  0  0  0
    2.0922   -4.5037    3.6486 C   0  0  2  0  0  0  0  0  0  0  0  0
    0.8957   -5.2624    4.2562 C   0  0  0  0  0  0  0  0  0  0  0  0
    1.8621   -2.9733    3.4562 C   0  0  1  0  0  0  0  0  0  0  0  0
    0.5931   -2.4444    3.7734 O   0  0  0  0  0  0  0  0  0  0  0  0
    3.0415   -2.5562    4.3770 C   0  0  1  0  0  0  0  0  0  0  0  0
    2.5723   -1.8826    5.5312 O   0  0  0  0  0  0  0  0  0  0  0  0
    4.2219   -1.5624    3.8164 C   0  0  0  0  0  0  0  0  0  0  0  0
    3.5941   -0.1566    3.6194 C   0  0  0  0  0  0  0  0  0  0  0  0
    5.2955   -1.4437    4.9209 C   0  0  0  0  0  0  0  0  0  0  0  0
    5.0432   -1.7931    2.4324 C   0  0  2  0  0  0  0  0  0  0  0  0
    3.2212   -3.5124   -2.8612 H   0  0  0  0  0  0  0  0  0  0  0  0
    1.7435   -3.0596   -1.8349 H   0  0  0  0  0  0  0  0  0  0  0  0
    2.8503   -0.7456    0.0961 H   0  0  0  0  0  0  0  0  0  0  0  0
    2.2111   -2.3204    0.5479 H   0  0  0  0  0  0  0  0  0  0  0  0
    4.8527   -0.4000   -0.4414 H   0  0  0  0  0  0  0  0  0  0  0  0
    6.6007   -0.2776    0.8538 H   0  0  0  0  0  0  0  0  0  0  0  0
    5.4408   -2.0018   -2.1331 H   0  0  0  0  0  0  0  0  0  0  0  0
    5.4001   -4.5081   -0.8192 H   0  0  0  0  0  0  0  0  0  0  0  0
    6.8063   -3.7086   -1.4050 H   0  0  0  0  0  0  0  0  0  0  0  0
    7.0415   -4.5938    0.9228 H   0  0  0  0  0  0  0  0  0  0  0  0
    7.5800   -2.9968    0.7571 H   0  0  0  0  0  0  0  0  0  0  0  0
    6.1454   -3.7061    2.8724 H   0  0  0  0  0  0  0  0  0  0  0  0
    4.0407   -3.5688    2.5980 H   0  0  0  0  0  0  0  0  0  0  0  0
    2.7945   -4.5335    0.5674 H   0  0  0  0  0  0  0  0  0  0  0  0
    4.2248   -5.4768    0.8335 H   0  0  0  0  0  0  0  0  0  0  0  0
    1.6472   -7.2748    2.7406 H   0  0  0  0  0  0  0  0  0  0  0  0
    2.6143   -7.1816    1.2947 H   0  0  0  0  0  0  0  0  0  0  0  0
    1.1711   -6.1886    1.4341 H   0  0  0  0  0  0  0  0  0  0  0  0
    3.6117   -6.9284    3.9782 H   0  0  0  0  0  0  0  0  0  0  0  0
    4.8853   -6.3474    2.9391 H   0  0  0  0  0  0  0  0  0  0  0  0
    4.4956   -5.5525    5.5531 H   0  0  0  0  0  0  0  0  0  0  0  0
    5.2437   -4.4806    4.4502 H   0  0  0  0  0  0  0  0  0  0  0  0
    2.6662   -4.2301    5.7103 H   0  0  0  0  0  0  0  0  0  0  0  0
    0.4487   -4.6978    5.0739 H   0  0  0  0  0  0  0  0  0  0  0  0
    1.1927   -6.2205    4.6851 H   0  0  0  0  0  0  0  0  0  0  0  0
    0.1066   -5.4417    3.5302 H   0  0  0  0  0  0  0  0  0  0  0  0
    2.0424   -2.7014    2.4472 H   0  0  0  0  0  0  0  0  0  0  0  0
    0.4580   -1.7042    3.2013 H   0  0  0  0  0  0  0  0  0  0  0  0
    2.2025   -1.0648    5.2321 H   0  0  0  0  0  0  0  0  0  0  0  0
    4.3246    0.5551    3.2354 H   0  0  0  0  0  0  0  0  0  0  0  0
    3.2033    0.2907    4.5339 H   0  0  0  0  0  0  0  0  0  0  0  0
    2.7784   -0.1915    2.8948 H   0  0  0  0  0  0  0  0  0  0  0  0
    6.0388   -0.6887    4.6682 H   0  0  0  0  0  0  0  0  0  0  0  0
    5.8117   -2.3885    5.0664 H   0  0  0  0  0  0  0  0  0  0  0  0
    4.8954   -1.1503    5.8886 H   0  0  0  0  0  0  0  0  0  0  0  0
    5.8052   -1.0169    2.3895 H   0  0  0  0  0  0  0  0  0  0  0  0
  1  2  2  0
  1 28  1  0
  1 29  1  0
  2  7  1  0
  2  3  1  0
  4  3  1  1
  3 30  1  0
  3 31  1  0
  4 11  1  0
  4 27  1  0
  4  5  1  0
  5  6  1  0
  5  7  1  0
  5 32  1  6
  6 33  1  0
  7  8  1  0
  7 34  1  6
  8  9  1  0
  8 35  1  0
  8 36  1  0
  9 10  1  0
  9 37  1  0
  9 38  1  0
 10 27  1  0
 10 11  1  0
 10 39  1  1
 11 12  1  0
 11 40  1  1
 12 13  1  0
 12 41  1  0
 12 42  1  0
 13 18  1  0
 13 14  1  6
 13 15  1  0
 14 43  1  0
 14 44  1  0
 14 45  1  0
 15 16  1  0
 15 46  1  0
 15 47  1  0
 16 17  1  0
 16 48  1  0
 16 49  1  0
 17 22  1  0
 17 18  1  0
 17 50  1  1
 18 19  1  1
 18 20  1  0
 19 51  1  0
 19 52  1  0
 19 53  1  0
 20 21  1  0
 20 22  1  0
 20 54  1  6
 21 55  1  0
 22 23  1  1
 22 24  1  0
 23 56  1  0
 24 25  1  0
 24 26  1  0
 24 27  1  0
 25 57  1  0
 25 58  1  0
 25 59  1  0
 26 60  1  0
 26 61  1  0
 26 62  1  0
 27 63  1  6
M  END
>  <i_m_ct_stereo_status>  (84) 
1

>  <s_m_source_file>  (84) 
/var/tmp/pbs.5076255.sched01/tmp0qfm3vo4/0bcu552to.sdf

>  <i_m_source_file_index>  (84) 
32

>  <i_lp_mmshare_version>  (84) 
48012

>  <i_f3d_flags>  (84) 
0

>  <s_epik_input>  (84) 
W0NIMl09QyhbQ0gyXTEpW0NAQEhdKFtDQEBIXTJbT0hdKVtDSDJdW0NIMl1bQ0BIXShbQ0BIXTNbQ0BdMTI0KVtDQEBIXTRDKFtDSDNdKShbQ0gzXSlbQ0BdNShbT0hdKVtDQEhdNltDQEBdKFtDSDNdKShbQ0BIXTVbT0hdKVtDQF0oW0NIMl0zKShbQ0gzXSlbQ0gyXVtDSDJdNg==

>  <s_epik_cmdline>  (84) 
J2VwaWtfcHl0aG9uJywgJy1waHQnLCAnMi4wJywgJy1waCcsICc3LjAnLCAnLXRuJywgJzgnLCAnLW1hJywgJzIwMCcsICctaW1hZScsICc8aW5maWxlLm1hZT4nLCAnLW9tYWUnLCAnPG91dGZpbGUubWFlPic=

>  <r_lp_tautomer_probability>  (84) 
1

>  <r_epik_Ionization_Penalty>  (84) 
4.07682e-06

>  <r_epik_Ionization_Penalty_Charging>  (84) 
0

>  <r_epik_Ionization_Penalty_Neutral>  (84) 
4.07682e-06

>  <r_epik_State_Penalty>  (84) 
-0

>  <r_epik_Charging_Adjusted_Penalty>  (84) 
0

>  <i_epik_Tot_Q>  (84) 
0

>  <i_epik_Tot_abs_Q>  (84) 
0

>  <s_lp_Force_Field>  (84) 
OPLS3e

>  <r_lp_Energy>  (84) 
244.244

>  <b_lp_Chiralities_Consistent>  (84) 
1

>  <s_lp_Variant>  (84) 
21:0-1

>  <s_i_glide_gridfile>  (84) 
pfpi4k_grid

>  <i_i_glide_lignum>  (84) 
32

>  <i_i_glide_rotatable_bonds>  (84) 
3

>  <r_i_docking_score>  (84) 
-2.72726

>  <r_i_glide_ligand_efficiency>  (84) 
-0.10101

>  <r_i_glide_ligand_efficiency_sa>  (84) 
-0.303029

>  <r_i_glide_ligand_efficiency_ln>  (84) 
-0.634862

>  <r_i_glide_gscore>  (84) 
-2.72726

>  <r_i_glide_lipo>  (84) 
-0.373416

>  <r_i_glide_hbond>  (84) 
-0.157237

>  <r_i_glide_metal>  (84) 
-0

>  <r_i_glide_rewards>  (84) 
-0.86904

>  <r_i_glide_evdw>  (84) 
-17.0418

>  <r_i_glide_ecoul>  (84) 
-3.16988

>  <r_i_glide_erotb>  (84) 
0

>  <r_i_glide_esite>  (84) 
0

>  <r_i_glide_emodel>  (84) 
-22.6673

>  <r_i_glide_energy>  (84) 
-20.2117

>  <r_i_glide_einternal>  (84) 
2.2067

>  <r_i_glide_intrahb_reward>  (84) 
-0

>  <i_i_glide_confnum>  (84) 
2

>  <i_i_glide_posenum>  (84) 
31

>  <r_i_glide_eff_state_penalty>  (84) 
0

>  <ligand_id>  (84) 
21

>  <original_smiles>  (84) 
C=C1CC23C(O)C1CCC1C2CC2(C)CCC4C2(C)C(O)C4(O)C(C)(C)C13

>  <smiles>  (84) 
[H]OC1([H])C2([H])C(=C([H])[H])C([H])([H])C13C1([H])C([H])([H])C4(C([H])([H])[H])C([H])([H])C([H])([H])C5([H])C(O[H])(C([H])(O[H])C54C([H])([H])[H])C(C([H])([H])[H])(C([H])([H])[H])C3([H])C1([H])C([H])([H])C2([H])[H]

$$$$
21:0:1
     RDKit          3D

 63 68  0  0  1  0  0  0  0  0999 V2000
    2.7362   -3.0782   -1.7371 C   0  0  0  0  0  0  0  0  0  0  0  0
    3.5404   -2.5789   -0.7901 C   0  0  0  0  0  0  0  0  0  0  0  0
    3.0525   -1.9283    0.5244 C   0  0  0  0  0  0  0  0  0  0  0  0
    4.3157   -2.2079    1.3306 C   0  0  2  0  0  0  0  0  0  0  0  0
    5.2528   -1.5606    0.2347 C   0  0  1  0  0  0  0  0  0  0  0  0
    6.5953   -1.1686    0.4714 O   0  0  0  0  0  0  0  0  0  0  0  0
    5.0763   -2.5475   -0.8549 C   0  0  1  0  0  0  0  0  0  0  0  0
    5.8653   -3.8337   -0.4182 C   0  0  0  0  0  0  0  0  0  0  0  0
    6.5195   -3.8947    1.0363 C   0  0  0  0  0  0  0  0  0  0  0  0
    5.6186   -3.5163    2.2663 C   0  0  2  0  0  0  0  0  0  0  0  0
    4.2180   -3.7092    1.8716 C   0  0  2  0  0  0  0  0  0  0  0  0
    3.3586   -4.9303    1.5070 C   0  0  0  0  0  0  0  0  0  0  0  0
    2.6203   -5.6234    2.7586 C   0  0  1  0  0  0  0  0  0  0  0  0
    1.7245   -6.7085    2.1091 C   0  0  0  0  0  0  0  0  0  0  0  0
    3.6981   -6.2987    3.6564 C   0  0  0  0  0  0  0  0  0  0  0  0
    4.0543   -5.3389    4.8175 C   0  0  0  0  0  0  0  0  0  0  0  0
    2.8931   -4.3627    4.9362 C   0  0  2  0  0  0  0  0  0  0  0  0
    1.8631   -4.6878    3.8341 C   0  0  2  0  0  0  0  0  0  0  0  0
    0.6230   -5.4073    4.4022 C   0  0  0  0  0  0  0  0  0  0  0  0
    1.7051   -3.1425    3.6866 C   0  0  1  0  0  0  0  0  0  0  0  0
    0.4551   -2.5634    4.0062 O   0  0  0  0  0  0  0  0  0  0  0  0
    2.8904   -2.8103    4.6342 C   0  0  1  0  0  0  0  0  0  0  0  0
    2.4365   -2.1499    5.8029 O   0  0  0  0  0  0  0  0  0  0  0  0
    4.1266   -1.8573    4.1203 C   0  0  0  0  0  0  0  0  0  0  0  0
    3.5674   -0.4174    3.9591 C   0  0  0  0  0  0  0  0  0  0  0  0
    5.1836   -1.8253    5.2464 C   0  0  0  0  0  0  0  0  0  0  0  0
    4.9592   -2.0802    2.7400 C   0  0  2  0  0  0  0  0  0  0  0  0
    3.1379   -3.5368   -2.6281 H   0  0  0  0  0  0  0  0  0  0  0  0
    1.6655   -3.0500   -1.6116 H   0  0  0  0  0  0  0  0  0  0  0  0
    2.8423   -0.8591    0.4104 H   0  0  0  0  0  0  0  0  0  0  0  0
    2.1277   -2.4159    0.8070 H   0  0  0  0  0  0  0  0  0  0  0  0
    4.8685   -0.5903   -0.1005 H   0  0  0  0  0  0  0  0  0  0  0  0
    7.0280   -1.8806    0.9146 H   0  0  0  0  0  0  0  0  0  0  0  0
    5.4098   -2.1726   -1.8236 H   0  0  0  0  0  0  0  0  0  0  0  0
    5.2424   -4.7105   -0.5890 H   0  0  0  0  0  0  0  0  0  0  0  0
    6.6886   -3.9376   -1.1246 H   0  0  0  0  0  0  0  0  0  0  0  0
    6.8373   -4.9285    1.1730 H   0  0  0  0  0  0  0  0  0  0  0  0
    7.4687   -3.3639    1.0699 H   0  0  0  0  0  0  0  0  0  0  0  0
    5.9588   -4.0584    3.1377 H   0  0  0  0  0  0  0  0  0  0  0  0
    3.8694   -3.8103    2.8376 H   0  0  0  0  0  0  0  0  0  0  0  0
    2.6108   -4.6559    0.7630 H   0  0  0  0  0  0  0  0  0  0  0  0
    3.9910   -5.6731    1.0202 H   0  0  0  0  0  0  0  0  0  0  0  0
    1.3046   -7.4053    2.8350 H   0  0  0  0  0  0  0  0  0  0  0  0
    2.2969   -7.3155    1.4060 H   0  0  0  0  0  0  0  0  0  0  0  0
    0.8993   -6.2599    1.5551 H   0  0  0  0  0  0  0  0  0  0  0  0
    3.2644   -7.1903    4.1089 H   0  0  0  0  0  0  0  0  0  0  0  0
    4.5791   -6.6374    3.1071 H   0  0  0  0  0  0  0  0  0  0  0  0
    4.1863   -5.9053    5.7382 H   0  0  0  0  0  0  0  0  0  0  0  0
    4.9992   -4.8362    4.6805 H   0  0  0  0  0  0  0  0  0  0  0  0
    2.4175   -4.5041    5.9111 H   0  0  0  0  0  0  0  0  0  0  0  0
    0.1919   -4.8470    5.2315 H   0  0  0  0  0  0  0  0  0  0  0  0
    0.8684   -6.3919    4.8039 H   0  0  0  0  0  0  0  0  0  0  0  0
   -0.1700   -5.5247    3.6670 H   0  0  0  0  0  0  0  0  0  0  0  0
    1.9133   -2.8493    2.6884 H   0  0  0  0  0  0  0  0  0  0  0  0
    0.3456   -1.8267    3.4224 H   0  0  0  0  0  0  0  0  0  0  0  0
    2.1302   -1.2981    5.5260 H   0  0  0  0  0  0  0  0  0  0  0  0
    4.3371    0.2706    3.6052 H   0  0  0  0  0  0  0  0  0  0  0  0
    3.1858    0.0206    4.8828 H   0  0  0  0  0  0  0  0  0  0  0  0
    2.7613   -0.3931    3.2245 H   0  0  0  0  0  0  0  0  0  0  0  0
    5.9548   -1.0912    5.0342 H   0  0  0  0  0  0  0  0  0  0  0  0
    5.6613   -2.7937    5.3662 H   0  0  0  0  0  0  0  0  0  0  0  0
    4.7799   -1.5487    6.2191 H   0  0  0  0  0  0  0  0  0  0  0  0
    5.7545   -1.3364    2.7238 H   0  0  0  0  0  0  0  0  0  0  0  0
  1  2  2  0
  1 28  1  0
  1 29  1  0
  2  7  1  0
  2  3  1  0
  4  3  1  1
  3 30  1  0
  3 31  1  0
  4 11  1  0
  4 27  1  0
  4  5  1  0
  5  6  1  0
  5  7  1  0
  5 32  1  6
  6 33  1  0
  7  8  1  0
  7 34  1  6
  8  9  1  0
  8 35  1  0
  8 36  1  0
  9 10  1  0
  9 37  1  0
  9 38  1  0
 10 27  1  0
 10 11  1  0
 10 39  1  1
 11 12  1  0
 11 40  1  1
 12 13  1  0
 12 41  1  0
 12 42  1  0
 13 18  1  0
 13 14  1  6
 13 15  1  0
 14 43  1  0
 14 44  1  0
 14 45  1  0
 15 16  1  0
 15 46  1  0
 15 47  1  0
 16 17  1  0
 16 48  1  0
 16 49  1  0
 17 22  1  0
 17 18  1  0
 17 50  1  1
 18 19  1  1
 18 20  1  0
 19 51  1  0
 19 52  1  0
 19 53  1  0
 20 21  1  0
 20 22  1  0
 20 54  1  6
 21 55  1  0
 22 23  1  1
 22 24  1  0
 23 56  1  0
 24 25  1  0
 24 26  1  0
 24 27  1  0
 25 57  1  0
 25 58  1  0
 25 59  1  0
 26 60  1  0
 26 61  1  0
 26 62  1  0
 27 63  1  6
M  END
>  <i_m_ct_stereo_status>  (85) 
1

>  <s_m_source_file>  (85) 
/var/tmp/pbs.5076255.sched01/tmp0qfm3vo4/0bcu552to.sdf

>  <i_m_source_file_index>  (85) 
32

>  <i_lp_mmshare_version>  (85) 
48012

>  <i_f3d_flags>  (85) 
0

>  <s_epik_input>  (85) 
W0NIMl09QyhbQ0gyXTEpW0NAQEhdKFtDQEBIXTJbT0hdKVtDSDJdW0NIMl1bQ0BIXShbQ0BIXTNbQ0BdMTI0KVtDQEBIXTRDKFtDSDNdKShbQ0gzXSlbQ0BdNShbT0hdKVtDQEhdNltDQEBdKFtDSDNdKShbQ0BIXTVbT0hdKVtDQF0oW0NIMl0zKShbQ0gzXSlbQ0gyXVtDSDJdNg==

>  <s_epik_cmdline>  (85) 
J2VwaWtfcHl0aG9uJywgJy1waHQnLCAnMi4wJywgJy1waCcsICc3LjAnLCAnLXRuJywgJzgnLCAnLW1hJywgJzIwMCcsICctaW1hZScsICc8aW5maWxlLm1hZT4nLCAnLW9tYWUnLCAnPG91dGZpbGUubWFlPic=

>  <r_lp_tautomer_probability>  (85) 
1

>  <r_epik_Ionization_Penalty>  (85) 
4.07682e-06

>  <r_epik_Ionization_Penalty_Charging>  (85) 
0

>  <r_epik_Ionization_Penalty_Neutral>  (85) 
4.07682e-06

>  <r_epik_State_Penalty>  (85) 
-0

>  <r_epik_Charging_Adjusted_Penalty>  (85) 
0

>  <i_epik_Tot_Q>  (85) 
0

>  <i_epik_Tot_abs_Q>  (85) 
0

>  <s_lp_Force_Field>  (85) 
OPLS3e

>  <r_lp_Energy>  (85) 
244.244

>  <b_lp_Chiralities_Consistent>  (85) 
1

>  <s_lp_Variant>  (85) 
21:0-1

>  <s_i_glide_gridfile>  (85) 
pfpi4k_grid

>  <i_i_glide_lignum>  (85) 
32

>  <i_i_glide_rotatable_bonds>  (85) 
3

>  <r_i_docking_score>  (85) 
-2.25049

>  <r_i_glide_ligand_efficiency>  (85) 
-0.0833516

>  <r_i_glide_ligand_efficiency_sa>  (85) 
-0.250055

>  <r_i_glide_ligand_efficiency_ln>  (85) 
-0.523877

>  <r_i_glide_gscore>  (85) 
-2.25049

>  <r_i_glide_lipo>  (85) 
-0.38001

>  <r_i_glide_hbond>  (85) 
0

>  <r_i_glide_metal>  (85) 
-0

>  <r_i_glide_rewards>  (85) 
-0.86904

>  <r_i_glide_evdw>  (85) 
-17.3569

>  <r_i_glide_ecoul>  (85) 
-0.890648

>  <r_i_glide_erotb>  (85) 
0

>  <r_i_glide_esite>  (85) 
0

>  <r_i_glide_emodel>  (85) 
-20.1587

>  <r_i_glide_energy>  (85) 
-18.2476

>  <r_i_glide_einternal>  (85) 
1.93233

>  <r_i_glide_intrahb_reward>  (85) 
-0

>  <i_i_glide_confnum>  (85) 
1

>  <i_i_glide_posenum>  (85) 
20

>  <r_i_glide_eff_state_penalty>  (85) 
0

>  <ligand_id>  (85) 
21

>  <original_smiles>  (85) 
C=C1CC23C(O)C1CCC1C2CC2(C)CCC4C2(C)C(O)C4(O)C(C)(C)C13

>  <smiles>  (85) 
[H]OC1([H])C2([H])C(=C([H])[H])C([H])([H])C13C1([H])C([H])([H])C4(C([H])([H])[H])C([H])([H])C([H])([H])C5([H])C(O[H])(C([H])(O[H])C54C([H])([H])[H])C(C([H])([H])[H])(C([H])([H])[H])C3([H])C1([H])C([H])([H])C2([H])[H]

$$$$
21:0:2
     RDKit          3D

 63 68  0  0  1  0  0  0  0  0999 V2000
    2.7907   -3.1852   -1.8335 C   0  0  0  0  0  0  0  0  0  0  0  0
    3.5787   -2.6514   -0.8915 C   0  0  0  0  0  0  0  0  0  0  0  0
    3.0694   -2.0527    0.4376 C   0  0  0  0  0  0  0  0  0  0  0  0
    4.3596   -2.2649    1.2206 C   0  0  2  0  0  0  0  0  0  0  0  0
    5.2379   -1.5445    0.1226 C   0  0  1  0  0  0  0  0  0  0  0  0
    6.5533   -1.0688    0.3563 O   0  0  0  0  0  0  0  0  0  0  0  0
    5.1109   -2.5256   -0.9800 C   0  0  1  0  0  0  0  0  0  0  0  0
    5.9827   -3.7674   -0.5744 C   0  0  0  0  0  0  0  0  0  0  0  0
    6.6615   -3.8031    0.8685 C   0  0  0  0  0  0  0  0  0  0  0  0
    5.7565   -3.5005    2.1161 C   0  0  2  0  0  0  0  0  0  0  0  0
    4.3659   -3.7768    1.7413 C   0  0  2  0  0  0  0  0  0  0  0  0
    3.5783   -5.0441    1.3713 C   0  0  0  0  0  0  0  0  0  0  0  0
    2.9041   -5.7980    2.6230 C   0  0  1  0  0  0  0  0  0  0  0  0
    2.0700   -6.9294    1.9697 C   0  0  0  0  0  0  0  0  0  0  0  0
    4.0369   -6.4160    3.4957 C   0  0  0  0  0  0  0  0  0  0  0  0
    4.3478   -5.4505    4.6662 C   0  0  0  0  0  0  0  0  0  0  0  0
    3.1292   -4.5493    4.8175 C   0  0  2  0  0  0  0  0  0  0  0  0
    2.1036   -4.9258    3.7227 C   0  0  2  0  0  0  0  0  0  0  0  0
    0.9178   -5.7315    4.2906 C   0  0  0  0  0  0  0  0  0  0  0  0
    1.8505   -3.3940    3.5894 C   0  0  1  0  0  0  0  0  0  0  0  0
    0.5680   -2.8950    3.9097 O   0  0  0  0  0  0  0  0  0  0  0  0
    3.0132   -2.9987    4.5311 C   0  0  1  0  0  0  0  0  0  0  0  0
    2.5224   -2.3802    5.7086 O   0  0  0  0  0  0  0  0  0  0  0  0
    4.1834   -1.9632    4.0172 C   0  0  0  0  0  0  0  0  0  0  0  0
    3.5357   -0.5606    3.8848 C   0  0  0  0  0  0  0  0  0  0  0  0
    5.2504   -1.8776    5.1308 C   0  0  0  0  0  0  0  0  0  0  0  0
    5.0118   -2.1161    2.6227 C   0  0  2  0  0  0  0  0  0  0  0  0
    3.2087   -3.6051   -2.7352 H   0  0  0  0  0  0  0  0  0  0  0  0
    1.7222   -3.2237   -1.6920 H   0  0  0  0  0  0  0  0  0  0  0  0
    2.7920   -0.9985    0.3450 H   0  0  0  0  0  0  0  0  0  0  0  0
    2.1828   -2.6035    0.7230 H   0  0  0  0  0  0  0  0  0  0  0  0
    4.7899   -0.5963   -0.1955 H   0  0  0  0  0  0  0  0  0  0  0  0
    7.0000   -1.7152    0.8808 H   0  0  0  0  0  0  0  0  0  0  0  0
    5.4037   -2.1150   -1.9476 H   0  0  0  0  0  0  0  0  0  0  0  0
    5.4070   -4.6752   -0.7424 H   0  0  0  0  0  0  0  0  0  0  0  0
    6.7992   -3.8309   -1.2961 H   0  0  0  0  0  0  0  0  0  0  0  0
    7.0455   -4.8147    0.9888 H   0  0  0  0  0  0  0  0  0  0  0  0
    7.5756   -3.2127    0.8942 H   0  0  0  0  0  0  0  0  0  0  0  0
    6.1444   -4.0327    2.9746 H   0  0  0  0  0  0  0  0  0  0  0  0
    4.0426   -3.9158    2.7122 H   0  0  0  0  0  0  0  0  0  0  0  0
    2.8036   -4.8067    0.6408 H   0  0  0  0  0  0  0  0  0  0  0  0
    4.2495   -5.7371    0.8639 H   0  0  0  0  0  0  0  0  0  0  0  0
    1.7039   -7.6622    2.6887 H   0  0  0  0  0  0  0  0  0  0  0  0
    2.6713   -7.4882    1.2525 H   0  0  0  0  0  0  0  0  0  0  0  0
    1.2110   -6.5250    1.4319 H   0  0  0  0  0  0  0  0  0  0  0  0
    3.6676   -7.3410    3.9379 H   0  0  0  0  0  0  0  0  0  0  0  0
    4.9287   -6.6897    2.9263 H   0  0  0  0  0  0  0  0  0  0  0  0
    4.5334   -6.0241    5.5734 H   0  0  0  0  0  0  0  0  0  0  0  0
    5.2569   -4.8887    4.5206 H   0  0  0  0  0  0  0  0  0  0  0  0
    2.6807   -4.7447    5.7959 H   0  0  0  0  0  0  0  0  0  0  0  0
    0.4636   -5.2222    5.1390 H   0  0  0  0  0  0  0  0  0  0  0  0
    1.2279   -6.7075    4.6687 H   0  0  0  0  0  0  0  0  0  0  0  0
    0.1275   -5.8819    3.5566 H   0  0  0  0  0  0  0  0  0  0  0  0
    2.0439   -3.0696    2.5970 H   0  0  0  0  0  0  0  0  0  0  0  0
    0.3544   -3.1929    4.7758 H   0  0  0  0  0  0  0  0  0  0  0  0
    1.8848   -2.9696    6.0803 H   0  0  0  0  0  0  0  0  0  0  0  0
    4.2539    0.1815    3.5359 H   0  0  0  0  0  0  0  0  0  0  0  0
    3.1332   -0.1703    4.8200 H   0  0  0  0  0  0  0  0  0  0  0  0
    2.7181   -0.5804    3.1624 H   0  0  0  0  0  0  0  0  0  0  0  0
    5.9598   -1.0812    4.9190 H   0  0  0  0  0  0  0  0  0  0  0  0
    5.8015   -2.8102    5.2276 H   0  0  0  0  0  0  0  0  0  0  0  0
    4.8434   -1.6450    6.1123 H   0  0  0  0  0  0  0  0  0  0  0  0
    5.7576   -1.3199    2.6103 H   0  0  0  0  0  0  0  0  0  0  0  0
  1  2  2  0
  1 28  1  0
  1 29  1  0
  2  7  1  0
  2  3  1  0
  4  3  1  1
  3 30  1  0
  3 31  1  0
  4 11  1  0
  4 27  1  0
  4  5  1  0
  5  6  1  0
  5  7  1  0
  5 32  1  6
  6 33  1  0
  7  8  1  0
  7 34  1  6
  8  9  1  0
  8 35  1  0
  8 36  1  0
  9 10  1  0
  9 37  1  0
  9 38  1  0
 10 27  1  0
 10 11  1  0
 10 39  1  1
 11 12  1  0
 11 40  1  1
 12 13  1  0
 12 41  1  0
 12 42  1  0
 13 18  1  0
 13 14  1  6
 13 15  1  0
 14 43  1  0
 14 44  1  0
 14 45  1  0
 15 16  1  0
 15 46  1  0
 15 47  1  0
 16 17  1  0
 16 48  1  0
 16 49  1  0
 17 22  1  0
 17 18  1  0
 17 50  1  1
 18 19  1  1
 18 20  1  0
 19 51  1  0
 19 52  1  0
 19 53  1  0
 20 21  1  0
 20 22  1  0
 20 54  1  6
 21 55  1  0
 22 23  1  1
 22 24  1  0
 23 56  1  0
 24 25  1  0
 24 26  1  0
 24 27  1  0
 25 57  1  0
 25 58  1  0
 25 59  1  0
 26 60  1  0
 26 61  1  0
 26 62  1  0
 27 63  1  6
M  END
>  <i_m_ct_stereo_status>  (86) 
1

>  <s_m_source_file>  (86) 
/var/tmp/pbs.5076255.sched01/tmp0qfm3vo4/0bcu552to.sdf

>  <i_m_source_file_index>  (86) 
32

>  <i_lp_mmshare_version>  (86) 
48012

>  <i_f3d_flags>  (86) 
0

>  <s_epik_input>  (86) 
W0NIMl09QyhbQ0gyXTEpW0NAQEhdKFtDQEBIXTJbT0hdKVtDSDJdW0NIMl1bQ0BIXShbQ0BIXTNbQ0BdMTI0KVtDQEBIXTRDKFtDSDNdKShbQ0gzXSlbQ0BdNShbT0hdKVtDQEhdNltDQEBdKFtDSDNdKShbQ0BIXTVbT0hdKVtDQF0oW0NIMl0zKShbQ0gzXSlbQ0gyXVtDSDJdNg==

>  <s_epik_cmdline>  (86) 
J2VwaWtfcHl0aG9uJywgJy1waHQnLCAnMi4wJywgJy1waCcsICc3LjAnLCAnLXRuJywgJzgnLCAnLW1hJywgJzIwMCcsICctaW1hZScsICc8aW5maWxlLm1hZT4nLCAnLW9tYWUnLCAnPG91dGZpbGUubWFlPic=

>  <r_lp_tautomer_probability>  (86) 
1

>  <r_epik_Ionization_Penalty>  (86) 
4.07682e-06

>  <r_epik_Ionization_Penalty_Charging>  (86) 
0

>  <r_epik_Ionization_Penalty_Neutral>  (86) 
4.07682e-06

>  <r_epik_State_Penalty>  (86) 
-0

>  <r_epik_Charging_Adjusted_Penalty>  (86) 
0

>  <i_epik_Tot_Q>  (86) 
0

>  <i_epik_Tot_abs_Q>  (86) 
0

>  <s_lp_Force_Field>  (86) 
OPLS3e

>  <r_lp_Energy>  (86) 
244.244

>  <b_lp_Chiralities_Consistent>  (86) 
1

>  <s_lp_Variant>  (86) 
21:0-1

>  <s_i_glide_gridfile>  (86) 
pfpi4k_grid

>  <i_i_glide_lignum>  (86) 
32

>  <i_i_glide_rotatable_bonds>  (86) 
3

>  <r_i_docking_score>  (86) 
-1.8627

>  <r_i_glide_ligand_efficiency>  (86) 
-0.0689889

>  <r_i_glide_ligand_efficiency_sa>  (86) 
-0.206967

>  <r_i_glide_ligand_efficiency_ln>  (86) 
-0.433606

>  <r_i_glide_gscore>  (86) 
-1.8627

>  <r_i_glide_lipo>  (86) 
-0.409527

>  <r_i_glide_hbond>  (86) 
-0.00582576

>  <r_i_glide_metal>  (86) 
-0

>  <r_i_glide_rewards>  (86) 
-0.86904

>  <r_i_glide_evdw>  (86) 
-16.848

>  <r_i_glide_ecoul>  (86) 
1.76062

>  <r_i_glide_erotb>  (86) 
0

>  <r_i_glide_esite>  (86) 
0

>  <r_i_glide_emodel>  (86) 
-17.2405

>  <r_i_glide_energy>  (86) 
-15.0874

>  <r_i_glide_einternal>  (86) 
0.24388

>  <r_i_glide_intrahb_reward>  (86) 
-0

>  <i_i_glide_confnum>  (86) 
2

>  <i_i_glide_posenum>  (86) 
10

>  <r_i_glide_eff_state_penalty>  (86) 
0

>  <ligand_id>  (86) 
21

>  <original_smiles>  (86) 
C=C1CC23C(O)C1CCC1C2CC2(C)CCC4C2(C)C(O)C4(O)C(C)(C)C13

>  <smiles>  (86) 
[H]OC1([H])C2([H])C(=C([H])[H])C([H])([H])C13C1([H])C([H])([H])C4(C([H])([H])[H])C([H])([H])C([H])([H])C5([H])C(O[H])(C([H])(O[H])C54C([H])([H])[H])C(C([H])([H])[H])(C([H])([H])[H])C3([H])C1([H])C([H])([H])C2([H])[H]

$$$$
24:0:0
     RDKit          3D

 55 60  0  0  1  0  0  0  0  0999 V2000
    3.4646   -0.0343   -4.9587 C   0  0  0  0  0  0  0  0  0  0  0  0
    3.0056   -0.5993   -3.6050 C   0  0  0  0  0  0  0  0  0  0  0  0
    4.1614   -0.8921   -2.6426 C   0  0  0  0  0  0  0  0  0  0  0  0
    3.7129   -1.4549   -1.3394 N   0  0  1  0  0  0  0  0  0  0  0  0
    3.4268   -3.0136   -1.4613 C   0  0  0  0  0  0  0  0  0  0  0  0
    2.9754   -3.9945   -0.2214 C   0  0  2  0  0  0  0  0  0  0  0  0
    1.8098   -4.6566   -0.6857 O   0  0  0  0  0  0  0  0  0  0  0  0
    2.6789   -3.0468    0.8948 C   0  0  1  0  0  0  0  0  0  0  0  0
    2.8621   -2.7617    2.4798 C   0  0  2  0  0  0  0  0  0  0  0  0
    3.0302   -1.0909    2.6456 C   0  0  0  0  0  0  0  0  0  0  0  0
    3.8007   -0.3189    1.3302 C   0  0  2  0  0  0  0  0  0  0  0  0
    3.2641   -1.3451    0.8581 O   0  0  0  0  0  0  0  0  0  0  0  0
    4.1273   -2.5146    1.0909 C   0  0  1  0  0  0  0  0  0  0  0  0
    4.1790   -3.4423    2.3100 C   0  0  2  0  0  0  0  0  0  0  0  0
    4.3541   -4.9011    1.8198 C   0  0  1  0  0  0  0  0  0  0  0  0
    3.4367   -6.0232    2.2907 C   0  0  1  0  0  0  0  0  0  0  0  0
    2.1553   -5.5815    2.7081 O   0  0  0  0  0  0  0  0  0  0  0  0
    1.3127   -6.6223    3.1591 C   0  0  0  0  0  0  0  0  0  0  0  0
    3.3963   -6.4931    0.8469 C   0  0  0  0  0  0  0  0  0  0  0  0
    3.9276   -5.1270    0.3449 C   0  0  1  0  0  0  0  0  0  0  0  0
    4.9812   -5.2648   -0.5616 O   0  0  0  0  0  0  0  0  0  0  0  0
    5.3574   -1.9687    0.4043 C   0  0  1  0  0  0  0  0  0  0  0  0
    6.4801   -1.5900    1.3773 C   0  0  0  0  0  0  0  0  0  0  0  0
    6.0752   -2.6494   -0.6117 O   0  0  0  0  0  0  0  0  0  0  0  0
    4.5452   -0.8576   -0.0941 C   0  0  1  0  0  0  0  0  0  0  0  0
    2.6019    0.1431   -5.6055 H   0  0  0  0  0  0  0  0  0  0  0  0
    4.1160   -0.7364   -5.4855 H   0  0  0  0  0  0  0  0  0  0  0  0
    3.9903    0.9214   -4.8607 H   0  0  0  0  0  0  0  0  0  0  0  0
    2.3395    0.1299   -3.1412 H   0  0  0  0  0  0  0  0  0  0  0  0
    2.4233   -1.4958   -3.8139 H   0  0  0  0  0  0  0  0  0  0  0  0
    4.8819   -1.5725   -3.0917 H   0  0  0  0  0  0  0  0  0  0  0  0
    4.6867    0.0479   -2.5102 H   0  0  0  0  0  0  0  0  0  0  0  0
    2.5816   -3.0372   -2.1479 H   0  0  0  0  0  0  0  0  0  0  0  0
    4.1933   -3.4926   -2.0580 H   0  0  0  0  0  0  0  0  0  0  0  0
    2.0917   -5.1938   -1.4158 H   0  0  0  0  0  0  0  0  0  0  0  0
    1.7319   -2.5479    0.6210 H   0  0  0  0  0  0  0  0  0  0  0  0
    2.1387   -3.2489    3.1367 H   0  0  0  0  0  0  0  0  0  0  0  0
    2.0360   -0.6605    2.7485 H   0  0  0  0  0  0  0  0  0  0  0  0
    3.5430   -0.8529    3.5725 H   0  0  0  0  0  0  0  0  0  0  0  0
    3.2745    0.6043    1.1217 H   0  0  0  0  0  0  0  0  0  0  0  0
    4.8576   -3.1501    3.0906 H   0  0  0  0  0  0  0  0  0  0  0  0
    5.3919   -5.2182    1.9293 H   0  0  0  0  0  0  0  0  0  0  0  0
    3.9488   -6.7053    2.9798 H   0  0  0  0  0  0  0  0  0  0  0  0
    0.3580   -6.1994    3.4737 H   0  0  0  0  0  0  0  0  0  0  0  0
    1.7572   -7.1376    4.0105 H   0  0  0  0  0  0  0  0  0  0  0  0
    1.1229   -7.3480    2.3684 H   0  0  0  0  0  0  0  0  0  0  0  0
    4.1166   -7.3056    0.6868 H   0  0  0  0  0  0  0  0  0  0  0  0
    2.3956   -6.7474    0.5119 H   0  0  0  0  0  0  0  0  0  0  0  0
    4.6087   -5.7148   -1.3090 H   0  0  0  0  0  0  0  0  0  0  0  0
    6.1452   -1.0499    2.2617 H   0  0  0  0  0  0  0  0  0  0  0  0
    7.2338   -0.9877    0.8712 H   0  0  0  0  0  0  0  0  0  0  0  0
    6.9727   -2.5035    1.7079 H   0  0  0  0  0  0  0  0  0  0  0  0
    5.4848   -3.2526   -1.0461 H   0  0  0  0  0  0  0  0  0  0  0  0
    5.2330   -0.0744   -0.4038 H   0  0  0  0  0  0  0  0  0  0  0  0
    2.8004   -1.0683   -1.1100 H   0  0  0  0  0  0  0  0  0  0  0  0
  1  2  1  0
  1 26  1  0
  1 27  1  0
  1 28  1  0
  2  3  1  0
  2 29  1  0
  2 30  1  0
  3  4  1  0
  3 31  1  0
  3 32  1  0
  4 25  1  0
  4  5  1  0
  4 55  1  1
  5  6  1  0
  5 33  1  0
  5 34  1  0
  6 20  1  0
  6  7  1  6
  6  8  1  0
  7 35  1  0
  8 13  1  0
  8  9  1  0
  8 36  1  6
  9 14  1  0
  9 10  1  0
  9 37  1  1
 10 11  1  0
 10 38  1  0
 10 39  1  0
 11 25  1  0
 11 12  1  0
 11 40  1  6
 13 12  1  1
 13 14  1  0
 13 22  1  0
 14 15  1  0
 14 41  1  1
 15 20  1  0
 15 16  1  0
 15 42  1  6
 16 17  1  0
 16 19  1  0
 16 43  1  1
 17 18  1  0
 18 44  1  0
 18 45  1  0
 18 46  1  0
 19 20  1  0
 19 47  1  0
 19 48  1  0
 20 21  1  6
 21 49  1  0
 22 23  1  0
 22 24  1  6
 22 25  1  0
 23 50  1  0
 23 51  1  0
 23 52  1  0
 24 53  1  0
 25 54  1  6
M  CHG  1   4   1
M  END
>  <i_m_ct_stereo_status>  (87) 
1

>  <s_m_source_file>  (87) 
/var/tmp/pbs.5076255.sched01/tmp0qfm3vo4/0bcu552to.sdf

>  <i_m_source_file_index>  (87) 
35

>  <i_lp_mmshare_version>  (87) 
48012

>  <i_f3d_flags>  (87) 
0

>  <s_epik_input>  (87) 
W0NIM11bQ0gyXVtDSDJdTihbQ0gyXTEpW0NASF0oW0NAXTIoW0NIM10pW09IXSlbQ0BASF0oTzMpW0NIMl1bQ0BASF00W0NASF01W0NAQEhdKFtDQEhdKFtDSDJdNilPW0NIM10pW0NAXTYoW09IXSlbQ0BAXTEoW09IXSlbQ0BASF00W0NAQF0yMzU=

>  <s_epik_cmdline>  (87) 
J2VwaWtfcHl0aG9uJywgJy1waHQnLCAnMi4wJywgJy1waCcsICc3LjAnLCAnLXRuJywgJzgnLCAnLW1hJywgJzIwMCcsICctaW1hZScsICc8aW5maWxlLm1hZT4nLCAnLW9tYWUnLCAnPG91dGZpbGUubWFlPic=

>  <r_epik_Ionization_Penalty>  (87) 
0.0143341

>  <r_epik_Ionization_Penalty_Charging>  (87) 
0.0143339

>  <r_epik_Ionization_Penalty_Neutral>  (87) 
1.90383e-07

>  <r_epik_State_Penalty>  (87) 
0.0112058

>  <r_epik_Charging_Adjusted_Penalty>  (87) 
0.0255397

>  <i_epik_Tot_Q>  (87) 
1

>  <i_epik_Tot_abs_Q>  (87) 
1

>  <s_lp_Force_Field>  (87) 
OPLS3e

>  <r_lp_Energy>  (87) 
378.665

>  <b_lp_Chiralities_Consistent>  (87) 
1

>  <s_lp_Variant>  (87) 
24:0-1

>  <s_i_glide_gridfile>  (87) 
pfpi4k_grid

>  <i_i_glide_lignum>  (87) 
35

>  <i_i_glide_rotatable_bonds>  (87) 
6

>  <r_i_docking_score>  (87) 
-5.03555

>  <r_i_glide_ligand_efficiency>  (87) 
-0.201422

>  <r_i_glide_ligand_efficiency_sa>  (87) 
-0.588961

>  <r_i_glide_ligand_efficiency_ln>  (87) 
-1.19358

>  <r_i_glide_gscore>  (87) 
-5.03555

>  <r_i_glide_lipo>  (87) 
-0.66604

>  <r_i_glide_hbond>  (87) 
-0.170473

>  <r_i_glide_metal>  (87) 
-0

>  <r_i_glide_rewards>  (87) 
-1.50606

>  <r_i_glide_evdw>  (87) 
-20.9865

>  <r_i_glide_ecoul>  (87) 
-11.4451

>  <r_i_glide_erotb>  (87) 
0.153641

>  <r_i_glide_esite>  (87) 
-0.0805341

>  <r_i_glide_emodel>  (87) 
-46.3279

>  <r_i_glide_energy>  (87) 
-32.4316

>  <r_i_glide_einternal>  (87) 
2.08008

>  <r_i_glide_intrahb_reward>  (87) 
-0.5

>  <i_i_glide_confnum>  (87) 
5

>  <i_i_glide_posenum>  (87) 
38

>  <r_i_glide_eff_state_penalty>  (87) 
0

>  <ligand_id>  (87) 
24

>  <original_smiles>  (87) 
CCCN1CC2(O)C3C4CC5OC3(C4C3C(OC)CC32O)C(C)(O)C51

>  <smiles>  (87) 
[H]OC12C([H])([H])C([H])(OC([H])([H])[H])C1([H])C1([H])C3([H])C([H])([H])C4([H])OC15C3([H])C2(O[H])C([H])([H])[N+]([H])(C([H])([H])C([H])([H])C([H])([H])[H])C4([H])C5(O[H])C([H])([H])[H]

$$$$
24:0:1
     RDKit          3D

 55 60  0  0  1  0  0  0  0  0999 V2000
    3.4299   -0.0181   -4.9618 C   0  0  0  0  0  0  0  0  0  0  0  0
    2.9875   -0.6225   -3.6149 C   0  0  0  0  0  0  0  0  0  0  0  0
    4.1464   -0.8859   -2.6364 C   0  0  0  0  0  0  0  0  0  0  0  0
    3.7088   -1.4554   -1.3298 N   0  0  1  0  0  0  0  0  0  0  0  0
    3.4319   -3.0015   -1.4678 C   0  0  0  0  0  0  0  0  0  0  0  0
    2.9999   -3.9921   -0.2246 C   0  0  2  0  0  0  0  0  0  0  0  0
    1.8222   -4.6609   -0.6652 O   0  0  0  0  0  0  0  0  0  0  0  0
    2.6768   -3.0472    0.8951 C   0  0  1  0  0  0  0  0  0  0  0  0
    2.8574   -2.7532    2.4943 C   0  0  2  0  0  0  0  0  0  0  0  0
    3.0294   -1.0874    2.6552 C   0  0  0  0  0  0  0  0  0  0  0  0
    3.8025   -0.3199    1.3397 C   0  0  2  0  0  0  0  0  0  0  0  0
    3.2525   -1.3421    0.8708 O   0  0  0  0  0  0  0  0  0  0  0  0
    4.1209   -2.5072    1.1024 C   0  0  1  0  0  0  0  0  0  0  0  0
    4.1782   -3.4355    2.3138 C   0  0  2  0  0  0  0  0  0  0  0  0
    4.3712   -4.8873    1.8259 C   0  0  1  0  0  0  0  0  0  0  0  0
    3.4542   -6.0198    2.2935 C   0  0  1  0  0  0  0  0  0  0  0  0
    2.1738   -5.5810    2.7159 O   0  0  0  0  0  0  0  0  0  0  0  0
    1.3318   -6.6292    3.1550 C   0  0  0  0  0  0  0  0  0  0  0  0
    3.4074   -6.4913    0.8484 C   0  0  0  0  0  0  0  0  0  0  0  0
    3.9426   -5.1255    0.3462 C   0  0  1  0  0  0  0  0  0  0  0  0
    5.0102   -5.2942   -0.5510 O   0  0  0  0  0  0  0  0  0  0  0  0
    5.3462   -1.9739    0.4074 C   0  0  1  0  0  0  0  0  0  0  0  0
    6.4812   -1.5845    1.3720 C   0  0  0  0  0  0  0  0  0  0  0  0
    6.0460   -2.7073   -0.5806 O   0  0  0  0  0  0  0  0  0  0  0  0
    4.5388   -0.8555   -0.0932 C   0  0  1  0  0  0  0  0  0  0  0  0
    2.5642    0.1362   -5.6134 H   0  0  0  0  0  0  0  0  0  0  0  0
    4.1157   -0.6848   -5.4893 H   0  0  0  0  0  0  0  0  0  0  0  0
    3.9158    0.9546   -4.8394 H   0  0  0  0  0  0  0  0  0  0  0  0
    2.2819    0.0737   -3.1528 H   0  0  0  0  0  0  0  0  0  0  0  0
    2.4390   -1.5401   -3.8401 H   0  0  0  0  0  0  0  0  0  0  0  0
    4.8791   -1.5541   -3.0915 H   0  0  0  0  0  0  0  0  0  0  0  0
    4.6499    0.0656   -2.5055 H   0  0  0  0  0  0  0  0  0  0  0  0
    2.5879   -3.0406   -2.1571 H   0  0  0  0  0  0  0  0  0  0  0  0
    4.2159   -3.4816   -2.0497 H   0  0  0  0  0  0  0  0  0  0  0  0
    2.0800   -5.1896   -1.4149 H   0  0  0  0  0  0  0  0  0  0  0  0
    1.7364   -2.5434    0.6213 H   0  0  0  0  0  0  0  0  0  0  0  0
    2.1468   -3.2490    3.1532 H   0  0  0  0  0  0  0  0  0  0  0  0
    2.0280   -0.6582    2.7653 H   0  0  0  0  0  0  0  0  0  0  0  0
    3.5395   -0.8559    3.5939 H   0  0  0  0  0  0  0  0  0  0  0  0
    3.2825    0.6085    1.1463 H   0  0  0  0  0  0  0  0  0  0  0  0
    4.8731   -3.1378    3.0910 H   0  0  0  0  0  0  0  0  0  0  0  0
    5.4118   -5.1942    1.9385 H   0  0  0  0  0  0  0  0  0  0  0  0
    3.9628   -6.7012    2.9825 H   0  0  0  0  0  0  0  0  0  0  0  0
    0.3766   -6.2085    3.4736 H   0  0  0  0  0  0  0  0  0  0  0  0
    1.7752   -7.1547    4.0018 H   0  0  0  0  0  0  0  0  0  0  0  0
    1.1393   -7.3464    2.3556 H   0  0  0  0  0  0  0  0  0  0  0  0
    4.1205   -7.3036    0.6816 H   0  0  0  0  0  0  0  0  0  0  0  0
    2.4081   -6.7497    0.5046 H   0  0  0  0  0  0  0  0  0  0  0  0
    4.6266   -5.6608   -1.3348 H   0  0  0  0  0  0  0  0  0  0  0  0
    6.1500   -1.0381    2.2543 H   0  0  0  0  0  0  0  0  0  0  0  0
    7.2287   -0.9755    0.8625 H   0  0  0  0  0  0  0  0  0  0  0  0
    6.9907   -2.4856    1.7148 H   0  0  0  0  0  0  0  0  0  0  0  0
    6.2581   -3.5572   -0.2149 H   0  0  0  0  0  0  0  0  0  0  0  0
    5.2152   -0.0725   -0.4157 H   0  0  0  0  0  0  0  0  0  0  0  0
    2.7834   -1.0726   -1.1236 H   0  0  0  0  0  0  0  0  0  0  0  0
  1  2  1  0
  1 26  1  0
  1 27  1  0
  1 28  1  0
  2  3  1  0
  2 29  1  0
  2 30  1  0
  3  4  1  0
  3 31  1  0
  3 32  1  0
  4 25  1  0
  4  5  1  0
  4 55  1  1
  5  6  1  0
  5 33  1  0
  5 34  1  0
  6 20  1  0
  6  7  1  6
  6  8  1  0
  7 35  1  0
  8 13  1  0
  8  9  1  0
  8 36  1  6
  9 14  1  0
  9 10  1  0
  9 37  1  1
 10 11  1  0
 10 38  1  0
 10 39  1  0
 11 25  1  0
 11 12  1  0
 11 40  1  6
 13 12  1  1
 13 14  1  0
 13 22  1  0
 14 15  1  0
 14 41  1  1
 15 20  1  0
 15 16  1  0
 15 42  1  6
 16 17  1  0
 16 19  1  0
 16 43  1  1
 17 18  1  0
 18 44  1  0
 18 45  1  0
 18 46  1  0
 19 20  1  0
 19 47  1  0
 19 48  1  0
 20 21  1  6
 21 49  1  0
 22 23  1  0
 22 24  1  6
 22 25  1  0
 23 50  1  0
 23 51  1  0
 23 52  1  0
 24 53  1  0
 25 54  1  6
M  CHG  1   4   1
M  END
>  <i_m_ct_stereo_status>  (88) 
1

>  <s_m_source_file>  (88) 
/var/tmp/pbs.5076255.sched01/tmp0qfm3vo4/0bcu552to.sdf

>  <i_m_source_file_index>  (88) 
35

>  <i_lp_mmshare_version>  (88) 
48012

>  <i_f3d_flags>  (88) 
0

>  <s_epik_input>  (88) 
W0NIM11bQ0gyXVtDSDJdTihbQ0gyXTEpW0NASF0oW0NAXTIoW0NIM10pW09IXSlbQ0BASF0oTzMpW0NIMl1bQ0BASF00W0NASF01W0NAQEhdKFtDQEhdKFtDSDJdNilPW0NIM10pW0NAXTYoW09IXSlbQ0BAXTEoW09IXSlbQ0BASF00W0NAQF0yMzU=

>  <s_epik_cmdline>  (88) 
J2VwaWtfcHl0aG9uJywgJy1waHQnLCAnMi4wJywgJy1waCcsICc3LjAnLCAnLXRuJywgJzgnLCAnLW1hJywgJzIwMCcsICctaW1hZScsICc8aW5maWxlLm1hZT4nLCAnLW9tYWUnLCAnPG91dGZpbGUubWFlPic=

>  <r_epik_Ionization_Penalty>  (88) 
0.0143341

>  <r_epik_Ionization_Penalty_Charging>  (88) 
0.0143339

>  <r_epik_Ionization_Penalty_Neutral>  (88) 
1.90383e-07

>  <r_epik_State_Penalty>  (88) 
0.0112058

>  <r_epik_Charging_Adjusted_Penalty>  (88) 
0.0255397

>  <i_epik_Tot_Q>  (88) 
1

>  <i_epik_Tot_abs_Q>  (88) 
1

>  <s_lp_Force_Field>  (88) 
OPLS3e

>  <r_lp_Energy>  (88) 
378.665

>  <b_lp_Chiralities_Consistent>  (88) 
1

>  <s_lp_Variant>  (88) 
24:0-1

>  <s_i_glide_gridfile>  (88) 
pfpi4k_grid

>  <i_i_glide_lignum>  (88) 
35

>  <i_i_glide_rotatable_bonds>  (88) 
6

>  <r_i_docking_score>  (88) 
-4.95387

>  <r_i_glide_ligand_efficiency>  (88) 
-0.198155

>  <r_i_glide_ligand_efficiency_sa>  (88) 
-0.579409

>  <r_i_glide_ligand_efficiency_ln>  (88) 
-1.17422

>  <r_i_glide_gscore>  (88) 
-4.95387

>  <r_i_glide_lipo>  (88) 
-0.667183

>  <r_i_glide_hbond>  (88) 
-0.177829

>  <r_i_glide_metal>  (88) 
-0

>  <r_i_glide_rewards>  (88) 
-1.50606

>  <r_i_glide_evdw>  (88) 
-20.7513

>  <r_i_glide_ecoul>  (88) 
-10.9195

>  <r_i_glide_erotb>  (88) 
0.153641

>  <r_i_glide_esite>  (88) 
-0.0809607

>  <r_i_glide_emodel>  (88) 
-46.5766

>  <r_i_glide_energy>  (88) 
-31.6708

>  <r_i_glide_einternal>  (88) 
1.98896

>  <r_i_glide_intrahb_reward>  (88) 
-0.5

>  <i_i_glide_confnum>  (88) 
5

>  <i_i_glide_posenum>  (88) 
20

>  <r_i_glide_eff_state_penalty>  (88) 
0

>  <ligand_id>  (88) 
24

>  <original_smiles>  (88) 
CCCN1CC2(O)C3C4CC5OC3(C4C3C(OC)CC32O)C(C)(O)C51

>  <smiles>  (88) 
[H]OC12C([H])([H])C([H])(OC([H])([H])[H])C1([H])C1([H])C3([H])C([H])([H])C4([H])OC15C3([H])C2(O[H])C([H])([H])[N+]([H])(C([H])([H])C([H])([H])C([H])([H])[H])C4([H])C5(O[H])C([H])([H])[H]

$$$$
24:0:2
     RDKit          3D

 55 60  0  0  1  0  0  0  0  0999 V2000
    7.6670   -5.8021    2.1276 C   0  0  0  0  0  0  0  0  0  0  0  0
    6.6497   -6.5847    1.3101 C   0  0  0  0  0  0  0  0  0  0  0  0
    5.2822   -5.8813    1.1957 C   0  0  0  0  0  0  0  0  0  0  0  0
    5.3330   -4.6626    0.3613 N   0  0  1  0  0  0  0  0  0  0  0  0
    4.6725   -4.8903   -1.0463 C   0  0  0  0  0  0  0  0  0  0  0  0
    4.4579   -3.7427   -2.2266 C   0  0  2  0  0  0  0  0  0  0  0  0
    5.0282   -4.2162   -3.3950 O   0  0  0  0  0  0  0  0  0  0  0  0
    5.3022   -2.5882   -1.7547 C   0  0  1  0  0  0  0  0  0  0  0  0
    5.3357   -0.9580   -1.5325 C   0  0  2  0  0  0  0  0  0  0  0  0
    6.1114   -0.6767   -0.0816 C   0  0  0  0  0  0  0  0  0  0  0  0
    5.8681   -1.8477    1.1032 C   0  0  2  0  0  0  0  0  0  0  0  0
    5.7970   -2.4639    0.0192 O   0  0  0  0  0  0  0  0  0  0  0  0
    4.4186   -2.2606   -0.5012 C   0  0  1  0  0  0  0  0  0  0  0  0
    3.8691   -1.1321   -1.3368 C   0  0  2  0  0  0  0  0  0  0  0  0
    2.9062   -1.6758   -2.4005 C   0  0  1  0  0  0  0  0  0  0  0  0
    2.9940   -1.3764   -3.8799 C   0  0  1  0  0  0  0  0  0  0  0  0
    4.2536   -0.9892   -4.3215 O   0  0  0  0  0  0  0  0  0  0  0  0
    4.1068    0.3334   -4.7968 C   0  0  0  0  0  0  0  0  0  0  0  0
    2.7121   -2.8445   -4.1398 C   0  0  0  0  0  0  0  0  0  0  0  0
    3.0402   -3.1671   -2.6752 C   0  0  1  0  0  0  0  0  0  0  0  0
    1.9832   -3.8393   -2.0829 O   0  0  0  0  0  0  0  0  0  0  0  0
    3.6861   -2.8571    0.6905 C   0  0  1  0  0  0  0  0  0  0  0  0
    2.9755   -1.7867    1.5731 C   0  0  0  0  0  0  0  0  0  0  0  0
    2.6834   -3.8463    0.5877 O   0  0  0  0  0  0  0  0  0  0  0  0
    4.9876   -3.3047    1.2042 C   0  0  1  0  0  0  0  0  0  0  0  0
    8.6193   -6.3329    2.1561 H   0  0  0  0  0  0  0  0  0  0  0  0
    7.3227   -5.6644    3.1504 H   0  0  0  0  0  0  0  0  0  0  0  0
    7.8431   -4.8268    1.6797 H   0  0  0  0  0  0  0  0  0  0  0  0
    7.0811   -6.7244    0.3288 H   0  0  0  0  0  0  0  0  0  0  0  0
    6.5130   -7.5735    1.7441 H   0  0  0  0  0  0  0  0  0  0  0  0
    4.5589   -6.5944    0.7750 H   0  0  0  0  0  0  0  0  0  0  0  0
    4.8922   -5.6711    2.1949 H   0  0  0  0  0  0  0  0  0  0  0  0
    5.3113   -5.6597   -1.4851 H   0  0  0  0  0  0  0  0  0  0  0  0
    3.7636   -5.4387   -0.8448 H   0  0  0  0  0  0  0  0  0  0  0  0
    4.7274   -5.1673   -3.5163 H   0  0  0  0  0  0  0  0  0  0  0  0
    6.3476   -2.9270   -1.8382 H   0  0  0  0  0  0  0  0  0  0  0  0
    5.6119   -0.3349   -2.3775 H   0  0  0  0  0  0  0  0  0  0  0  0
    7.1818   -0.6557   -0.2500 H   0  0  0  0  0  0  0  0  0  0  0  0
    5.8602    0.3229    0.3066 H   0  0  0  0  0  0  0  0  0  0  0  0
    6.8210   -1.9716    1.6223 H   0  0  0  0  0  0  0  0  0  0  0  0
    3.4543   -0.3318   -0.7038 H   0  0  0  0  0  0  0  0  0  0  0  0
    1.8728   -1.5958   -2.1919 H   0  0  0  0  0  0  0  0  0  0  0  0
    2.3086   -0.6812   -4.2081 H   0  0  0  0  0  0  0  0  0  0  0  0
    5.0550    0.5959   -5.1450 H   0  0  0  0  0  0  0  0  0  0  0  0
    3.9240    1.1124   -4.0608 H   0  0  0  0  0  0  0  0  0  0  0  0
    3.5797    0.4037   -5.7425 H   0  0  0  0  0  0  0  0  0  0  0  0
    1.6577   -3.0095   -4.3915 H   0  0  0  0  0  0  0  0  0  0  0  0
    3.3606   -3.2610   -4.8826 H   0  0  0  0  0  0  0  0  0  0  0  0
    2.0478   -4.7405   -2.3719 H   0  0  0  0  0  0  0  0  0  0  0  0
    3.5700   -0.8945    1.7555 H   0  0  0  0  0  0  0  0  0  0  0  0
    2.7051   -2.2136    2.5400 H   0  0  0  0  0  0  0  0  0  0  0  0
    2.0490   -1.4555    1.1034 H   0  0  0  0  0  0  0  0  0  0  0  0
    2.8399   -4.3486   -0.2090 H   0  0  0  0  0  0  0  0  0  0  0  0
    4.9081   -3.5584    2.2543 H   0  0  0  0  0  0  0  0  0  0  0  0
    6.3130   -4.5240    0.1415 H   0  0  0  0  0  0  0  0  0  0  0  0
  1  2  1  0
  1 26  1  0
  1 27  1  0
  1 28  1  0
  2  3  1  0
  2 29  1  0
  2 30  1  0
  3  4  1  0
  3 31  1  0
  3 32  1  0
  4 25  1  0
  4  5  1  0
  4 55  1  6
  5  6  1  0
  5 33  1  0
  5 34  1  0
  6 20  1  0
  6  7  1  6
  6  8  1  0
  7 35  1  0
  8 13  1  0
  8  9  1  0
  8 36  1  1
  9 14  1  0
  9 10  1  0
  9 37  1  6
 10 11  1  0
 10 38  1  0
 10 39  1  0
 11 25  1  0
 11 12  1  0
 11 40  1  1
 13 12  1  1
 13 14  1  0
 13 22  1  0
 14 15  1  0
 14 41  1  1
 15 20  1  0
 15 16  1  0
 15 42  1  1
 16 17  1  0
 16 19  1  0
 16 43  1  6
 17 18  1  0
 18 44  1  0
 18 45  1  0
 18 46  1  0
 19 20  1  0
 19 47  1  0
 19 48  1  0
 20 21  1  1
 21 49  1  0
 22 23  1  0
 22 24  1  6
 22 25  1  0
 23 50  1  0
 23 51  1  0
 23 52  1  0
 24 53  1  0
 25 54  1  1
M  CHG  1   4   1
M  END
>  <i_m_ct_stereo_status>  (89) 
1

>  <s_m_source_file>  (89) 
/var/tmp/pbs.5076255.sched01/tmp0qfm3vo4/0bcu552to.sdf

>  <i_m_source_file_index>  (89) 
35

>  <i_lp_mmshare_version>  (89) 
48012

>  <i_f3d_flags>  (89) 
0

>  <s_epik_input>  (89) 
W0NIM11bQ0gyXVtDSDJdTihbQ0gyXTEpW0NASF0oW0NAXTIoW0NIM10pW09IXSlbQ0BASF0oTzMpW0NIMl1bQ0BASF00W0NASF01W0NAQEhdKFtDQEhdKFtDSDJdNilPW0NIM10pW0NAXTYoW09IXSlbQ0BAXTEoW09IXSlbQ0BASF00W0NAQF0yMzU=

>  <s_epik_cmdline>  (89) 
J2VwaWtfcHl0aG9uJywgJy1waHQnLCAnMi4wJywgJy1waCcsICc3LjAnLCAnLXRuJywgJzgnLCAnLW1hJywgJzIwMCcsICctaW1hZScsICc8aW5maWxlLm1hZT4nLCAnLW9tYWUnLCAnPG91dGZpbGUubWFlPic=

>  <r_epik_Ionization_Penalty>  (89) 
0.0143341

>  <r_epik_Ionization_Penalty_Charging>  (89) 
0.0143339

>  <r_epik_Ionization_Penalty_Neutral>  (89) 
1.90383e-07

>  <r_epik_State_Penalty>  (89) 
0.0112058

>  <r_epik_Charging_Adjusted_Penalty>  (89) 
0.0255397

>  <i_epik_Tot_Q>  (89) 
1

>  <i_epik_Tot_abs_Q>  (89) 
1

>  <s_lp_Force_Field>  (89) 
OPLS3e

>  <r_lp_Energy>  (89) 
378.665

>  <b_lp_Chiralities_Consistent>  (89) 
1

>  <s_lp_Variant>  (89) 
24:0-1

>  <s_i_glide_gridfile>  (89) 
pfpi4k_grid

>  <i_i_glide_lignum>  (89) 
35

>  <i_i_glide_rotatable_bonds>  (89) 
6

>  <r_i_docking_score>  (89) 
-4.02207

>  <r_i_glide_ligand_efficiency>  (89) 
-0.160883

>  <r_i_glide_ligand_efficiency_sa>  (89) 
-0.470424

>  <r_i_glide_ligand_efficiency_ln>  (89) 
-0.953351

>  <r_i_glide_gscore>  (89) 
-4.02207

>  <r_i_glide_lipo>  (89) 
-0.722658

>  <r_i_glide_hbond>  (89) 
-0.0959665

>  <r_i_glide_metal>  (89) 
-0

>  <r_i_glide_rewards>  (89) 
-1.50606

>  <r_i_glide_evdw>  (89) 
0.171023

>  <r_i_glide_ecoul>  (89) 
-12.3972

>  <r_i_glide_erotb>  (89) 
0.153641

>  <r_i_glide_esite>  (89) 
0

>  <r_i_glide_emodel>  (89) 
-19.7412

>  <r_i_glide_energy>  (89) 
-12.2262

>  <r_i_glide_einternal>  (89) 
6.79185

>  <r_i_glide_intrahb_reward>  (89) 
-0.5

>  <i_i_glide_confnum>  (89) 
3

>  <i_i_glide_posenum>  (89) 
16

>  <r_i_glide_eff_state_penalty>  (89) 
0

>  <ligand_id>  (89) 
24

>  <original_smiles>  (89) 
CCCN1CC2(O)C3C4CC5OC3(C4C3C(OC)CC32O)C(C)(O)C51

>  <smiles>  (89) 
[H]OC12C([H])([H])C([H])(OC([H])([H])[H])C1([H])C1([H])C3([H])C([H])([H])C4([H])OC15C3([H])C2(O[H])C([H])([H])[N+]([H])(C([H])([H])C([H])([H])C([H])([H])[H])C4([H])C5(O[H])C([H])([H])[H]

$$$$
24:1:0
     RDKit          3D

 54 59  0  0  1  0  0  0  0  0999 V2000
    6.6469   -7.8514    1.7044 C   0  0  0  0  0  0  0  0  0  0  0  0
    5.6511   -6.8112    1.1620 C   0  0  0  0  0  0  0  0  0  0  0  0
    6.3218   -5.5346    0.6268 C   0  0  0  0  0  0  0  0  0  0  0  0
    5.3852   -4.5217    0.1580 N   0  0  0  0  0  0  0  0  0  0  0  0
    4.7500   -4.6971   -1.2491 C   0  0  0  0  0  0  0  0  0  0  0  0
    4.5442   -3.4966   -2.3550 C   0  0  2  0  0  0  0  0  0  0  0  0
    5.0869   -3.9383   -3.5702 O   0  0  0  0  0  0  0  0  0  0  0  0
    5.3814   -2.3466   -1.8365 C   0  0  1  0  0  0  0  0  0  0  0  0
    5.3830   -0.7307   -1.4967 C   0  0  2  0  0  0  0  0  0  0  0  0
    6.1490   -0.5142   -0.0028 C   0  0  0  0  0  0  0  0  0  0  0  0
    5.9725   -1.8148    1.0673 C   0  0  2  0  0  0  0  0  0  0  0  0
    5.9212   -2.3149   -0.0849 O   0  0  0  0  0  0  0  0  0  0  0  0
    4.5225   -2.1112   -0.5564 C   0  0  1  0  0  0  0  0  0  0  0  0
    3.9296   -0.9463   -1.3227 C   0  0  2  0  0  0  0  0  0  0  0  0
    3.0104   -1.4795   -2.4447 C   0  0  1  0  0  0  0  0  0  0  0  0
    3.0518   -1.0514   -3.8848 C   0  0  1  0  0  0  0  0  0  0  0  0
    4.2831   -0.5762   -4.3135 O   0  0  0  0  0  0  0  0  0  0  0  0
    4.1141    0.6239   -5.0532 C   0  0  0  0  0  0  0  0  0  0  0  0
    2.7843   -2.5048   -4.2265 C   0  0  0  0  0  0  0  0  0  0  0  0
    3.1246   -2.9825   -2.7887 C   0  0  1  0  0  0  0  0  0  0  0  0
    2.0847   -3.7707   -2.2544 O   0  0  0  0  0  0  0  0  0  0  0  0
    3.7963   -2.7543    0.6102 C   0  0  1  0  0  0  0  0  0  0  0  0
    3.1049   -1.7583    1.5715 C   0  0  0  0  0  0  0  0  0  0  0  0
    2.7526   -3.6917    0.4104 O   0  0  0  0  0  0  0  0  0  0  0  0
    5.0927   -3.2672    1.0808 C   0  0  1  0  0  0  0  0  0  0  0  0
    6.1185   -8.6567    2.2151 H   0  0  0  0  0  0  0  0  0  0  0  0
    7.3320   -7.4131    2.4293 H   0  0  0  0  0  0  0  0  0  0  0  0
    7.2483   -8.3113    0.9187 H   0  0  0  0  0  0  0  0  0  0  0  0
    5.0437   -7.2770    0.3836 H   0  0  0  0  0  0  0  0  0  0  0  0
    4.9641   -6.5365    1.9623 H   0  0  0  0  0  0  0  0  0  0  0  0
    6.9664   -5.1028    1.3929 H   0  0  0  0  0  0  0  0  0  0  0  0
    6.9900   -5.8007   -0.1863 H   0  0  0  0  0  0  0  0  0  0  0  0
    5.3353   -5.4486   -1.7530 H   0  0  0  0  0  0  0  0  0  0  0  0
    3.8171   -5.2055   -1.0828 H   0  0  0  0  0  0  0  0  0  0  0  0
    4.7671   -4.8182   -3.7021 H   0  0  0  0  0  0  0  0  0  0  0  0
    6.4420   -2.6520   -1.9659 H   0  0  0  0  0  0  0  0  0  0  0  0
    5.6288   -0.0543   -2.3262 H   0  0  0  0  0  0  0  0  0  0  0  0
    7.2157   -0.4750   -0.1319 H   0  0  0  0  0  0  0  0  0  0  0  0
    5.8801    0.4339    0.4656 H   0  0  0  0  0  0  0  0  0  0  0  0
    6.9400   -1.9633    1.5369 H   0  0  0  0  0  0  0  0  0  0  0  0
    3.4779   -0.2594   -0.6040 H   0  0  0  0  0  0  0  0  0  0  0  0
    1.9985   -1.3764   -2.2734 H   0  0  0  0  0  0  0  0  0  0  0  0
    2.2575   -0.3520   -4.1218 H   0  0  0  0  0  0  0  0  0  0  0  0
    5.0414    0.9426   -5.4490 H   0  0  0  0  0  0  0  0  0  0  0  0
    3.7121    1.4529   -4.4670 H   0  0  0  0  0  0  0  0  0  0  0  0
    3.5785    0.4230   -5.9695 H   0  0  0  0  0  0  0  0  0  0  0  0
    1.7280   -2.6800   -4.4477 H   0  0  0  0  0  0  0  0  0  0  0  0
    3.4335   -2.8710   -5.0006 H   0  0  0  0  0  0  0  0  0  0  0  0
    2.2314   -4.6624   -2.6278 H   0  0  0  0  0  0  0  0  0  0  0  0
    3.7116   -0.8837    1.8101 H   0  0  0  0  0  0  0  0  0  0  0  0
    2.8560   -2.2608    2.5085 H   0  0  0  0  0  0  0  0  0  0  0  0
    2.1665   -1.3886    1.1465 H   0  0  0  0  0  0  0  0  0  0  0  0
    2.1579   -3.3150   -0.2275 H   0  0  0  0  0  0  0  0  0  0  0  0
    5.0024   -3.5981    2.1104 H   0  0  0  0  0  0  0  0  0  0  0  0
  1  2  1  0
  1 26  1  0
  1 27  1  0
  1 28  1  0
  2  3  1  0
  2 29  1  0
  2 30  1  0
  3  4  1  0
  3 31  1  0
  3 32  1  0
  4 25  1  0
  4  5  1  0
  5  6  1  0
  5 33  1  0
  5 34  1  0
  6 20  1  0
  6  7  1  6
  6  8  1  0
  7 35  1  0
  8 13  1  0
  8  9  1  0
  8 36  1  1
  9 14  1  0
  9 10  1  0
  9 37  1  6
 10 11  1  0
 10 38  1  0
 10 39  1  0
 11 25  1  0
 11 12  1  0
 11 40  1  1
 13 12  1  1
 13 14  1  0
 13 22  1  0
 14 15  1  0
 14 41  1  1
 15 20  1  0
 15 16  1  0
 15 42  1  1
 16 17  1  0
 16 19  1  0
 16 43  1  1
 17 18  1  0
 18 44  1  0
 18 45  1  0
 18 46  1  0
 19 20  1  0
 19 47  1  0
 19 48  1  0
 20 21  1  1
 21 49  1  0
 22 23  1  0
 22 24  1  6
 22 25  1  0
 23 50  1  0
 23 51  1  0
 23 52  1  0
 24 53  1  0
 25 54  1  1
M  END
>  <i_m_ct_stereo_status>  (90) 
1

>  <s_m_source_file>  (90) 
/var/tmp/pbs.5076255.sched01/tmp0qfm3vo4/0bcu552to.sdf

>  <i_m_source_file_index>  (90) 
36

>  <i_lp_mmshare_version>  (90) 
48012

>  <i_f3d_flags>  (90) 
0

>  <s_epik_input>  (90) 
W0NIM11bQ0gyXVtDSDJdTihbQ0gyXTEpW0NASF0oW0NAXTIoW0NIM10pW09IXSlbQ0BASF0oTzMpW0NIMl1bQ0BASF00W0NASF01W0NAQEhdKFtDQEhdKFtDSDJdNilPW0NIM10pW0NAXTYoW09IXSlbQ0BAXTEoW09IXSlbQ0BASF00W0NAQF0yMzU=

>  <s_epik_cmdline>  (90) 
J2VwaWtfcHl0aG9uJywgJy1waHQnLCAnMi4wJywgJy1waCcsICc3LjAnLCAnLXRuJywgJzgnLCAnLW1hJywgJzIwMCcsICctaW1hZScsICc8aW5maWxlLm1hZT4nLCAnLW9tYWUnLCAnPG91dGZpbGUubWFlPic=

>  <r_epik_Ionization_Penalty>  (90) 
2.21221

>  <r_epik_Ionization_Penalty_Charging>  (90) 
0

>  <r_epik_Ionization_Penalty_Neutral>  (90) 
2.21221

>  <r_epik_State_Penalty>  (90) 
2.35651

>  <r_epik_Charging_Adjusted_Penalty>  (90) 
2.35651

>  <i_epik_Tot_Q>  (90) 
0

>  <i_epik_Tot_abs_Q>  (90) 
0

>  <s_lp_Force_Field>  (90) 
OPLS3e

>  <r_lp_Energy>  (90) 
384.898

>  <b_lp_Chiralities_Consistent>  (90) 
1

>  <s_lp_Variant>  (90) 
24:0-2

>  <s_i_glide_gridfile>  (90) 
pfpi4k_grid

>  <i_i_glide_lignum>  (90) 
36

>  <i_i_glide_rotatable_bonds>  (90) 
6

>  <r_i_docking_score>  (90) 
-3.8412

>  <r_i_glide_ligand_efficiency>  (90) 
-0.153648

>  <r_i_glide_ligand_efficiency_sa>  (90) 
-0.44927

>  <r_i_glide_ligand_efficiency_ln>  (90) 
-0.91048

>  <r_i_glide_gscore>  (90) 
-3.8412

>  <r_i_glide_lipo>  (90) 
-0.751112

>  <r_i_glide_hbond>  (90) 
0

>  <r_i_glide_metal>  (90) 
-0

>  <r_i_glide_rewards>  (90) 
-1.51293

>  <r_i_glide_evdw>  (90) 
-6.69266

>  <r_i_glide_ecoul>  (90) 
-9.31303

>  <r_i_glide_erotb>  (90) 
0.154426

>  <r_i_glide_esite>  (90) 
0

>  <r_i_glide_emodel>  (90) 
-28.0466

>  <r_i_glide_energy>  (90) 
-16.0057

>  <r_i_glide_einternal>  (90) 
3.35368

>  <r_i_glide_intrahb_reward>  (90) 
-0.5

>  <i_i_glide_confnum>  (90) 
3

>  <i_i_glide_posenum>  (90) 
31

>  <r_i_glide_eff_state_penalty>  (90) 
0

>  <ligand_id>  (90) 
24

>  <original_smiles>  (90) 
CCCN1CC2(O)C3C4CC5OC3(C4C3C(OC)CC32O)C(C)(O)C51

>  <smiles>  (90) 
[H]OC1(C([H])([H])[H])C2([H])N(C([H])([H])C([H])([H])C([H])([H])[H])C([H])([H])C3(O[H])C4([H])C5([H])C([H])([H])C2([H])OC41C5([H])C1([H])C([H])(OC([H])([H])[H])C([H])([H])C13O[H]

$$$$
24:1:1
     RDKit          3D

 54 59  0  0  1  0  0  0  0  0999 V2000
    4.3385   -7.6318    0.9401 C   0  0  0  0  0  0  0  0  0  0  0  0
    5.4672   -6.8463    1.6287 C   0  0  0  0  0  0  0  0  0  0  0  0
    6.1310   -5.7572    0.7646 C   0  0  0  0  0  0  0  0  0  0  0  0
    5.2470   -4.7139    0.2610 N   0  0  0  0  0  0  0  0  0  0  0  0
    4.5877   -4.9397   -1.1121 C   0  0  0  0  0  0  0  0  0  0  0  0
    4.3937   -3.7674   -2.2711 C   0  0  2  0  0  0  0  0  0  0  0  0
    4.9544   -4.2788   -3.4534 O   0  0  0  0  0  0  0  0  0  0  0  0
    5.2907   -2.6403   -1.8241 C   0  0  1  0  0  0  0  0  0  0  0  0
    5.3935   -1.0048   -1.5864 C   0  0  2  0  0  0  0  0  0  0  0  0
    6.2110   -0.7654   -0.1248 C   0  0  0  0  0  0  0  0  0  0  0  0
    5.9661   -1.9883    1.0234 C   0  0  2  0  0  0  0  0  0  0  0  0
    5.8521   -2.5462   -0.0898 O   0  0  0  0  0  0  0  0  0  0  0  0
    4.4608   -2.2936   -0.5506 C   0  0  1  0  0  0  0  0  0  0  0  0
    3.9272   -1.1276   -1.3600 C   0  0  2  0  0  0  0  0  0  0  0  0
    2.9416   -1.6654   -2.4190 C   0  0  1  0  0  0  0  0  0  0  0  0
    2.9834   -1.3349   -3.8808 C   0  0  1  0  0  0  0  0  0  0  0  0
    4.2394   -0.9544   -4.3319 O   0  0  0  0  0  0  0  0  0  0  0  0
    4.1527    0.3747   -4.8013 C   0  0  0  0  0  0  0  0  0  0  0  0
    2.6633   -2.7940   -4.1555 C   0  0  0  0  0  0  0  0  0  0  0  0
    2.9929   -3.1700   -2.6947 C   0  0  1  0  0  0  0  0  0  0  0  0
    1.9167   -3.8372   -2.1085 O   0  0  0  0  0  0  0  0  0  0  0  0
    3.7341   -2.8631    0.6510 C   0  0  1  0  0  0  0  0  0  0  0  0
    3.1101   -1.8003    1.5751 C   0  0  0  0  0  0  0  0  0  0  0  0
    2.6563   -3.7827    0.5363 O   0  0  0  0  0  0  0  0  0  0  0  0
    5.0228   -3.4036    1.1268 C   0  0  1  0  0  0  0  0  0  0  0  0
    4.0336   -8.4840    1.5494 H   0  0  0  0  0  0  0  0  0  0  0  0
    4.6450   -8.0198   -0.0309 H   0  0  0  0  0  0  0  0  0  0  0  0
    3.4556   -7.0109    0.7924 H   0  0  0  0  0  0  0  0  0  0  0  0
    5.1007   -6.4142    2.5590 H   0  0  0  0  0  0  0  0  0  0  0  0
    6.2398   -7.5608    1.9164 H   0  0  0  0  0  0  0  0  0  0  0  0
    6.9367   -5.2896    1.3278 H   0  0  0  0  0  0  0  0  0  0  0  0
    6.6277   -6.2396   -0.0727 H   0  0  0  0  0  0  0  0  0  0  0  0
    5.0912   -5.7793   -1.5780 H   0  0  0  0  0  0  0  0  0  0  0  0
    3.6441   -5.4047   -0.8718 H   0  0  0  0  0  0  0  0  0  0  0  0
    4.7048   -5.1963   -3.4953 H   0  0  0  0  0  0  0  0  0  0  0  0
    6.3253   -3.0056   -1.9474 H   0  0  0  0  0  0  0  0  0  0  0  0
    5.6637   -0.3752   -2.4110 H   0  0  0  0  0  0  0  0  0  0  0  0
    7.2791   -0.7383   -0.2997 H   0  0  0  0  0  0  0  0  0  0  0  0
    5.9737    0.2176    0.2737 H   0  0  0  0  0  0  0  0  0  0  0  0
    6.9272   -2.1574    1.5019 H   0  0  0  0  0  0  0  0  0  0  0  0
    3.5527   -0.3295   -0.7263 H   0  0  0  0  0  0  0  0  0  0  0  0
    1.9442   -1.5179   -2.1728 H   0  0  0  0  0  0  0  0  0  0  0  0
    2.2231   -0.6245   -4.1889 H   0  0  0  0  0  0  0  0  0  0  0  0
    5.0560    0.6985   -5.1283 H   0  0  0  0  0  0  0  0  0  0  0  0
    3.9345    1.1407   -4.0620 H   0  0  0  0  0  0  0  0  0  0  0  0
    3.5829    0.4608   -5.7210 H   0  0  0  0  0  0  0  0  0  0  0  0
    1.6110   -2.9444   -4.4082 H   0  0  0  0  0  0  0  0  0  0  0  0
    3.3001   -3.2408   -4.9039 H   0  0  0  0  0  0  0  0  0  0  0  0
    2.0639   -4.7663   -2.3370 H   0  0  0  0  0  0  0  0  0  0  0  0
    3.7589   -0.9468    1.7566 H   0  0  0  0  0  0  0  0  0  0  0  0
    2.8572   -2.2419    2.5393 H   0  0  0  0  0  0  0  0  0  0  0  0
    2.1875   -1.4108    1.1424 H   0  0  0  0  0  0  0  0  0  0  0  0
    2.8010   -4.3187   -0.2303 H   0  0  0  0  0  0  0  0  0  0  0  0
    4.9436   -3.6939    2.1712 H   0  0  0  0  0  0  0  0  0  0  0  0
  1  2  1  0
  1 26  1  0
  1 27  1  0
  1 28  1  0
  2  3  1  0
  2 29  1  0
  2 30  1  0
  3  4  1  0
  3 31  1  0
  3 32  1  0
  4 25  1  0
  4  5  1  0
  5  6  1  0
  5 33  1  0
  5 34  1  0
  6 20  1  0
  6  7  1  6
  6  8  1  0
  7 35  1  0
  8 13  1  0
  8  9  1  0
  8 36  1  1
  9 14  1  0
  9 10  1  0
  9 37  1  6
 10 11  1  0
 10 38  1  0
 10 39  1  0
 11 25  1  0
 11 12  1  0
 11 40  1  1
 13 12  1  1
 13 14  1  0
 13 22  1  0
 14 15  1  0
 14 41  1  1
 15 20  1  0
 15 16  1  0
 15 42  1  1
 16 17  1  0
 16 19  1  0
 16 43  1  1
 17 18  1  0
 18 44  1  0
 18 45  1  0
 18 46  1  0
 19 20  1  0
 19 47  1  0
 19 48  1  0
 20 21  1  1
 21 49  1  0
 22 23  1  0
 22 24  1  6
 22 25  1  0
 23 50  1  0
 23 51  1  0
 23 52  1  0
 24 53  1  0
 25 54  1  1
M  END
>  <i_m_ct_stereo_status>  (91) 
1

>  <s_m_source_file>  (91) 
/var/tmp/pbs.5076255.sched01/tmp0qfm3vo4/0bcu552to.sdf

>  <i_m_source_file_index>  (91) 
36

>  <i_lp_mmshare_version>  (91) 
48012

>  <i_f3d_flags>  (91) 
0

>  <s_epik_input>  (91) 
W0NIM11bQ0gyXVtDSDJdTihbQ0gyXTEpW0NASF0oW0NAXTIoW0NIM10pW09IXSlbQ0BASF0oTzMpW0NIMl1bQ0BASF00W0NASF01W0NAQEhdKFtDQEhdKFtDSDJdNilPW0NIM10pW0NAXTYoW09IXSlbQ0BAXTEoW09IXSlbQ0BASF00W0NAQF0yMzU=

>  <s_epik_cmdline>  (91) 
J2VwaWtfcHl0aG9uJywgJy1waHQnLCAnMi4wJywgJy1waCcsICc3LjAnLCAnLXRuJywgJzgnLCAnLW1hJywgJzIwMCcsICctaW1hZScsICc8aW5maWxlLm1hZT4nLCAnLW9tYWUnLCAnPG91dGZpbGUubWFlPic=

>  <r_epik_Ionization_Penalty>  (91) 
2.21221

>  <r_epik_Ionization_Penalty_Charging>  (91) 
0

>  <r_epik_Ionization_Penalty_Neutral>  (91) 
2.21221

>  <r_epik_State_Penalty>  (91) 
2.35651

>  <r_epik_Charging_Adjusted_Penalty>  (91) 
2.35651

>  <i_epik_Tot_Q>  (91) 
0

>  <i_epik_Tot_abs_Q>  (91) 
0

>  <s_lp_Force_Field>  (91) 
OPLS3e

>  <r_lp_Energy>  (91) 
384.898

>  <b_lp_Chiralities_Consistent>  (91) 
1

>  <s_lp_Variant>  (91) 
24:0-2

>  <s_i_glide_gridfile>  (91) 
pfpi4k_grid

>  <i_i_glide_lignum>  (91) 
36

>  <i_i_glide_rotatable_bonds>  (91) 
6

>  <r_i_docking_score>  (91) 
-3.41513

>  <r_i_glide_ligand_efficiency>  (91) 
-0.136605

>  <r_i_glide_ligand_efficiency_sa>  (91) 
-0.399436

>  <r_i_glide_ligand_efficiency_ln>  (91) 
-0.809488

>  <r_i_glide_gscore>  (91) 
-3.41513

>  <r_i_glide_lipo>  (91) 
-0.764406

>  <r_i_glide_hbond>  (91) 
-0.0857824

>  <r_i_glide_metal>  (91) 
-0

>  <r_i_glide_rewards>  (91) 
-1.01293

>  <r_i_glide_evdw>  (91) 
-1.12429

>  <r_i_glide_ecoul>  (91) 
-11.0015

>  <r_i_glide_erotb>  (91) 
0.154426

>  <r_i_glide_esite>  (91) 
0

>  <r_i_glide_emodel>  (91) 
-17.017

>  <r_i_glide_energy>  (91) 
-12.1258

>  <r_i_glide_einternal>  (91) 
6.09244

>  <r_i_glide_intrahb_reward>  (91) 
-0

>  <i_i_glide_confnum>  (91) 
2

>  <i_i_glide_posenum>  (91) 
18

>  <r_i_glide_eff_state_penalty>  (91) 
0

>  <ligand_id>  (91) 
24

>  <original_smiles>  (91) 
CCCN1CC2(O)C3C4CC5OC3(C4C3C(OC)CC32O)C(C)(O)C51

>  <smiles>  (91) 
[H]OC1(C([H])([H])[H])C2([H])N(C([H])([H])C([H])([H])C([H])([H])[H])C([H])([H])C3(O[H])C4([H])C5([H])C([H])([H])C2([H])OC41C5([H])C1([H])C([H])(OC([H])([H])[H])C([H])([H])C13O[H]

$$$$
24:1:2
     RDKit          3D

 54 59  0  0  1  0  0  0  0  0999 V2000
    5.5179   -6.2289    2.7800 C   0  0  0  0  0  0  0  0  0  0  0  0
    6.7016   -5.6673    1.9769 C   0  0  0  0  0  0  0  0  0  0  0  0
    6.4201   -5.5655    0.4799 C   0  0  0  0  0  0  0  0  0  0  0  0
    5.4578   -4.5562    0.0796 N   0  0  0  0  0  0  0  0  0  0  0  0
    4.8410   -4.6772   -1.3402 C   0  0  0  0  0  0  0  0  0  0  0  0
    4.6599   -3.4503   -2.4356 C   0  0  2  0  0  0  0  0  0  0  0  0
    5.2185   -3.8586   -3.6567 O   0  0  0  0  0  0  0  0  0  0  0  0
    5.4899   -2.3092   -1.8816 C   0  0  1  0  0  0  0  0  0  0  0  0
    5.4727   -0.7094   -1.4752 C   0  0  2  0  0  0  0  0  0  0  0  0
    6.2194   -0.5372    0.0472 C   0  0  0  0  0  0  0  0  0  0  0  0
    6.0546   -1.8817    1.0486 C   0  0  2  0  0  0  0  0  0  0  0  0
    6.0053   -2.3472   -0.1219 O   0  0  0  0  0  0  0  0  0  0  0  0
    4.6154   -2.1295   -0.6038 C   0  0  1  0  0  0  0  0  0  0  0  0
    4.0288   -0.9367   -1.3276 C   0  0  2  0  0  0  0  0  0  0  0  0
    3.1262   -1.4132   -2.4556 C   0  0  1  0  0  0  0  0  0  0  0  0
    3.0807   -0.9219   -3.8812 C   0  0  1  0  0  0  0  0  0  0  0  0
    4.3170   -0.4449   -4.3305 O   0  0  0  0  0  0  0  0  0  0  0  0
    4.1296    0.6278   -5.2082 C   0  0  0  0  0  0  0  0  0  0  0  0
    2.8821   -2.3790   -4.2843 C   0  0  0  0  0  0  0  0  0  0  0  0
    3.2505   -2.8785   -2.8668 C   0  0  1  0  0  0  0  0  0  0  0  0
    2.2158   -3.6661   -2.3542 O   0  0  0  0  0  0  0  0  0  0  0  0
    3.8774   -2.8002    0.5455 C   0  0  1  0  0  0  0  0  0  0  0  0
    3.1845   -1.8525    1.5465 C   0  0  0  0  0  0  0  0  0  0  0  0
    2.8225   -3.7279    0.3467 O   0  0  0  0  0  0  0  0  0  0  0  0
    5.1689   -3.3105    1.0145 C   0  0  1  0  0  0  0  0  0  0  0  0
    5.8155   -6.3793    3.8159 H   0  0  0  0  0  0  0  0  0  0  0  0
    5.1802   -7.1846    2.3781 H   0  0  0  0  0  0  0  0  0  0  0  0
    4.6534   -5.5649    2.7797 H   0  0  0  0  0  0  0  0  0  0  0  0
    7.0158   -4.6943    2.3523 H   0  0  0  0  0  0  0  0  0  0  0  0
    7.5630   -6.3220    2.1078 H   0  0  0  0  0  0  0  0  0  0  0  0
    7.3653   -5.3816   -0.0249 H   0  0  0  0  0  0  0  0  0  0  0  0
    6.0445   -6.5202    0.1179 H   0  0  0  0  0  0  0  0  0  0  0  0
    5.3815   -5.4457   -1.8863 H   0  0  0  0  0  0  0  0  0  0  0  0
    3.8855   -5.1282   -1.1079 H   0  0  0  0  0  0  0  0  0  0  0  0
    6.1295   -4.0504   -3.4893 H   0  0  0  0  0  0  0  0  0  0  0  0
    6.5581   -2.5868   -2.0247 H   0  0  0  0  0  0  0  0  0  0  0  0
    5.6956   -0.0180   -2.2820 H   0  0  0  0  0  0  0  0  0  0  0  0
    7.2982   -0.5053   -0.0405 H   0  0  0  0  0  0  0  0  0  0  0  0
    5.9145    0.3843    0.5457 H   0  0  0  0  0  0  0  0  0  0  0  0
    7.0262   -2.0809    1.4876 H   0  0  0  0  0  0  0  0  0  0  0  0
    3.5377   -0.2503   -0.6157 H   0  0  0  0  0  0  0  0  0  0  0  0
    2.1845   -1.3121   -2.0705 H   0  0  0  0  0  0  0  0  0  0  0  0
    2.2129   -0.2708   -4.0456 H   0  0  0  0  0  0  0  0  0  0  0  0
    5.1069    0.9434   -5.5132 H   0  0  0  0  0  0  0  0  0  0  0  0
    3.6984    1.4974   -4.7114 H   0  0  0  0  0  0  0  0  0  0  0  0
    3.5767    0.2887   -6.0740 H   0  0  0  0  0  0  0  0  0  0  0  0
    1.8188   -2.5709   -4.4736 H   0  0  0  0  0  0  0  0  0  0  0  0
    3.5259   -2.7188   -5.0873 H   0  0  0  0  0  0  0  0  0  0  0  0
    2.3259   -4.5373   -2.7212 H   0  0  0  0  0  0  0  0  0  0  0  0
    3.7894   -0.9907    1.8277 H   0  0  0  0  0  0  0  0  0  0  0  0
    2.9425   -2.4025    2.4606 H   0  0  0  0  0  0  0  0  0  0  0  0
    2.2393   -1.4749    1.1422 H   0  0  0  0  0  0  0  0  0  0  0  0
    2.2406   -3.3501   -0.3064 H   0  0  0  0  0  0  0  0  0  0  0  0
    5.0368   -3.6219    2.0398 H   0  0  0  0  0  0  0  0  0  0  0  0
  1  2  1  0
  1 26  1  0
  1 27  1  0
  1 28  1  0
  2  3  1  0
  2 29  1  0
  2 30  1  0
  3  4  1  0
  3 31  1  0
  3 32  1  0
  4 25  1  0
  4  5  1  0
  5  6  1  0
  5 33  1  0
  5 34  1  0
  6 20  1  0
  6  7  1  6
  6  8  1  0
  7 35  1  0
  8 13  1  0
  8  9  1  0
  8 36  1  1
  9 14  1  0
  9 10  1  0
  9 37  1  6
 10 11  1  0
 10 38  1  0
 10 39  1  0
 11 25  1  0
 11 12  1  0
 11 40  1  1
 13 12  1  1
 13 14  1  0
 13 22  1  0
 14 15  1  0
 14 41  1  1
 15 20  1  0
 15 16  1  0
 15 42  1  1
 16 17  1  0
 16 19  1  0
 16 43  1  1
 17 18  1  0
 18 44  1  0
 18 45  1  0
 18 46  1  0
 19 20  1  0
 19 47  1  0
 19 48  1  0
 20 21  1  1
 21 49  1  0
 22 23  1  0
 22 24  1  6
 22 25  1  0
 23 50  1  0
 23 51  1  0
 23 52  1  0
 24 53  1  0
 25 54  1  1
M  END
>  <i_m_ct_stereo_status>  (92) 
1

>  <s_m_source_file>  (92) 
/var/tmp/pbs.5076255.sched01/tmp0qfm3vo4/0bcu552to.sdf

>  <i_m_source_file_index>  (92) 
36

>  <i_lp_mmshare_version>  (92) 
48012

>  <i_f3d_flags>  (92) 
0

>  <s_epik_input>  (92) 
W0NIM11bQ0gyXVtDSDJdTihbQ0gyXTEpW0NASF0oW0NAXTIoW0NIM10pW09IXSlbQ0BASF0oTzMpW0NIMl1bQ0BASF00W0NASF01W0NAQEhdKFtDQEhdKFtDSDJdNilPW0NIM10pW0NAXTYoW09IXSlbQ0BAXTEoW09IXSlbQ0BASF00W0NAQF0yMzU=

>  <s_epik_cmdline>  (92) 
J2VwaWtfcHl0aG9uJywgJy1waHQnLCAnMi4wJywgJy1waCcsICc3LjAnLCAnLXRuJywgJzgnLCAnLW1hJywgJzIwMCcsICctaW1hZScsICc8aW5maWxlLm1hZT4nLCAnLW9tYWUnLCAnPG91dGZpbGUubWFlPic=

>  <r_epik_Ionization_Penalty>  (92) 
2.21221

>  <r_epik_Ionization_Penalty_Charging>  (92) 
0

>  <r_epik_Ionization_Penalty_Neutral>  (92) 
2.21221

>  <r_epik_State_Penalty>  (92) 
2.35651

>  <r_epik_Charging_Adjusted_Penalty>  (92) 
2.35651

>  <i_epik_Tot_Q>  (92) 
0

>  <i_epik_Tot_abs_Q>  (92) 
0

>  <s_lp_Force_Field>  (92) 
OPLS3e

>  <r_lp_Energy>  (92) 
384.898

>  <b_lp_Chiralities_Consistent>  (92) 
1

>  <s_lp_Variant>  (92) 
24:0-2

>  <s_i_glide_gridfile>  (92) 
pfpi4k_grid

>  <i_i_glide_lignum>  (92) 
36

>  <i_i_glide_rotatable_bonds>  (92) 
6

>  <r_i_docking_score>  (92) 
-3.32966

>  <r_i_glide_ligand_efficiency>  (92) 
-0.133186

>  <r_i_glide_ligand_efficiency_sa>  (92) 
-0.389439

>  <r_i_glide_ligand_efficiency_ln>  (92) 
-0.789229

>  <r_i_glide_gscore>  (92) 
-3.32966

>  <r_i_glide_lipo>  (92) 
-0.613882

>  <r_i_glide_hbond>  (92) 
0

>  <r_i_glide_metal>  (92) 
-0

>  <r_i_glide_rewards>  (92) 
-1.51293

>  <r_i_glide_evdw>  (92) 
-4.81438

>  <r_i_glide_ecoul>  (92) 
-7.49233

>  <r_i_glide_erotb>  (92) 
0.154426

>  <r_i_glide_esite>  (92) 
0

>  <r_i_glide_emodel>  (92) 
-21.0634

>  <r_i_glide_energy>  (92) 
-12.3067

>  <r_i_glide_einternal>  (92) 
5.33642

>  <r_i_glide_intrahb_reward>  (92) 
-0.5

>  <i_i_glide_confnum>  (92) 
3

>  <i_i_glide_posenum>  (92) 
30

>  <r_i_glide_eff_state_penalty>  (92) 
0

>  <ligand_id>  (92) 
24

>  <original_smiles>  (92) 
CCCN1CC2(O)C3C4CC5OC3(C4C3C(OC)CC32O)C(C)(O)C51

>  <smiles>  (92) 
[H]OC1(C([H])([H])[H])C2([H])N(C([H])([H])C([H])([H])C([H])([H])[H])C([H])([H])C3(O[H])C4([H])C5([H])C([H])([H])C2([H])OC41C5([H])C1([H])C([H])(OC([H])([H])[H])C([H])([H])C13O[H]

$$$$
26:0:0
     RDKit          3D

 60 65  0  0  1  0  0  0  0  0999 V2000
    6.4823   -3.2536    6.5793 C   0  0  0  0  0  0  0  0  0  0  0  0
    5.6148   -3.1075    5.4613 O   0  0  0  0  0  0  0  0  0  0  0  0
    4.4257   -3.8868    5.5324 C   0  0  2  0  0  0  0  0  0  0  0  0
    4.7087   -5.3808    5.2591 C   0  0  0  0  0  0  0  0  0  0  0  0
    3.6301   -5.8825    4.2882 C   0  0  0  0  0  0  0  0  0  0  0  0
    2.6049   -4.7412    4.0564 C   0  0  2  0  0  0  0  0  0  0  0  0
    1.3823   -5.0741    4.9561 C   0  0  0  0  0  0  0  0  0  0  0  0
    2.1211   -4.7599    2.5709 C   0  0  0  0  0  0  0  0  0  0  0  0
    1.4155   -5.6862    2.2027 O   0  0  0  0  0  0  0  0  0  0  0  0
    2.5896   -3.8149    1.7292 O   0  0  0  0  0  0  0  0  0  0  0  0
    3.0018   -2.4916    2.0857 C   0  0  1  0  0  0  0  0  0  0  0  0
    1.9499   -1.5101    2.0758 O   0  0  0  0  0  0  0  0  0  0  0  0
    3.8367   -2.5481    3.3556 C   0  0  2  0  0  0  0  0  0  0  0  0
    5.0575   -2.7648    2.4444 C   0  0  1  0  0  0  0  0  0  0  0  0
    5.6752   -4.1078    2.1812 C   0  0  0  0  0  0  0  0  0  0  0  0
    6.5251   -4.0424    0.9211 C   0  0  1  0  0  0  0  0  0  0  0  0
    7.3625   -5.3283    0.8073 C   0  0  0  0  0  0  0  0  0  0  0  0
    5.6153   -3.7912   -0.3026 C   0  0  2  0  0  0  0  0  0  0  0  0
    6.4067   -3.4157   -1.5715 C   0  0  0  0  0  0  0  0  0  0  0  0
    5.7023   -2.2901   -2.2023 C   0  0  2  0  0  0  0  0  0  0  0  0
    5.7060   -1.0180   -1.5247 O   0  0  0  0  0  0  0  0  0  0  0  0
    4.5359   -1.8630   -1.3718 C   0  0  1  0  0  0  0  0  0  0  0  0
    3.2658   -1.3602   -2.0055 C   0  0  0  0  0  0  0  0  0  0  0  0
    4.4439   -2.7577   -0.1499 C   0  0  2  0  0  0  0  0  0  0  0  0
    4.2781   -2.0896    1.2849 C   0  0  1  0  0  0  0  0  0  0  0  0
    4.5259   -0.5677    1.1826 C   0  0  0  0  0  0  0  0  0  0  0  0
    3.3513   -3.4408    4.5092 C   0  0  2  0  0  0  0  0  0  0  0  0
    2.4333   -2.6084    5.2040 O   0  0  0  0  0  0  0  0  0  0  0  0
    7.3326   -2.5808    6.4812 H   0  0  0  0  0  0  0  0  0  0  0  0
    6.8714   -4.2654    6.6610 H   0  0  0  0  0  0  0  0  0  0  0  0
    5.9788   -2.9955    7.5109 H   0  0  0  0  0  0  0  0  0  0  0  0
    4.0017   -3.8268    6.5407 H   0  0  0  0  0  0  0  0  0  0  0  0
    5.7029   -5.5381    4.8399 H   0  0  0  0  0  0  0  0  0  0  0  0
    4.6842   -5.9473    6.1911 H   0  0  0  0  0  0  0  0  0  0  0  0
    4.0922   -6.2365    3.3676 H   0  0  0  0  0  0  0  0  0  0  0  0
    3.1553   -6.7742    4.7099 H   0  0  0  0  0  0  0  0  0  0  0  0
    1.6545   -5.1090    6.0107 H   0  0  0  0  0  0  0  0  0  0  0  0
    0.9409   -6.0417    4.7057 H   0  0  0  0  0  0  0  0  0  0  0  0
    0.5832   -4.3362    4.8400 H   0  0  0  0  0  0  0  0  0  0  0  0
    1.7330   -1.3568    1.1736 H   0  0  0  0  0  0  0  0  0  0  0  0
    3.9717   -1.5317    3.7398 H   0  0  0  0  0  0  0  0  0  0  0  0
    5.8336   -2.0593    2.7660 H   0  0  0  0  0  0  0  0  0  0  0  0
    6.2315   -4.4472    3.0397 H   0  0  0  0  0  0  0  0  0  0  0  0
    4.8957   -4.8488    2.0015 H   0  0  0  0  0  0  0  0  0  0  0  0
    7.2143   -3.2046    1.0319 H   0  0  0  0  0  0  0  0  0  0  0  0
    6.7289   -6.2173    0.7264 H   0  0  0  0  0  0  0  0  0  0  0  0
    7.9837   -5.4603    1.6953 H   0  0  0  0  0  0  0  0  0  0  0  0
    8.0368   -5.3081   -0.0400 H   0  0  0  0  0  0  0  0  0  0  0  0
    5.1295   -4.7394   -0.5247 H   0  0  0  0  0  0  0  0  0  0  0  0
    7.4459   -3.1289   -1.3858 H   0  0  0  0  0  0  0  0  0  0  0  0
    6.3598   -4.2087   -2.3082 H   0  0  0  0  0  0  0  0  0  0  0  0
    5.5840   -2.2835   -3.2743 H   0  0  0  0  0  0  0  0  0  0  0  0
    2.6452   -2.1939   -2.3542 H   0  0  0  0  0  0  0  0  0  0  0  0
    3.4803   -0.7125   -2.8522 H   0  0  0  0  0  0  0  0  0  0  0  0
    2.6920   -0.7826   -1.2935 H   0  0  0  0  0  0  0  0  0  0  0  0
    3.5453   -3.3334   -0.3590 H   0  0  0  0  0  0  0  0  0  0  0  0
    5.5428   -0.3219    0.8670 H   0  0  0  0  0  0  0  0  0  0  0  0
    4.3856   -0.0604    2.1452 H   0  0  0  0  0  0  0  0  0  0  0  0
    3.8301   -0.0682    0.5038 H   0  0  0  0  0  0  0  0  0  0  0  0
    1.9055   -2.1704    4.5686 H   0  0  0  0  0  0  0  0  0  0  0  0
  1  2  1  0
  1 29  1  0
  1 30  1  0
  1 31  1  0
  2  3  1  0
  3 27  1  0
  3  4  1  0
  3 32  1  1
  4  5  1  0
  4 33  1  0
  4 34  1  0
  5  6  1  0
  5 35  1  0
  5 36  1  0
  6 27  1  0
  6  7  1  1
  6  8  1  0
  7 37  1  0
  7 38  1  0
  7 39  1  0
  8  9  2  0
  8 10  1  0
 10 11  1  0
 11 25  1  0
 11 12  1  1
 11 13  1  0
 12 40  1  0
 13 14  1  0
 13 27  1  0
 13 41  1  1
 14 25  1  0
 14 15  1  0
 14 42  1  1
 15 16  1  0
 15 43  1  0
 15 44  1  0
 16 17  1  0
 16 18  1  0
 16 45  1  1
 17 46  1  0
 17 47  1  0
 17 48  1  0
 18 24  1  0
 18 19  1  0
 18 49  1  6
 19 20  1  0
 19 50  1  0
 19 51  1  0
 20 22  1  0
 20 21  1  0
 20 52  1  6
 21 22  1  0
 22 23  1  6
 22 24  1  0
 23 53  1  0
 23 54  1  0
 23 55  1  0
 24 25  1  0
 24 56  1  6
 25 26  1  6
 26 57  1  0
 26 58  1  0
 26 59  1  0
 27 28  1  1
 28 60  1  0
M  END
>  <i_m_ct_stereo_status>  (93) 
1

>  <s_m_source_file>  (93) 
/var/tmp/pbs.5076255.sched01/tmp0qfm3vo4/0bcu552to.sdf

>  <i_m_source_file_index>  (93) 
39

>  <i_lp_mmshare_version>  (93) 
48012

>  <i_f3d_flags>  (93) 
0

>  <s_epik_input>  (93) 
W0NIM11PW0NASF0oW0NIMl1bQ0gyXTEpW0NAXShbT0hdKShbQ0BdMTJbQ0gzXSlbQ0BASF0zW0NAXShbT0hdKShPQzI9TylbQ0BAXTQoW0NIM10pW0NAQEhdM1tDSDJdW0NAQEhdKFtDSDNdKVtDQEhdNVtDQEBIXTRbQ0BdNihbQ0gzXSlbQ0BASF0oTzYpW0NIMl01

>  <s_epik_cmdline>  (93) 
J2VwaWtfcHl0aG9uJywgJy1waHQnLCAnMi4wJywgJy1waCcsICc3LjAnLCAnLXRuJywgJzgnLCAnLW1hJywgJzIwMCcsICctaW1hZScsICc8aW5maWxlLm1hZT4nLCAnLW9tYWUnLCAnPG91dGZpbGUubWFlPic=

>  <r_lp_tautomer_probability>  (93) 
1

>  <r_epik_Ionization_Penalty>  (93) 
6.92121e-07

>  <r_epik_Ionization_Penalty_Charging>  (93) 
0

>  <r_epik_Ionization_Penalty_Neutral>  (93) 
6.92121e-07

>  <r_epik_State_Penalty>  (93) 
-0

>  <r_epik_Charging_Adjusted_Penalty>  (93) 
0

>  <i_epik_Tot_Q>  (93) 
0

>  <i_epik_Tot_abs_Q>  (93) 
0

>  <s_epik_Chemistry_Notes>  (93) 
This compound has an ester and may undergo hydrolysis at high or low pH.

>  <s_lp_Force_Field>  (93) 
OPLS3e

>  <r_lp_Energy>  (93) 
65.6919

>  <b_lp_Chiralities_Consistent>  (93) 
1

>  <s_lp_Variant>  (93) 
26:0-1

>  <s_i_glide_gridfile>  (93) 
pfpi4k_grid

>  <i_i_glide_lignum>  (93) 
39

>  <i_i_glide_rotatable_bonds>  (93) 
3

>  <r_i_docking_score>  (93) 
-2.82209

>  <r_i_glide_ligand_efficiency>  (93) 
-0.100789

>  <r_i_glide_ligand_efficiency_sa>  (93) 
-0.306055

>  <r_i_glide_ligand_efficiency_ln>  (93) 
-0.651422

>  <r_i_glide_gscore>  (93) 
-2.82209

>  <r_i_glide_lipo>  (93) 
-0.645692

>  <r_i_glide_hbond>  (93) 
-0.0757329

>  <r_i_glide_metal>  (93) 
-0

>  <r_i_glide_rewards>  (93) 
-0.733051

>  <r_i_glide_evdw>  (93) 
-15.3526

>  <r_i_glide_ecoul>  (93) 
-3.88994

>  <r_i_glide_erotb>  (93) 
0

>  <r_i_glide_esite>  (93) 
-0.0164932

>  <r_i_glide_emodel>  (93) 
-22.2995

>  <r_i_glide_energy>  (93) 
-19.2426

>  <r_i_glide_einternal>  (93) 
0.259518

>  <r_i_glide_intrahb_reward>  (93) 
-0

>  <i_i_glide_confnum>  (93) 
2

>  <i_i_glide_posenum>  (93) 
31

>  <r_i_glide_eff_state_penalty>  (93) 
0

>  <ligand_id>  (93) 
26

>  <original_smiles>  (93) 
COC1CCC2(C)C(=O)OC3(O)C(C4CC(C)C5CC6OC6(C)C5C43C)C12O

>  <smiles>  (93) 
[H]OC12OC(=O)C3(C([H])([H])[H])C([H])([H])C([H])([H])C([H])(OC([H])([H])[H])C3(O[H])C1([H])C1([H])C([H])([H])C([H])(C([H])([H])[H])C3([H])C([H])([H])C4([H])OC4(C([H])([H])[H])C3([H])C21C([H])([H])[H]

$$$$
26:0:1
     RDKit          3D

 60 65  0  0  1  0  0  0  0  0999 V2000
    6.3316   -1.0064   -0.4164 C   0  0  0  0  0  0  0  0  0  0  0  0
    6.5397   -1.8656   -1.4743 O   0  0  0  0  0  0  0  0  0  0  0  0
    5.4645   -2.1252   -2.3661 C   0  0  2  0  0  0  0  0  0  0  0  0
    4.5478   -0.9216   -2.6416 C   0  0  0  0  0  0  0  0  0  0  0  0
    3.1108   -1.4253   -2.6190 C   0  0  0  0  0  0  0  0  0  0  0  0
    3.1303   -2.9770   -2.4777 C   0  0  2  0  0  0  0  0  0  0  0  0
    2.8858   -3.5466   -3.9101 C   0  0  0  0  0  0  0  0  0  0  0  0
    1.9652   -3.4960   -1.5763 C   0  0  0  0  0  0  0  0  0  0  0  0
    0.7976   -3.4737   -1.9069 O   0  0  0  0  0  0  0  0  0  0  0  0
    2.2165   -3.9617   -0.3461 O   0  0  0  0  0  0  0  0  0  0  0  0
    3.4411   -4.4739    0.1335 C   0  0  1  0  0  0  0  0  0  0  0  0
    3.4392   -5.8494   -0.0237 O   0  0  0  0  0  0  0  0  0  0  0  0
    4.6566   -3.7413   -0.4219 C   0  0  2  0  0  0  0  0  0  0  0  0
    4.4610   -2.8800    0.8858 C   0  0  1  0  0  0  0  0  0  0  0  0
    3.7086   -1.4877    0.8097 C   0  0  0  0  0  0  0  0  0  0  0  0
    3.4863   -0.9772    2.1852 C   0  0  1  0  0  0  0  0  0  0  0  0
    3.0957    0.5100    2.1348 C   0  0  0  0  0  0  0  0  0  0  0  0
    2.4316   -1.9145    2.7857 C   0  0  2  0  0  0  0  0  0  0  0  0
    2.2496   -1.7415    4.3096 C   0  0  0  0  0  0  0  0  0  0  0  0
    2.1517   -3.1197    4.9009 C   0  0  2  0  0  0  0  0  0  0  0  0
    3.3588   -3.8854    4.8254 O   0  0  0  0  0  0  0  0  0  0  0  0
    2.3600   -4.1464    3.8358 C   0  0  1  0  0  0  0  0  0  0  0  0
    1.6296   -5.4923    3.8790 C   0  0  0  0  0  0  0  0  0  0  0  0
    2.5686   -3.4669    2.4898 C   0  0  2  0  0  0  0  0  0  0  0  0
    3.7690   -3.9747    1.5954 C   0  0  1  0  0  0  0  0  0  0  0  0
    4.7820   -4.8399    2.3775 C   0  0  0  0  0  0  0  0  0  0  0  0
    4.5652   -3.3095   -1.9238 C   0  0  2  0  0  0  0  0  0  0  0  0
    5.0368   -4.4728   -2.5625 O   0  0  0  0  0  0  0  0  0  0  0  0
    7.0041   -0.9445    0.3809 H   0  0  0  0  0  0  0  0  0  0  0  0
    5.7433   -1.5245    0.0551 H   0  0  0  0  0  0  0  0  0  0  0  0
    5.8050   -0.1091   -0.5251 H   0  0  0  0  0  0  0  0  0  0  0  0
    5.9480   -2.3754   -3.3169 H   0  0  0  0  0  0  0  0  0  0  0  0
    4.6285   -0.1195   -1.9365 H   0  0  0  0  0  0  0  0  0  0  0  0
    4.7853   -0.4504   -3.5862 H   0  0  0  0  0  0  0  0  0  0  0  0
    2.5758   -0.9284   -1.8248 H   0  0  0  0  0  0  0  0  0  0  0  0
    2.6049   -1.0947   -3.5246 H   0  0  0  0  0  0  0  0  0  0  0  0
    3.6570   -3.2320   -4.6082 H   0  0  0  0  0  0  0  0  0  0  0  0
    1.9310   -3.2215   -4.3279 H   0  0  0  0  0  0  0  0  0  0  0  0
    2.8709   -4.6348   -3.9251 H   0  0  0  0  0  0  0  0  0  0  0  0
    3.3757   -5.9862   -0.9704 H   0  0  0  0  0  0  0  0  0  0  0  0
    5.5934   -4.3181   -0.3055 H   0  0  0  0  0  0  0  0  0  0  0  0
    5.4848   -2.7585    1.3611 H   0  0  0  0  0  0  0  0  0  0  0  0
    4.1472   -0.6235    0.3185 H   0  0  0  0  0  0  0  0  0  0  0  0
    2.8561   -1.5056    0.1717 H   0  0  0  0  0  0  0  0  0  0  0  0
    4.4158   -1.0486    2.7572 H   0  0  0  0  0  0  0  0  0  0  0  0
    2.2107    0.6702    1.5199 H   0  0  0  0  0  0  0  0  0  0  0  0
    3.8917    1.1246    1.7144 H   0  0  0  0  0  0  0  0  0  0  0  0
    2.8906    0.8862    3.1313 H   0  0  0  0  0  0  0  0  0  0  0  0
    1.4850   -1.6055    2.3349 H   0  0  0  0  0  0  0  0  0  0  0  0
    3.0797   -1.2025    4.7652 H   0  0  0  0  0  0  0  0  0  0  0  0
    1.3438   -1.1825    4.5153 H   0  0  0  0  0  0  0  0  0  0  0  0
    1.5798   -3.2968    5.8219 H   0  0  0  0  0  0  0  0  0  0  0  0
    0.6024   -5.3813    3.5298 H   0  0  0  0  0  0  0  0  0  0  0  0
    1.5865   -5.8922    4.8960 H   0  0  0  0  0  0  0  0  0  0  0  0
    2.1154   -6.2376    3.2517 H   0  0  0  0  0  0  0  0  0  0  0  0
    1.6637   -3.7018    1.9484 H   0  0  0  0  0  0  0  0  0  0  0  0
    5.2330   -4.3068    3.2154 H   0  0  0  0  0  0  0  0  0  0  0  0
    5.6184   -5.1803    1.7592 H   0  0  0  0  0  0  0  0  0  0  0  0
    4.3059   -5.7358    2.7562 H   0  0  0  0  0  0  0  0  0  0  0  0
    4.3923   -5.1684   -2.5163 H   0  0  0  0  0  0  0  0  0  0  0  0
  1  2  1  0
  1 29  1  0
  1 30  1  0
  1 31  1  0
  2  3  1  0
  3 27  1  0
  3  4  1  0
  3 32  1  6
  4  5  1  0
  4 33  1  0
  4 34  1  0
  5  6  1  0
  5 35  1  0
  5 36  1  0
  6 27  1  0
  6  7  1  6
  6  8  1  0
  7 37  1  0
  7 38  1  0
  7 39  1  0
  8  9  2  0
  8 10  1  0
 10 11  1  0
 11 25  1  0
 11 12  1  1
 11 13  1  0
 12 40  1  0
 13 14  1  0
 13 27  1  0
 13 41  1  1
 14 25  1  0
 14 15  1  0
 14 42  1  1
 15 16  1  0
 15 43  1  0
 15 44  1  0
 16 17  1  0
 16 18  1  0
 16 45  1  1
 17 46  1  0
 17 47  1  0
 17 48  1  0
 18 24  1  0
 18 19  1  0
 18 49  1  6
 19 20  1  0
 19 50  1  0
 19 51  1  0
 20 22  1  0
 20 21  1  0
 20 52  1  1
 21 22  1  0
 22 23  1  6
 22 24  1  0
 23 53  1  0
 23 54  1  0
 23 55  1  0
 24 25  1  0
 24 56  1  6
 25 26  1  1
 26 57  1  0
 26 58  1  0
 26 59  1  0
 27 28  1  6
 28 60  1  0
M  END
>  <i_m_ct_stereo_status>  (94) 
1

>  <s_m_source_file>  (94) 
/var/tmp/pbs.5076255.sched01/tmp0qfm3vo4/0bcu552to.sdf

>  <i_m_source_file_index>  (94) 
39

>  <i_lp_mmshare_version>  (94) 
48012

>  <i_f3d_flags>  (94) 
0

>  <s_epik_input>  (94) 
W0NIM11PW0NASF0oW0NIMl1bQ0gyXTEpW0NAXShbT0hdKShbQ0BdMTJbQ0gzXSlbQ0BASF0zW0NAXShbT0hdKShPQzI9TylbQ0BAXTQoW0NIM10pW0NAQEhdM1tDSDJdW0NAQEhdKFtDSDNdKVtDQEhdNVtDQEBIXTRbQ0BdNihbQ0gzXSlbQ0BASF0oTzYpW0NIMl01

>  <s_epik_cmdline>  (94) 
J2VwaWtfcHl0aG9uJywgJy1waHQnLCAnMi4wJywgJy1waCcsICc3LjAnLCAnLXRuJywgJzgnLCAnLW1hJywgJzIwMCcsICctaW1hZScsICc8aW5maWxlLm1hZT4nLCAnLW9tYWUnLCAnPG91dGZpbGUubWFlPic=

>  <r_lp_tautomer_probability>  (94) 
1

>  <r_epik_Ionization_Penalty>  (94) 
6.92121e-07

>  <r_epik_Ionization_Penalty_Charging>  (94) 
0

>  <r_epik_Ionization_Penalty_Neutral>  (94) 
6.92121e-07

>  <r_epik_State_Penalty>  (94) 
-0

>  <r_epik_Charging_Adjusted_Penalty>  (94) 
0

>  <i_epik_Tot_Q>  (94) 
0

>  <i_epik_Tot_abs_Q>  (94) 
0

>  <s_epik_Chemistry_Notes>  (94) 
This compound has an ester and may undergo hydrolysis at high or low pH.

>  <s_lp_Force_Field>  (94) 
OPLS3e

>  <r_lp_Energy>  (94) 
65.6919

>  <b_lp_Chiralities_Consistent>  (94) 
1

>  <s_lp_Variant>  (94) 
26:0-1

>  <s_i_glide_gridfile>  (94) 
pfpi4k_grid

>  <i_i_glide_lignum>  (94) 
39

>  <i_i_glide_rotatable_bonds>  (94) 
3

>  <r_i_docking_score>  (94) 
0.816983

>  <r_i_glide_ligand_efficiency>  (94) 
0.029178

>  <r_i_glide_ligand_efficiency_sa>  (94) 
0.0886015

>  <r_i_glide_ligand_efficiency_ln>  (94) 
0.188584

>  <r_i_glide_gscore>  (94) 
0.816983

>  <r_i_glide_lipo>  (94) 
-0.247845

>  <r_i_glide_hbond>  (94) 
-0.195251

>  <r_i_glide_metal>  (94) 
-0

>  <r_i_glide_rewards>  (94) 
-0.79631

>  <r_i_glide_evdw>  (94) 
-1.71413

>  <r_i_glide_ecoul>  (94) 
-12.4105

>  <r_i_glide_erotb>  (94) 
0

>  <r_i_glide_esite>  (94) 
-0.0167351

>  <r_i_glide_emodel>  (94) 
11.3398

>  <r_i_glide_energy>  (94) 
-14.1246

>  <r_i_glide_einternal>  (94) 
19.0955

>  <r_i_glide_intrahb_reward>  (94) 
-0

>  <i_i_glide_confnum>  (94) 
1

>  <i_i_glide_posenum>  (94) 
8

>  <r_i_glide_eff_state_penalty>  (94) 
0

>  <ligand_id>  (94) 
26

>  <original_smiles>  (94) 
COC1CCC2(C)C(=O)OC3(O)C(C4CC(C)C5CC6OC6(C)C5C43C)C12O

>  <smiles>  (94) 
[H]OC12OC(=O)C3(C([H])([H])[H])C([H])([H])C([H])([H])C([H])(OC([H])([H])[H])C3(O[H])C1([H])C1([H])C([H])([H])C([H])(C([H])([H])[H])C3([H])C([H])([H])C4([H])OC4(C([H])([H])[H])C3([H])C21C([H])([H])[H]

$$$$
27:0:0
     RDKit          3D

 42 47  0  0  1  0  0  0  0  0999 V2000
    4.3366   -4.0947    4.4260 C   0  0  0  0  0  0  0  0  0  0  0  0
    3.0862   -3.4968    3.7611 C   0  0  2  0  0  0  0  0  0  0  0  0
    2.9587   -2.1738    4.1251 O   0  0  0  0  0  0  0  0  0  0  0  0
    1.6131   -1.8494    4.0127 C   0  0  0  0  0  0  0  0  0  0  0  0
    0.8475   -2.9801    4.2641 O   0  0  0  0  0  0  0  0  0  0  0  0
    1.7613   -4.0598    4.3252 C   0  0  1  0  0  0  0  0  0  0  0  0
    1.1899   -5.3126    3.6743 C   0  0  0  0  0  0  0  0  0  0  0  0
    0.1379   -6.0041    4.3289 C   0  0  0  0  0  0  0  0  0  0  0  0
   -0.4078   -7.1264    3.6867 C   0  0  0  0  0  0  0  0  0  0  0  0
    0.0854   -7.5726    2.4789 C   0  0  0  0  0  0  0  0  0  0  0  0
    1.1485   -6.9325    1.8211 C   0  0  0  0  0  0  0  0  0  0  0  0
    1.6994   -5.7784    2.4300 C   0  0  0  0  0  0  0  0  0  0  0  0
    2.8672   -5.0554    1.7861 C   0  0  1  0  0  0  0  0  0  0  0  0
    2.8217   -4.9103    0.2612 C   0  0  0  0  0  0  0  0  0  0  0  0
    3.6293   -3.6649    0.0893 C   0  0  0  0  0  0  0  0  0  0  0  0
    4.1220   -3.1778   -1.1346 C   0  0  0  0  0  0  0  0  0  0  0  0
    4.9077   -2.0096   -1.1049 C   0  0  0  0  0  0  0  0  0  0  0  0
    5.2021   -1.3757    0.1206 C   0  0  0  0  0  0  0  0  0  0  0  0
    6.0097   -0.2760    0.1194 O   0  0  0  0  0  0  0  0  0  0  0  0
    4.6854   -1.8708    1.3494 C   0  0  0  0  0  0  0  0  0  0  0  0
    5.1608   -1.0513    2.8023 Cl  0  0  0  0  0  0  0  0  0  0  0  0
    3.8504   -3.0302    1.3098 C   0  0  0  0  0  0  0  0  0  0  0  0
    3.1465   -3.7251    2.3211 N   0  0  0  0  0  0  0  0  0  0  0  0
   -0.6325   -8.6443    2.0781 O   0  0  0  0  0  0  0  0  0  0  0  0
   -1.6701   -8.7926    2.9938 C   0  0  0  0  0  0  0  0  0  0  0  0
   -1.4615   -7.8984    4.0620 O   0  0  0  0  0  0  0  0  0  0  0  0
    4.3466   -5.1727    4.2724 H   0  0  0  0  0  0  0  0  0  0  0  0
    4.3477   -3.8977    5.5012 H   0  0  0  0  0  0  0  0  0  0  0  0
    5.2400   -3.6836    3.9732 H   0  0  0  0  0  0  0  0  0  0  0  0
    1.3549   -1.0652    4.7244 H   0  0  0  0  0  0  0  0  0  0  0  0
    1.4308   -1.5025    2.9925 H   0  0  0  0  0  0  0  0  0  0  0  0
    1.9010   -4.2510    5.3869 H   0  0  0  0  0  0  0  0  0  0  0  0
   -0.2701   -5.6631    5.2718 H   0  0  0  0  0  0  0  0  0  0  0  0
    1.5159   -7.3079    0.8774 H   0  0  0  0  0  0  0  0  0  0  0  0
    3.7522   -5.6390    2.0339 H   0  0  0  0  0  0  0  0  0  0  0  0
    3.2457   -5.7720   -0.2520 H   0  0  0  0  0  0  0  0  0  0  0  0
    1.8159   -4.7185   -0.1071 H   0  0  0  0  0  0  0  0  0  0  0  0
    3.9025   -3.6813   -2.0675 H   0  0  0  0  0  0  0  0  0  0  0  0
    5.3023   -1.6059   -2.0251 H   0  0  0  0  0  0  0  0  0  0  0  0
    5.6268    0.4771   -0.3203 H   0  0  0  0  0  0  0  0  0  0  0  0
   -2.5900   -8.5195    2.4931 H   0  0  0  0  0  0  0  0  0  0  0  0
   -1.7327   -9.8416    3.2835 H   0  0  0  0  0  0  0  0  0  0  0  0
  2  1  1  1
  1 27  1  0
  1 28  1  0
  1 29  1  0
  2  6  1  0
  2 23  1  0
  2  3  1  0
  3  4  1  0
  4  5  1  0
  4 30  1  0
  4 31  1  0
  5  6  1  0
  6  7  1  0
  6 32  1  1
  7 12  2  0
  7  8  1  0
  8  9  2  0
  8 33  1  0
  9 26  1  0
  9 10  1  0
 10 11  2  0
 10 24  1  0
 11 12  1  0
 11 34  1  0
 12 13  1  0
 13 23  1  0
 13 14  1  0
 13 35  1  6
 14 15  1  0
 14 36  1  0
 14 37  1  0
 15 22  2  0
 15 16  1  0
 16 17  2  0
 16 38  1  0
 17 18  1  0
 17 39  1  0
 18 19  1  0
 18 20  2  0
 19 40  1  0
 20 21  1  0
 20 22  1  0
 22 23  1  0
 24 25  1  0
 25 26  1  0
 25 41  1  0
 25 42  1  0
M  END
>  <i_m_ct_stereo_status>  (95) 
1

>  <s_m_source_file>  (95) 
/var/tmp/pbs.5076255.sched01/tmp0qfm3vo4/0bcu552to.sdf

>  <i_m_source_file_index>  (95) 
40

>  <i_lp_mmshare_version>  (95) 
48012

>  <i_f3d_flags>  (95) 
0

>  <s_epik_input>  (95) 
TzFbQ0gyXU9jKFtjSF0yKWMxW2NIXWMoYzJbQ0BASF0oW0NAXTM0W0NIM10pT1tDSDJdTzMpW0NAQEhdNU40YzZjKFtDSDJdNSlbY0hdW2NIXWMoW09IXSljNkNs

>  <s_epik_cmdline>  (95) 
J2VwaWtfcHl0aG9uJywgJy1waHQnLCAnMi4wJywgJy1waCcsICc3LjAnLCAnLXRuJywgJzgnLCAnLW1hJywgJzIwMCcsICctaW1hZScsICc8aW5maWxlLm1hZT4nLCAnLW9tYWUnLCAnPG91dGZpbGUubWFlPic=

>  <r_lp_tautomer_probability>  (95) 
1

>  <r_epik_Ionization_Penalty>  (95) 
0.00605991

>  <r_epik_Ionization_Penalty_Charging>  (95) 
0

>  <r_epik_Ionization_Penalty_Neutral>  (95) 
0.00605991

>  <r_epik_State_Penalty>  (95) 
0.00446372

>  <r_epik_Charging_Adjusted_Penalty>  (95) 
0.00446372

>  <i_epik_Tot_Q>  (95) 
0

>  <i_epik_Tot_abs_Q>  (95) 
0

>  <s_epik_Chemistry_Notes>  (95) 
This compound contains an acetal/aminal-like group ( X-CH(R)-Y where X, Y are N, S, or O) that may be acid/base labile, releasing an aldehyde.

>  <s_lp_Force_Field>  (95) 
OPLS3e

>  <r_lp_Energy>  (95) 
38.7227

>  <b_lp_Chiralities_Consistent>  (95) 
1

>  <s_lp_Variant>  (95) 
27:0-1

>  <s_i_glide_gridfile>  (95) 
pfpi4k_grid

>  <i_i_glide_lignum>  (95) 
40

>  <i_i_glide_rotatable_bonds>  (95) 
1

>  <r_i_docking_score>  (95) 
-3.15309

>  <r_i_glide_ligand_efficiency>  (95) 
-0.121273

>  <r_i_glide_ligand_efficiency_sa>  (95) 
-0.359269

>  <r_i_glide_ligand_efficiency_ln>  (95) 
-0.740492

>  <r_i_glide_gscore>  (95) 
-3.15309

>  <r_i_glide_lipo>  (95) 
-0.169591

>  <r_i_glide_hbond>  (95) 
-0.32

>  <r_i_glide_metal>  (95) 
-0

>  <r_i_glide_rewards>  (95) 
-0.866374

>  <r_i_glide_evdw>  (95) 
-26.1665

>  <r_i_glide_ecoul>  (95) 
-3.03241

>  <r_i_glide_erotb>  (95) 
0

>  <r_i_glide_esite>  (95) 
-0.0339338

>  <r_i_glide_emodel>  (95) 
-32.6617

>  <r_i_glide_energy>  (95) 
-29.1989

>  <r_i_glide_einternal>  (95) 
2.88864

>  <r_i_glide_intrahb_reward>  (95) 
-0

>  <i_i_glide_confnum>  (95) 
2

>  <i_i_glide_posenum>  (95) 
1

>  <r_i_glide_eff_state_penalty>  (95) 
0

>  <ligand_id>  (95) 
27

>  <original_smiles>  (95) 
CC12OCOC1c1cc3c(cc1C1Cc4ccc(O)c(Cl)c4N12)OCO3

>  <smiles>  (95) 
[H]Oc1c([H])c([H])c2c(c1Cl)N1C([H])(c3c([H])c4c(c([H])c3C3([H])OC([H])([H])OC13C([H])([H])[H])OC([H])([H])O4)C2([H])[H]

$$$$
27:0:1
     RDKit          3D

 42 47  0  0  1  0  0  0  0  0999 V2000
    4.7208   -2.7868    3.2178 C   0  0  0  0  0  0  0  0  0  0  0  0
    3.2914   -2.4656    2.7514 C   0  0  2  0  0  0  0  0  0  0  0  0
    3.0906   -1.1093    2.7787 O   0  0  0  0  0  0  0  0  0  0  0  0
    1.7213   -0.9068    2.9161 C   0  0  0  0  0  0  0  0  0  0  0  0
    1.1704   -1.9592    3.6414 O   0  0  0  0  0  0  0  0  0  0  0  0
    2.2004   -2.9286    3.7541 C   0  0  1  0  0  0  0  0  0  0  0  0
    1.6537   -4.3436    3.6127 C   0  0  0  0  0  0  0  0  0  0  0  0
    0.8603   -4.8850    4.6572 C   0  0  0  0  0  0  0  0  0  0  0  0
    0.3348   -6.1789    4.4782 C   0  0  0  0  0  0  0  0  0  0  0  0
    0.5990   -6.9208    3.3417 C   0  0  0  0  0  0  0  0  0  0  0  0
    1.4116   -6.4242    2.3074 C   0  0  0  0  0  0  0  0  0  0  0  0
    1.9398   -5.1131    2.4509 C   0  0  0  0  0  0  0  0  0  0  0  0
    2.8328   -4.5294    1.3800 C   0  0  1  0  0  0  0  0  0  0  0  0
    2.4427   -4.8257   -0.0600 C   0  0  0  0  0  0  0  0  0  0  0  0
    3.0108   -3.6288   -0.7599 C   0  0  0  0  0  0  0  0  0  0  0  0
    3.1302   -3.4491   -2.1524 C   0  0  0  0  0  0  0  0  0  0  0  0
    3.7780   -2.3110   -2.6287 C   0  0  0  0  0  0  0  0  0  0  0  0
    4.2606   -1.3469   -1.7247 C   0  0  0  0  0  0  0  0  0  0  0  0
    4.9074   -0.2752   -2.2532 O   0  0  0  0  0  0  0  0  0  0  0  0
    4.0870   -1.4933   -0.3196 C   0  0  0  0  0  0  0  0  0  0  0  0
    4.7790   -0.2895    0.7091 Cl  0  0  0  0  0  0  0  0  0  0  0  0
    3.4137   -2.6629    0.1581 C   0  0  0  0  0  0  0  0  0  0  0  0
    3.0551   -3.0926    1.4585 N   0  0  0  0  0  0  0  0  0  0  0  0
   -0.0638   -8.1029    3.4047 O   0  0  0  0  0  0  0  0  0  0  0  0
   -0.8237   -8.0508    4.5848 C   0  0  0  0  0  0  0  0  0  0  0  0
   -0.5029   -6.8757    5.2893 O   0  0  0  0  0  0  0  0  0  0  0  0
    4.8270   -3.8610    3.3508 H   0  0  0  0  0  0  0  0  0  0  0  0
    4.9516   -2.2920    4.1636 H   0  0  0  0  0  0  0  0  0  0  0  0
    5.4428   -2.4729    2.4630 H   0  0  0  0  0  0  0  0  0  0  0  0
    1.5299    0.0359    3.4376 H   0  0  0  0  0  0  0  0  0  0  0  0
    1.2723   -0.8767    1.9140 H   0  0  0  0  0  0  0  0  0  0  0  0
    2.5999   -2.8016    4.7614 H   0  0  0  0  0  0  0  0  0  0  0  0
    0.6374   -4.3129    5.5487 H   0  0  0  0  0  0  0  0  0  0  0  0
    1.5976   -7.0285    1.4338 H   0  0  0  0  0  0  0  0  0  0  0  0
    3.8158   -4.9763    1.5382 H   0  0  0  0  0  0  0  0  0  0  0  0
    2.8591   -5.7825   -0.3582 H   0  0  0  0  0  0  0  0  0  0  0  0
    1.3766   -4.8352   -0.2488 H   0  0  0  0  0  0  0  0  0  0  0  0
    2.7475   -4.1667   -2.8667 H   0  0  0  0  0  0  0  0  0  0  0  0
    3.9048   -2.1663   -3.6879 H   0  0  0  0  0  0  0  0  0  0  0  0
    5.0075    0.4405   -1.6319 H   0  0  0  0  0  0  0  0  0  0  0  0
   -1.8713   -7.9899    4.2991 H   0  0  0  0  0  0  0  0  0  0  0  0
   -0.6811   -8.9467    5.1948 H   0  0  0  0  0  0  0  0  0  0  0  0
  2  1  1  1
  1 27  1  0
  1 28  1  0
  1 29  1  0
  2  6  1  0
  2 23  1  0
  2  3  1  0
  3  4  1  0
  4  5  1  0
  4 30  1  0
  4 31  1  0
  5  6  1  0
  6  7  1  0
  6 32  1  1
  7 12  2  0
  7  8  1  0
  8  9  2  0
  8 33  1  0
  9 26  1  0
  9 10  1  0
 10 11  2  0
 10 24  1  0
 11 12  1  0
 11 34  1  0
 12 13  1  0
 13 23  1  0
 13 14  1  0
 13 35  1  1
 14 15  1  0
 14 36  1  0
 14 37  1  0
 15 22  2  0
 15 16  1  0
 16 17  2  0
 16 38  1  0
 17 18  1  0
 17 39  1  0
 18 19  1  0
 18 20  2  0
 19 40  1  0
 20 21  1  0
 20 22  1  0
 22 23  1  0
 24 25  1  0
 25 26  1  0
 25 41  1  0
 25 42  1  0
M  END
>  <i_m_ct_stereo_status>  (96) 
1

>  <s_m_source_file>  (96) 
/var/tmp/pbs.5076255.sched01/tmp0qfm3vo4/0bcu552to.sdf

>  <i_m_source_file_index>  (96) 
40

>  <i_lp_mmshare_version>  (96) 
48012

>  <i_f3d_flags>  (96) 
0

>  <s_epik_input>  (96) 
TzFbQ0gyXU9jKFtjSF0yKWMxW2NIXWMoYzJbQ0BASF0oW0NAXTM0W0NIM10pT1tDSDJdTzMpW0NAQEhdNU40YzZjKFtDSDJdNSlbY0hdW2NIXWMoW09IXSljNkNs

>  <s_epik_cmdline>  (96) 
J2VwaWtfcHl0aG9uJywgJy1waHQnLCAnMi4wJywgJy1waCcsICc3LjAnLCAnLXRuJywgJzgnLCAnLW1hJywgJzIwMCcsICctaW1hZScsICc8aW5maWxlLm1hZT4nLCAnLW9tYWUnLCAnPG91dGZpbGUubWFlPic=

>  <r_lp_tautomer_probability>  (96) 
1

>  <r_epik_Ionization_Penalty>  (96) 
0.00605991

>  <r_epik_Ionization_Penalty_Charging>  (96) 
0

>  <r_epik_Ionization_Penalty_Neutral>  (96) 
0.00605991

>  <r_epik_State_Penalty>  (96) 
0.00446372

>  <r_epik_Charging_Adjusted_Penalty>  (96) 
0.00446372

>  <i_epik_Tot_Q>  (96) 
0

>  <i_epik_Tot_abs_Q>  (96) 
0

>  <s_epik_Chemistry_Notes>  (96) 
This compound contains an acetal/aminal-like group ( X-CH(R)-Y where X, Y are N, S, or O) that may be acid/base labile, releasing an aldehyde.

>  <s_lp_Force_Field>  (96) 
OPLS3e

>  <r_lp_Energy>  (96) 
38.7227

>  <b_lp_Chiralities_Consistent>  (96) 
1

>  <s_lp_Variant>  (96) 
27:0-1

>  <s_i_glide_gridfile>  (96) 
pfpi4k_grid

>  <i_i_glide_lignum>  (96) 
40

>  <i_i_glide_rotatable_bonds>  (96) 
1

>  <r_i_docking_score>  (96) 
-3.09253

>  <r_i_glide_ligand_efficiency>  (96) 
-0.118943

>  <r_i_glide_ligand_efficiency_sa>  (96) 
-0.352369

>  <r_i_glide_ligand_efficiency_ln>  (96) 
-0.72627

>  <r_i_glide_gscore>  (96) 
-3.09253

>  <r_i_glide_lipo>  (96) 
-0.21706

>  <r_i_glide_hbond>  (96) 
-0.32

>  <r_i_glide_metal>  (96) 
-0

>  <r_i_glide_rewards>  (96) 
-0.860592

>  <r_i_glide_evdw>  (96) 
-20.3511

>  <r_i_glide_ecoul>  (96) 
-3.93408

>  <r_i_glide_erotb>  (96) 
0

>  <r_i_glide_esite>  (96) 
-0.0872101

>  <r_i_glide_emodel>  (96) 
-29.6791

>  <r_i_glide_energy>  (96) 
-24.2851

>  <r_i_glide_einternal>  (96) 
0.202461

>  <r_i_glide_intrahb_reward>  (96) 
-0

>  <i_i_glide_confnum>  (96) 
1

>  <i_i_glide_posenum>  (96) 
8

>  <r_i_glide_eff_state_penalty>  (96) 
0

>  <ligand_id>  (96) 
27

>  <original_smiles>  (96) 
CC12OCOC1c1cc3c(cc1C1Cc4ccc(O)c(Cl)c4N12)OCO3

>  <smiles>  (96) 
[H]Oc1c([H])c([H])c2c(c1Cl)N1C([H])(c3c([H])c4c(c([H])c3C3([H])OC([H])([H])OC13C([H])([H])[H])OC([H])([H])O4)C2([H])[H]

$$$$
27:0:2
     RDKit          3D

 42 47  0  0  1  0  0  0  0  0999 V2000
    4.7750   -4.7771    2.0611 C   0  0  0  0  0  0  0  0  0  0  0  0
    3.4657   -3.9777    2.1054 C   0  0  2  0  0  0  0  0  0  0  0  0
    3.7025   -2.6997    2.5497 O   0  0  0  0  0  0  0  0  0  0  0  0
    2.5126   -2.2379    3.0973 C   0  0  0  0  0  0  0  0  0  0  0  0
    1.7963   -3.3064    3.6224 O   0  0  0  0  0  0  0  0  0  0  0  0
    2.4743   -4.4706    3.1892 C   0  0  1  0  0  0  0  0  0  0  0  0
    1.5050   -5.5856    2.8255 C   0  0  0  0  0  0  0  0  0  0  0  0
    0.7663   -6.2243    3.8560 C   0  0  0  0  0  0  0  0  0  0  0  0
   -0.1605   -7.2035    3.4745 C   0  0  0  0  0  0  0  0  0  0  0  0
   -0.3447   -7.5575    2.1547 C   0  0  0  0  0  0  0  0  0  0  0  0
    0.3987   -6.9756    1.1184 C   0  0  0  0  0  0  0  0  0  0  0  0
    1.3435   -5.9755    1.4666 C   0  0  0  0  0  0  0  0  0  0  0  0
    2.1635   -5.2850    0.3962 C   0  0  1  0  0  0  0  0  0  0  0  0
    1.4141   -4.9394   -0.8851 C   0  0  0  0  0  0  0  0  0  0  0  0
    2.2009   -3.7588   -1.3706 C   0  0  0  0  0  0  0  0  0  0  0  0
    2.1521   -3.1763   -2.6530 C   0  0  0  0  0  0  0  0  0  0  0  0
    3.0292   -2.1300   -2.9645 C   0  0  0  0  0  0  0  0  0  0  0  0
    3.9346   -1.6721   -1.9916 C   0  0  0  0  0  0  0  0  0  0  0  0
    4.7700   -0.6527   -2.3072 O   0  0  0  0  0  0  0  0  0  0  0  0
    3.9771   -2.2458   -0.6869 C   0  0  0  0  0  0  0  0  0  0  0  0
    5.1986   -1.6570    0.4004 Cl  0  0  0  0  0  0  0  0  0  0  0  0
    3.0668   -3.2997   -0.3745 C   0  0  0  0  0  0  0  0  0  0  0  0
    2.8318   -4.0547    0.7992 N   0  0  0  0  0  0  0  0  0  0  0  0
   -1.3481   -8.4675    2.0639 O   0  0  0  0  0  0  0  0  0  0  0  0
   -1.8186   -8.6343    3.3691 C   0  0  0  0  0  0  0  0  0  0  0  0
   -1.0265   -7.8896    4.2585 O   0  0  0  0  0  0  0  0  0  0  0  0
    4.5463   -5.8238    1.8584 H   0  0  0  0  0  0  0  0  0  0  0  0
    5.3094   -4.7134    3.0115 H   0  0  0  0  0  0  0  0  0  0  0  0
    5.4091   -4.4161    1.2501 H   0  0  0  0  0  0  0  0  0  0  0  0
    2.7255   -1.5187    3.8891 H   0  0  0  0  0  0  0  0  0  0  0  0
    1.9271   -1.7667    2.3015 H   0  0  0  0  0  0  0  0  0  0  0  0
    3.0565   -4.7956    4.0480 H   0  0  0  0  0  0  0  0  0  0  0  0
    0.8818   -5.9504    4.8948 H   0  0  0  0  0  0  0  0  0  0  0  0
    0.2020   -7.2724    0.0961 H   0  0  0  0  0  0  0  0  0  0  0  0
    2.9611   -5.9799    0.1310 H   0  0  0  0  0  0  0  0  0  0  0  0
    1.3589   -5.8062   -1.5136 H   0  0  0  0  0  0  0  0  0  0  0  0
    0.3784   -4.6655   -0.8398 H   0  0  0  0  0  0  0  0  0  0  0  0
    1.4523   -3.4864   -3.4113 H   0  0  0  0  0  0  0  0  0  0  0  0
    2.9840   -1.6813   -3.9468 H   0  0  0  0  0  0  0  0  0  0  0  0
    4.4945   -0.2121   -3.0960 H   0  0  0  0  0  0  0  0  0  0  0  0
   -2.8238   -8.2264    3.4088 H   0  0  0  0  0  0  0  0  0  0  0  0
   -1.8363   -9.6907    3.6158 H   0  0  0  0  0  0  0  0  0  0  0  0
  2  1  1  6
  1 27  1  0
  1 28  1  0
  1 29  1  0
  2  6  1  0
  2 23  1  0
  2  3  1  0
  3  4  1  0
  4  5  1  0
  4 30  1  0
  4 31  1  0
  5  6  1  0
  6  7  1  0
  6 32  1  1
  7 12  2  0
  7  8  1  0
  8  9  2  0
  8 33  1  0
  9 26  1  0
  9 10  1  0
 10 11  2  0
 10 24  1  0
 11 12  1  0
 11 34  1  0
 12 13  1  0
 13 23  1  0
 13 14  1  0
 13 35  1  6
 14 15  1  0
 14 36  1  0
 14 37  1  0
 15 22  2  0
 15 16  1  0
 16 17  2  0
 16 38  1  0
 17 18  1  0
 17 39  1  0
 18 19  1  0
 18 20  2  0
 19 40  1  0
 20 21  1  0
 20 22  1  0
 22 23  1  0
 24 25  1  0
 25 26  1  0
 25 41  1  0
 25 42  1  0
M  END
>  <i_m_ct_stereo_status>  (97) 
1

>  <s_m_source_file>  (97) 
/var/tmp/pbs.5076255.sched01/tmp0qfm3vo4/0bcu552to.sdf

>  <i_m_source_file_index>  (97) 
40

>  <i_lp_mmshare_version>  (97) 
48012

>  <i_f3d_flags>  (97) 
0

>  <s_epik_input>  (97) 
TzFbQ0gyXU9jKFtjSF0yKWMxW2NIXWMoYzJbQ0BASF0oW0NAXTM0W0NIM10pT1tDSDJdTzMpW0NAQEhdNU40YzZjKFtDSDJdNSlbY0hdW2NIXWMoW09IXSljNkNs

>  <s_epik_cmdline>  (97) 
J2VwaWtfcHl0aG9uJywgJy1waHQnLCAnMi4wJywgJy1waCcsICc3LjAnLCAnLXRuJywgJzgnLCAnLW1hJywgJzIwMCcsICctaW1hZScsICc8aW5maWxlLm1hZT4nLCAnLW9tYWUnLCAnPG91dGZpbGUubWFlPic=

>  <r_lp_tautomer_probability>  (97) 
1

>  <r_epik_Ionization_Penalty>  (97) 
0.00605991

>  <r_epik_Ionization_Penalty_Charging>  (97) 
0

>  <r_epik_Ionization_Penalty_Neutral>  (97) 
0.00605991

>  <r_epik_State_Penalty>  (97) 
0.00446372

>  <r_epik_Charging_Adjusted_Penalty>  (97) 
0.00446372

>  <i_epik_Tot_Q>  (97) 
0

>  <i_epik_Tot_abs_Q>  (97) 
0

>  <s_epik_Chemistry_Notes>  (97) 
This compound contains an acetal/aminal-like group ( X-CH(R)-Y where X, Y are N, S, or O) that may be acid/base labile, releasing an aldehyde.

>  <s_lp_Force_Field>  (97) 
OPLS3e

>  <r_lp_Energy>  (97) 
38.7227

>  <b_lp_Chiralities_Consistent>  (97) 
1

>  <s_lp_Variant>  (97) 
27:0-1

>  <s_i_glide_gridfile>  (97) 
pfpi4k_grid

>  <i_i_glide_lignum>  (97) 
40

>  <i_i_glide_rotatable_bonds>  (97) 
1

>  <r_i_docking_score>  (97) 
-1.85772

>  <r_i_glide_ligand_efficiency>  (97) 
-0.071451

>  <r_i_glide_ligand_efficiency_sa>  (97) 
-0.211673

>  <r_i_glide_ligand_efficiency_ln>  (97) 
-0.436281

>  <r_i_glide_gscore>  (97) 
-1.85772

>  <r_i_glide_lipo>  (97) 
-0.299161

>  <r_i_glide_hbond>  (97) 
0

>  <r_i_glide_metal>  (97) 
-0

>  <r_i_glide_rewards>  (97) 
-0.862957

>  <r_i_glide_evdw>  (97) 
-12.5255

>  <r_i_glide_ecoul>  (97) 
0.296618

>  <r_i_glide_erotb>  (97) 
0

>  <r_i_glide_esite>  (97) 
-0.113825

>  <r_i_glide_emodel>  (97) 
-14.731

>  <r_i_glide_energy>  (97) 
-12.2289

>  <r_i_glide_einternal>  (97) 
0.312345

>  <r_i_glide_intrahb_reward>  (97) 
-0

>  <i_i_glide_confnum>  (97) 
2

>  <i_i_glide_posenum>  (97) 
15

>  <r_i_glide_eff_state_penalty>  (97) 
0

>  <ligand_id>  (97) 
27

>  <original_smiles>  (97) 
CC12OCOC1c1cc3c(cc1C1Cc4ccc(O)c(Cl)c4N12)OCO3

>  <smiles>  (97) 
[H]Oc1c([H])c([H])c2c(c1Cl)N1C([H])(c3c([H])c4c(c([H])c3C3([H])OC([H])([H])OC13C([H])([H])[H])OC([H])([H])O4)C2([H])[H]

$$$$
28:0:0
     RDKit          3D

 53 57  0  0  1  0  0  0  0  0999 V2000
    2.6017   -8.8331    1.6777 C   0  0  0  0  0  0  0  0  0  0  0  0
    1.4655   -8.2786    2.5960 C   0  0  0  0  0  0  0  0  0  0  0  0
    0.5444   -9.4619    2.9783 C   0  0  0  0  0  0  0  0  0  0  0  0
    0.6365   -7.0667    2.0433 C   0  0  0  0  0  0  0  0  0  0  0  0
   -0.5541   -7.1735    1.7409 O   0  0  0  0  0  0  0  0  0  0  0  0
    1.2433   -5.8468    2.0301 O   0  0  0  0  0  0  0  0  0  0  0  0
    2.5462   -5.9568    1.5286 N   0  0  0  0  0  0  0  0  0  0  0  0
    3.2813   -4.9469    1.7584 C   0  0  0  0  0  0  0  0  0  0  0  0
    4.7466   -4.7947    1.4106 C   0  0  2  0  0  0  0  0  0  0  0  0
    5.9106   -5.2910    2.0237 C   0  0  1  0  0  0  0  0  0  0  0  0
    6.9009   -4.8976    0.7258 C   0  0  0  0  0  0  0  0  0  0  0  0
    6.4690   -3.5988   -0.2888 C   0  0  1  0  0  0  0  0  0  0  0  0
    4.9908   -3.3531   -0.9323 C   0  0  0  0  0  0  0  0  0  0  0  0
    3.6271   -2.7936   -0.1827 C   0  0  1  0  0  0  0  0  0  0  0  0
    2.3803   -3.4530   -0.8143 C   0  0  0  0  0  0  0  0  0  0  0  0
    3.5217   -2.5130    1.3694 N   0  0  1  0  0  0  0  0  0  0  0  0
    2.6195   -1.3489    1.6016 C   0  0  0  0  0  0  0  0  0  0  0  0
    2.9992   -3.6364    2.3558 C   0  0  2  0  0  0  0  0  0  0  0  0
    3.8753   -3.9005    3.6761 C   0  0  0  0  0  0  0  0  0  0  0  0
    5.3619   -4.3046    3.2619 C   0  0  2  0  0  0  0  0  0  0  0  0
    5.5034   -3.4505    2.1236 C   0  0  2  0  0  0  0  0  0  0  0  0
    4.8940   -2.1442    1.8340 C   0  0  1  0  0  0  0  0  0  0  0  0
    5.8647   -1.4314    0.8266 C   0  0  0  0  0  0  0  0  0  0  0  0
    6.8599   -2.2995    0.2059 O   0  0  0  0  0  0  0  0  0  0  0  0
    3.4035   -8.1304    1.4354 H   0  0  0  0  0  0  0  0  0  0  0  0
    2.1769   -9.1863    0.7375 H   0  0  0  0  0  0  0  0  0  0  0  0
    3.1115   -9.6765    2.1546 H   0  0  0  0  0  0  0  0  0  0  0  0
    1.9091   -7.9273    3.5267 H   0  0  0  0  0  0  0  0  0  0  0  0
   -0.2007   -9.1991    3.7281 H   0  0  0  0  0  0  0  0  0  0  0  0
    1.1138  -10.2920    3.3878 H   0  0  0  0  0  0  0  0  0  0  0  0
    0.0099   -9.8526    2.1148 H   0  0  0  0  0  0  0  0  0  0  0  0
    4.7637   -5.2102    0.4051 H   0  0  0  0  0  0  0  0  0  0  0  0
    5.8648   -6.3525    2.2634 H   0  0  0  0  0  0  0  0  0  0  0  0
    7.9294   -4.7379    1.0621 H   0  0  0  0  0  0  0  0  0  0  0  0
    6.9830   -5.7815    0.0898 H   0  0  0  0  0  0  0  0  0  0  0  0
    7.1258   -3.7382   -1.1444 H   0  0  0  0  0  0  0  0  0  0  0  0
    5.1573   -2.6552   -1.7492 H   0  0  0  0  0  0  0  0  0  0  0  0
    4.7240   -4.2573   -1.4763 H   0  0  0  0  0  0  0  0  0  0  0  0
    3.5538   -1.7913   -0.5999 H   0  0  0  0  0  0  0  0  0  0  0  0
    2.3518   -3.2453   -1.8821 H   0  0  0  0  0  0  0  0  0  0  0  0
    1.4538   -3.0527   -0.4046 H   0  0  0  0  0  0  0  0  0  0  0  0
    2.3679   -4.5417   -0.7254 H   0  0  0  0  0  0  0  0  0  0  0  0
    2.5543   -1.1258    2.6735 H   0  0  0  0  0  0  0  0  0  0  0  0
    1.6059   -1.5774    1.2726 H   0  0  0  0  0  0  0  0  0  0  0  0
    2.9587   -0.4449    1.0886 H   0  0  0  0  0  0  0  0  0  0  0  0
    1.9363   -3.5163    2.5880 H   0  0  0  0  0  0  0  0  0  0  0  0
    3.8924   -3.0162    4.3171 H   0  0  0  0  0  0  0  0  0  0  0  0
    3.4425   -4.6910    4.2930 H   0  0  0  0  0  0  0  0  0  0  0  0
    6.1124   -4.1659    4.0457 H   0  0  0  0  0  0  0  0  0  0  0  0
    6.5777   -3.2299    2.2672 H   0  0  0  0  0  0  0  0  0  0  0  0
    4.8399   -1.5491    2.7447 H   0  0  0  0  0  0  0  0  0  0  0  0
    5.3438   -0.8105    0.0957 H   0  0  0  0  0  0  0  0  0  0  0  0
    6.4508   -0.7228    1.4070 H   0  0  0  0  0  0  0  0  0  0  0  0
  1  2  1  0
  1 25  1  0
  1 26  1  0
  1 27  1  0
  2  3  1  0
  2  4  1  0
  2 28  1  0
  3 29  1  0
  3 30  1  0
  3 31  1  0
  4  5  2  0
  4  6  1  0
  6  7  1  0
  7  8  2  3
  8 18  1  0
  8  9  1  0
  9 21  1  0
  9 10  1  0
  9 32  1  6
 10 20  1  0
 10 11  1  0
 10 33  1  1
 11 12  1  0
 11 34  1  0
 11 35  1  0
 12 24  1  0
 12 13  1  0
 12 36  1  6
 13 14  1  0
 13 37  1  0
 13 38  1  0
 14 15  1  0
 14 16  1  0
 14 39  1  6
 15 40  1  0
 15 41  1  0
 15 42  1  0
 16 22  1  0
 16 17  1  6
 16 18  1  0
 17 43  1  0
 17 44  1  0
 17 45  1  0
 18 19  1  0
 18 46  1  1
 19 20  1  0
 19 47  1  0
 19 48  1  0
 20 21  1  0
 20 49  1  1
 21 22  1  0
 21 50  1  6
 22 23  1  0
 22 51  1  1
 23 24  1  0
 23 52  1  0
 23 53  1  0
M  CHG  1  16   1
M  END
>  <i_m_ct_stereo_status>  (98) 
1

>  <s_m_source_file>  (98) 
/var/tmp/pbs.5076255.sched01/tmp0qfm3vo4/0bcu552to.sdf

>  <i_m_source_file_index>  (98) 
41

>  <i_lp_mmshare_version>  (98) 
48012

>  <i_f3d_flags>  (98) 
0

>  <s_epik_input>  (98) 
W0NIM11bQ0hdKFtDSDNdKUMoPU8pTy9OPUMoW0NAQEhdMVtOQCtdMjNbQ0gzXSkvW0NASF00W0NAQEhdNVtDQEhdKFtDSDJdMSlbQ0BASF00W0NASF0zW0NIMl1PW0NAQEhdKFtDSDJdNSlbQ0gyXVtDQEhdMltDSDNd

>  <s_epik_cmdline>  (98) 
J2VwaWtfcHl0aG9uJywgJy1waHQnLCAnMi4wJywgJy1waCcsICc3LjAnLCAnLXRuJywgJzgnLCAnLW1hJywgJzIwMCcsICctaW1hZScsICc8aW5maWxlLm1hZT4nLCAnLW9tYWUnLCAnPG91dGZpbGUubWFlPic=

>  <r_lp_tautomer_probability>  (98) 
1

>  <r_epik_Ionization_Penalty>  (98) 
1.21823e-13

>  <r_epik_Ionization_Penalty_Charging>  (98) 
0

>  <r_epik_Ionization_Penalty_Neutral>  (98) 
1.21823e-13

>  <r_epik_State_Penalty>  (98) 
-0

>  <r_epik_Charging_Adjusted_Penalty>  (98) 
0

>  <i_epik_Tot_Q>  (98) 
1

>  <i_epik_Tot_abs_Q>  (98) 
1

>  <s_epik_Chemistry_Notes>  (98) 
This compound has an imine and may undergo hydrolysis.

>  <s_lp_Force_Field>  (98) 
OPLS3e

>  <r_lp_Energy>  (98) 
296.106

>  <b_lp_Chiralities_Consistent>  (98) 
1

>  <s_lp_Variant>  (98) 
28:0-1

>  <s_i_glide_gridfile>  (98) 
pfpi4k_grid

>  <i_i_glide_lignum>  (98) 
41

>  <i_i_glide_rotatable_bonds>  (98) 
3

>  <r_i_docking_score>  (98) 
-3.46159

>  <r_i_glide_ligand_efficiency>  (98) 
-0.144233

>  <r_i_glide_ligand_efficiency_sa>  (98) 
-0.41604

>  <r_i_glide_ligand_efficiency_ln>  (98) 
-0.828518

>  <r_i_glide_gscore>  (98) 
-3.46159

>  <r_i_glide_lipo>  (98) 
-0.567938

>  <r_i_glide_hbond>  (98) 
-0.060972

>  <r_i_glide_metal>  (98) 
-0

>  <r_i_glide_rewards>  (98) 
-1.14008

>  <r_i_glide_evdw>  (98) 
-21.3455

>  <r_i_glide_ecoul>  (98) 
-5.38866

>  <r_i_glide_erotb>  (98) 
0.33903

>  <r_i_glide_esite>  (98) 
-0.156057

>  <r_i_glide_emodel>  (98) 
-28.3837

>  <r_i_glide_energy>  (98) 
-26.7342

>  <r_i_glide_einternal>  (98) 
6.31141

>  <r_i_glide_intrahb_reward>  (98) 
-0

>  <i_i_glide_confnum>  (98) 
3

>  <i_i_glide_posenum>  (98) 
25

>  <r_i_glide_eff_state_penalty>  (98) 
0

>  <ligand_id>  (98) 
28

>  <original_smiles>  (98) 
CC(C)C(=O)ON=C1C2C3CC4CC(C)[N+]5(C)C1CC3C2C5CO4

>  <smiles>  (98) 
[H]C([H])([H])C([H])(C(=O)ON=C1C2([H])C3([H])C([H])([H])C4([H])OC([H])([H])C5([H])C2([H])C3([H])C([H])([H])C1([H])[N+]5(C([H])([H])[H])C([H])(C([H])([H])[H])C4([H])[H])C([H])([H])[H]

$$$$
28:0:1
     RDKit          3D

 53 57  0  0  1  0  0  0  0  0999 V2000
    1.2669   -8.5758    2.4218 C   0  0  0  0  0  0  0  0  0  0  0  0
    2.1216   -7.4650    1.7770 C   0  0  0  0  0  0  0  0  0  0  0  0
    2.8871   -6.7610    2.9203 C   0  0  0  0  0  0  0  0  0  0  0  0
    1.2600   -6.4869    0.9057 C   0  0  0  0  0  0  0  0  0  0  0  0
    0.0407   -6.6090    0.8695 O   0  0  0  0  0  0  0  0  0  0  0  0
    1.9073   -5.5001    0.2044 O   0  0  0  0  0  0  0  0  0  0  0  0
    3.2988   -5.6438    0.2884 N   0  0  0  0  0  0  0  0  0  0  0  0
    3.8834   -4.5997    0.6573 C   0  0  0  0  0  0  0  0  0  0  0  0
    5.3585   -4.4348    0.9596 C   0  0  2  0  0  0  0  0  0  0  0  0
    6.1309   -4.7963    2.0877 C   0  0  1  0  0  0  0  0  0  0  0  0
    7.5911   -4.5150    1.3118 C   0  0  0  0  0  0  0  0  0  0  0  0
    7.6640   -3.3651    0.0566 C   0  0  1  0  0  0  0  0  0  0  0  0
    6.5962   -3.2199   -1.1805 C   0  0  0  0  0  0  0  0  0  0  0  0
    5.0636   -2.6128   -1.1618 C   0  0  1  0  0  0  0  0  0  0  0  0
    4.1947   -3.3688   -2.1837 C   0  0  0  0  0  0  0  0  0  0  0  0
    4.3033   -2.1971    0.1582 N   0  0  1  0  0  0  0  0  0  0  0  0
    3.4269   -1.0518   -0.1492 C   0  0  0  0  0  0  0  0  0  0  0  0
    3.3801   -3.2319    0.9381 C   0  0  2  0  0  0  0  0  0  0  0  0
    3.6144   -3.2970    2.5284 C   0  0  0  0  0  0  0  0  0  0  0  0
    5.1161   -3.7002    2.8406 C   0  0  2  0  0  0  0  0  0  0  0  0
    5.7464   -2.9853    1.7707 C   0  0  2  0  0  0  0  0  0  0  0  0
    5.3349   -1.7365    1.1142 C   0  0  1  0  0  0  0  0  0  0  0  0
    6.6559   -1.1264    0.5394 C   0  0  0  0  0  0  0  0  0  0  0  0
    7.8220   -2.0042    0.4893 O   0  0  0  0  0  0  0  0  0  0  0  0
    0.7000   -9.1841    1.7056 H   0  0  0  0  0  0  0  0  0  0  0  0
    0.5476   -8.1816    3.1479 H   0  0  0  0  0  0  0  0  0  0  0  0
    1.9008   -9.2725    2.9764 H   0  0  0  0  0  0  0  0  0  0  0  0
    2.8096   -7.9801    1.1048 H   0  0  0  0  0  0  0  0  0  0  0  0
    3.6427   -6.0825    2.5333 H   0  0  0  0  0  0  0  0  0  0  0  0
    3.4267   -7.4844    3.5359 H   0  0  0  0  0  0  0  0  0  0  0  0
    2.1958   -6.2121    3.5663 H   0  0  0  0  0  0  0  0  0  0  0  0
    5.8212   -4.9643    0.1214 H   0  0  0  0  0  0  0  0  0  0  0  0
    5.9678   -5.8269    2.4167 H   0  0  0  0  0  0  0  0  0  0  0  0
    8.3797   -4.2931    2.0352 H   0  0  0  0  0  0  0  0  0  0  0  0
    7.9172   -5.4687    0.8863 H   0  0  0  0  0  0  0  0  0  0  0  0
    8.6152   -3.5911   -0.4177 H   0  0  0  0  0  0  0  0  0  0  0  0
    7.1259   -2.6359   -1.9398 H   0  0  0  0  0  0  0  0  0  0  0  0
    6.5098   -4.1894   -1.6554 H   0  0  0  0  0  0  0  0  0  0  0  0
    5.2007   -1.6633   -1.6823 H   0  0  0  0  0  0  0  0  0  0  0  0
    4.6276   -3.3096   -3.1829 H   0  0  0  0  0  0  0  0  0  0  0  0
    3.1611   -3.0061   -2.2408 H   0  0  0  0  0  0  0  0  0  0  0  0
    4.1901   -4.4310   -1.9614 H   0  0  0  0  0  0  0  0  0  0  0  0
    2.8910   -0.6963    0.7529 H   0  0  0  0  0  0  0  0  0  0  0  0
    2.6889   -1.3616   -0.8928 H   0  0  0  0  0  0  0  0  0  0  0  0
    4.0250   -0.2255   -0.5655 H   0  0  0  0  0  0  0  0  0  0  0  0
    2.3280   -3.1143    0.6735 H   0  0  0  0  0  0  0  0  0  0  0  0
    3.3823   -2.3305    2.9845 H   0  0  0  0  0  0  0  0  0  0  0  0
    2.9185   -3.9919    3.0048 H   0  0  0  0  0  0  0  0  0  0  0  0
    5.4608   -3.4183    3.8355 H   0  0  0  0  0  0  0  0  0  0  0  0
    6.6218   -2.6847    2.3590 H   0  0  0  0  0  0  0  0  0  0  0  0
    4.9246   -1.0368    1.8424 H   0  0  0  0  0  0  0  0  0  0  0  0
    6.4960   -0.5913   -0.3942 H   0  0  0  0  0  0  0  0  0  0  0  0
    6.9307   -0.3538    1.2367 H   0  0  0  0  0  0  0  0  0  0  0  0
  1  2  1  0
  1 25  1  0
  1 26  1  0
  1 27  1  0
  2  3  1  0
  2  4  1  0
  2 28  1  0
  3 29  1  0
  3 30  1  0
  3 31  1  0
  4  5  2  0
  4  6  1  0
  6  7  1  0
  7  8  2  3
  8 18  1  0
  8  9  1  0
  9 21  1  0
  9 10  1  0
  9 32  1  6
 10 20  1  0
 10 11  1  0
 10 33  1  1
 11 12  1  0
 11 34  1  0
 11 35  1  0
 12 24  1  0
 12 13  1  0
 12 36  1  6
 13 14  1  0
 13 37  1  0
 13 38  1  0
 14 15  1  0
 14 16  1  0
 14 39  1  6
 15 40  1  0
 15 41  1  0
 15 42  1  0
 16 22  1  0
 16 17  1  6
 16 18  1  0
 17 43  1  0
 17 44  1  0
 17 45  1  0
 18 19  1  0
 18 46  1  1
 19 20  1  0
 19 47  1  0
 19 48  1  0
 20 21  1  0
 20 49  1  1
 21 22  1  0
 21 50  1  1
 22 23  1  0
 22 51  1  1
 23 24  1  0
 23 52  1  0
 23 53  1  0
M  CHG  1  16   1
M  END
>  <i_m_ct_stereo_status>  (99) 
1

>  <s_m_source_file>  (99) 
/var/tmp/pbs.5076255.sched01/tmp0qfm3vo4/0bcu552to.sdf

>  <i_m_source_file_index>  (99) 
41

>  <i_lp_mmshare_version>  (99) 
48012

>  <i_f3d_flags>  (99) 
0

>  <s_epik_input>  (99) 
W0NIM11bQ0hdKFtDSDNdKUMoPU8pTy9OPUMoW0NAQEhdMVtOQCtdMjNbQ0gzXSkvW0NASF00W0NAQEhdNVtDQEhdKFtDSDJdMSlbQ0BASF00W0NASF0zW0NIMl1PW0NAQEhdKFtDSDJdNSlbQ0gyXVtDQEhdMltDSDNd

>  <s_epik_cmdline>  (99) 
J2VwaWtfcHl0aG9uJywgJy1waHQnLCAnMi4wJywgJy1waCcsICc3LjAnLCAnLXRuJywgJzgnLCAnLW1hJywgJzIwMCcsICctaW1hZScsICc8aW5maWxlLm1hZT4nLCAnLW9tYWUnLCAnPG91dGZpbGUubWFlPic=

>  <r_lp_tautomer_probability>  (99) 
1

>  <r_epik_Ionization_Penalty>  (99) 
1.21823e-13

>  <r_epik_Ionization_Penalty_Charging>  (99) 
0

>  <r_epik_Ionization_Penalty_Neutral>  (99) 
1.21823e-13

>  <r_epik_State_Penalty>  (99) 
-0

>  <r_epik_Charging_Adjusted_Penalty>  (99) 
0

>  <i_epik_Tot_Q>  (99) 
1

>  <i_epik_Tot_abs_Q>  (99) 
1

>  <s_epik_Chemistry_Notes>  (99) 
This compound has an imine and may undergo hydrolysis.

>  <s_lp_Force_Field>  (99) 
OPLS3e

>  <r_lp_Energy>  (99) 
296.106

>  <b_lp_Chiralities_Consistent>  (99) 
1

>  <s_lp_Variant>  (99) 
28:0-1

>  <s_i_glide_gridfile>  (99) 
pfpi4k_grid

>  <i_i_glide_lignum>  (99) 
41

>  <i_i_glide_rotatable_bonds>  (99) 
3

>  <r_i_docking_score>  (99) 
-3.40085

>  <r_i_glide_ligand_efficiency>  (99) 
-0.141702

>  <r_i_glide_ligand_efficiency_sa>  (99) 
-0.40874

>  <r_i_glide_ligand_efficiency_ln>  (99) 
-0.81398

>  <r_i_glide_gscore>  (99) 
-3.40085

>  <r_i_glide_lipo>  (99) 
-0.706747

>  <r_i_glide_hbond>  (99) 
-0.16

>  <r_i_glide_metal>  (99) 
-0

>  <r_i_glide_rewards>  (99) 
-1.15382

>  <r_i_glide_evdw>  (99) 
-14.966

>  <r_i_glide_ecoul>  (99) 
-5.18847

>  <r_i_glide_erotb>  (99) 
0.33903

>  <r_i_glide_esite>  (99) 
-0.192739

>  <r_i_glide_emodel>  (99) 
-20.1822

>  <r_i_glide_energy>  (99) 
-20.1545

>  <r_i_glide_einternal>  (99) 
8.06936

>  <r_i_glide_intrahb_reward>  (99) 
-0

>  <i_i_glide_confnum>  (99) 
3

>  <i_i_glide_posenum>  (99) 
6

>  <r_i_glide_eff_state_penalty>  (99) 
0

>  <ligand_id>  (99) 
28

>  <original_smiles>  (99) 
CC(C)C(=O)ON=C1C2C3CC4CC(C)[N+]5(C)C1CC3C2C5CO4

>  <smiles>  (99) 
[H]C([H])([H])C([H])(C(=O)ON=C1C2([H])C3([H])C([H])([H])C4([H])OC([H])([H])C5([H])C2([H])C3([H])C([H])([H])C1([H])[N+]5(C([H])([H])[H])C([H])(C([H])([H])[H])C4([H])[H])C([H])([H])[H]

$$$$
28:0:2
     RDKit          3D

 53 57  0  0  1  0  0  0  0  0999 V2000
    3.6146   -8.3810    1.4840 C   0  0  0  0  0  0  0  0  0  0  0  0
    2.6170   -7.3809    2.1584 C   0  0  0  0  0  0  0  0  0  0  0  0
    1.8273   -8.1009    3.2589 C   0  0  0  0  0  0  0  0  0  0  0  0
    1.6937   -6.6029    1.1764 C   0  0  0  0  0  0  0  0  0  0  0  0
    0.4719   -6.8071    1.1549 O   0  0  0  0  0  0  0  0  0  0  0  0
    2.2519   -5.6260    0.4097 O   0  0  0  0  0  0  0  0  0  0  0  0
    3.6404   -5.6847    0.3646 N   0  0  0  0  0  0  0  0  0  0  0  0
    4.1861   -4.6293    0.6808 C   0  0  0  0  0  0  0  0  0  0  0  0
    5.6533   -4.3327    0.8982 C   0  0  2  0  0  0  0  0  0  0  0  0
    6.5061   -4.6058    1.9936 C   0  0  1  0  0  0  0  0  0  0  0  0
    7.8984   -4.2764    1.1174 C   0  0  0  0  0  0  0  0  0  0  0  0
    7.8234   -3.1887   -0.1951 C   0  0  1  0  0  0  0  0  0  0  0  0
    6.6851   -3.1478   -1.3709 C   0  0  0  0  0  0  0  0  0  0  0  0
    5.1127   -2.6575   -1.2928 C   0  0  1  0  0  0  0  0  0  0  0  0
    4.2634   -3.5283   -2.2385 C   0  0  0  0  0  0  0  0  0  0  0  0
    4.3906   -2.2235    0.0456 N   0  0  1  0  0  0  0  0  0  0  0  0
    3.4210   -1.1486   -0.2876 C   0  0  0  0  0  0  0  0  0  0  0  0
    3.6021   -3.2798    0.9116 C   0  0  2  0  0  0  0  0  0  0  0  0
    3.9041   -3.2597    2.4983 C   0  0  0  0  0  0  0  0  0  0  0  0
    5.4491   -3.5357    2.7525 C   0  0  2  0  0  0  0  0  0  0  0  0
    5.9719   -2.8346    1.6183 C   0  0  2  0  0  0  0  0  0  0  0  0
    5.4410   -1.6694    0.9204 C   0  0  1  0  0  0  0  0  0  0  0  0
    6.6769   -1.0329    0.2408 C   0  0  0  0  0  0  0  0  0  0  0  0
    7.9026   -1.8079    0.1904 O   0  0  0  0  0  0  0  0  0  0  0  0
    4.2558   -7.9358    0.7277 H   0  0  0  0  0  0  0  0  0  0  0  0
    3.0728   -9.2003    1.0089 H   0  0  0  0  0  0  0  0  0  0  0  0
    4.2855   -8.8046    2.2355 H   0  0  0  0  0  0  0  0  0  0  0  0
    3.1923   -6.6114    2.6859 H   0  0  0  0  0  0  0  0  0  0  0  0
    1.1954   -7.4188    3.8274 H   0  0  0  0  0  0  0  0  0  0  0  0
    2.4920   -8.5789    3.9774 H   0  0  0  0  0  0  0  0  0  0  0  0
    1.1852   -8.8806    2.8507 H   0  0  0  0  0  0  0  0  0  0  0  0
    6.0920   -4.8608    0.0543 H   0  0  0  0  0  0  0  0  0  0  0  0
    6.4196   -5.6280    2.3673 H   0  0  0  0  0  0  0  0  0  0  0  0
    8.7129   -3.9596    1.7760 H   0  0  0  0  0  0  0  0  0  0  0  0
    8.2709   -5.2220    0.7150 H   0  0  0  0  0  0  0  0  0  0  0  0
    8.7791   -3.3494   -0.6977 H   0  0  0  0  0  0  0  0  0  0  0  0
    7.1440   -2.5691   -2.1724 H   0  0  0  0  0  0  0  0  0  0  0  0
    6.5844   -4.1260   -1.8030 H   0  0  0  0  0  0  0  0  0  0  0  0
    5.1590   -1.7350   -1.8706 H   0  0  0  0  0  0  0  0  0  0  0  0
    4.6606   -3.4838   -3.2490 H   0  0  0  0  0  0  0  0  0  0  0  0
    3.2173   -3.2248   -2.2803 H   0  0  0  0  0  0  0  0  0  0  0  0
    4.3074   -4.5783   -1.9616 H   0  0  0  0  0  0  0  0  0  0  0  0
    2.9092   -0.8002    0.6174 H   0  0  0  0  0  0  0  0  0  0  0  0
    2.6784   -1.5558   -0.9752 H   0  0  0  0  0  0  0  0  0  0  0  0
    3.9191   -0.2954   -0.7563 H   0  0  0  0  0  0  0  0  0  0  0  0
    2.5238   -3.2376    0.6970 H   0  0  0  0  0  0  0  0  0  0  0  0
    3.6145   -2.2986    2.9351 H   0  0  0  0  0  0  0  0  0  0  0  0
    3.3027   -4.0049    3.0184 H   0  0  0  0  0  0  0  0  0  0  0  0
    5.8161   -3.1787    3.7207 H   0  0  0  0  0  0  0  0  0  0  0  0
    6.8966   -2.4602    2.0811 H   0  0  0  0  0  0  0  0  0  0  0  0
    5.0210   -0.9480    1.6333 H   0  0  0  0  0  0  0  0  0  0  0  0
    6.4102   -0.5413   -0.6950 H   0  0  0  0  0  0  0  0  0  0  0  0
    6.9564   -0.2635    0.9385 H   0  0  0  0  0  0  0  0  0  0  0  0
  1  2  1  0
  1 25  1  0
  1 26  1  0
  1 27  1  0
  2  3  1  0
  2  4  1  0
  2 28  1  0
  3 29  1  0
  3 30  1  0
  3 31  1  0
  4  5  2  0
  4  6  1  0
  6  7  1  0
  7  8  2  3
  8 18  1  0
  8  9  1  0
  9 21  1  0
  9 10  1  0
  9 32  1  6
 10 20  1  0
 10 11  1  0
 10 33  1  1
 11 12  1  0
 11 34  1  0
 11 35  1  0
 12 24  1  0
 12 13  1  0
 12 36  1  6
 13 14  1  0
 13 37  1  0
 13 38  1  0
 14 15  1  0
 14 16  1  0
 14 39  1  6
 15 40  1  0
 15 41  1  0
 15 42  1  0
 16 22  1  0
 16 17  1  6
 16 18  1  0
 17 43  1  0
 17 44  1  0
 17 45  1  0
 18 19  1  0
 18 46  1  1
 19 20  1  0
 19 47  1  0
 19 48  1  0
 20 21  1  0
 20 49  1  1
 21 22  1  0
 21 50  1  1
 22 23  1  0
 22 51  1  1
 23 24  1  0
 23 52  1  0
 23 53  1  0
M  CHG  1  16   1
M  END
>  <i_m_ct_stereo_status>  (100) 
1

>  <s_m_source_file>  (100) 
/var/tmp/pbs.5076255.sched01/tmp0qfm3vo4/0bcu552to.sdf

>  <i_m_source_file_index>  (100) 
41

>  <i_lp_mmshare_version>  (100) 
48012

>  <i_f3d_flags>  (100) 
0

>  <s_epik_input>  (100) 
W0NIM11bQ0hdKFtDSDNdKUMoPU8pTy9OPUMoW0NAQEhdMVtOQCtdMjNbQ0gzXSkvW0NASF00W0NAQEhdNVtDQEhdKFtDSDJdMSlbQ0BASF00W0NASF0zW0NIMl1PW0NAQEhdKFtDSDJdNSlbQ0gyXVtDQEhdMltDSDNd

>  <s_epik_cmdline>  (100) 
J2VwaWtfcHl0aG9uJywgJy1waHQnLCAnMi4wJywgJy1waCcsICc3LjAnLCAnLXRuJywgJzgnLCAnLW1hJywgJzIwMCcsICctaW1hZScsICc8aW5maWxlLm1hZT4nLCAnLW9tYWUnLCAnPG91dGZpbGUubWFlPic=

>  <r_lp_tautomer_probability>  (100) 
1

>  <r_epik_Ionization_Penalty>  (100) 
1.21823e-13

>  <r_epik_Ionization_Penalty_Charging>  (100) 
0

>  <r_epik_Ionization_Penalty_Neutral>  (100) 
1.21823e-13

>  <r_epik_State_Penalty>  (100) 
-0

>  <r_epik_Charging_Adjusted_Penalty>  (100) 
0

>  <i_epik_Tot_Q>  (100) 
1

>  <i_epik_Tot_abs_Q>  (100) 
1

>  <s_epik_Chemistry_Notes>  (100) 
This compound has an imine and may undergo hydrolysis.

>  <s_lp_Force_Field>  (100) 
OPLS3e

>  <r_lp_Energy>  (100) 
296.106

>  <b_lp_Chiralities_Consistent>  (100) 
1

>  <s_lp_Variant>  (100) 
28:0-1

>  <s_i_glide_gridfile>  (100) 
pfpi4k_grid

>  <i_i_glide_lignum>  (100) 
41

>  <i_i_glide_rotatable_bonds>  (100) 
3

>  <r_i_docking_score>  (100) 
-3.24886

>  <r_i_glide_ligand_efficiency>  (100) 
-0.135369

>  <r_i_glide_ligand_efficiency_sa>  (100) 
-0.390472

>  <r_i_glide_ligand_efficiency_ln>  (100) 
-0.7776

>  <r_i_glide_gscore>  (100) 
-3.24886

>  <r_i_glide_lipo>  (100) 
-0.701427

>  <r_i_glide_hbond>  (100) 
-0.126495

>  <r_i_glide_metal>  (100) 
-0

>  <r_i_glide_rewards>  (100) 
-1.17813

>  <r_i_glide_evdw>  (100) 
-16.5731

>  <r_i_glide_ecoul>  (100) 
-4.29457

>  <r_i_glide_erotb>  (100) 
0.33903

>  <r_i_glide_esite>  (100) 
-0.108995

>  <r_i_glide_emodel>  (100) 
-20.2362

>  <r_i_glide_energy>  (100) 
-20.8677

>  <r_i_glide_einternal>  (100) 
8.57317

>  <r_i_glide_intrahb_reward>  (100) 
-0

>  <i_i_glide_confnum>  (100) 
3

>  <i_i_glide_posenum>  (100) 
39

>  <r_i_glide_eff_state_penalty>  (100) 
0

>  <ligand_id>  (100) 
28

>  <original_smiles>  (100) 
CC(C)C(=O)ON=C1C2C3CC4CC(C)[N+]5(C)C1CC3C2C5CO4

>  <smiles>  (100) 
[H]C([H])([H])C([H])(C(=O)ON=C1C2([H])C3([H])C([H])([H])C4([H])OC([H])([H])C5([H])C2([H])C3([H])C([H])([H])C1([H])[N+]5(C([H])([H])[H])C([H])(C([H])([H])[H])C4([H])[H])C([H])([H])[H]

$$$$
29:0:0
     RDKit          3D

 56 60  0  0  1  0  0  0  0  0999 V2000
    3.8528   -0.2666   -3.5605 C   0  0  0  0  0  0  0  0  0  0  0  0
    4.3970   -1.6639   -3.2330 C   0  0  2  0  0  0  0  0  0  0  0  0
    3.3293   -2.7825   -3.4073 C   0  0  0  0  0  0  0  0  0  0  0  0
    2.9605   -3.2849   -1.9825 C   0  0  0  0  0  0  0  0  0  0  0  0
    3.4587   -2.1538   -1.1393 C   0  0  1  0  0  0  0  0  0  0  0  0
    4.1404   -1.9383    0.2303 C   0  0  1  0  0  0  0  0  0  0  0  0
    3.2076   -1.3062    1.2435 C   0  0  0  0  0  0  0  0  0  0  0  0
    3.0816   -1.7191    2.5055 C   0  0  0  0  0  0  0  0  0  0  0  0
    3.8695   -2.8836    3.0831 C   0  0  1  0  0  0  0  0  0  0  0  0
    5.0580   -2.1978    3.8114 C   0  0  0  0  0  0  0  0  0  0  0  0
    3.0560   -3.6094    4.1734 C   0  0  0  0  0  0  0  0  0  0  0  0
    3.8177   -4.7920    4.7955 C   0  0  0  0  0  0  0  0  0  0  0  0
    4.3587   -5.7553    3.7348 C   0  0  0  0  0  0  0  0  0  0  0  0
    5.1284   -5.0653    2.5749 C   0  0  1  0  0  0  0  0  0  0  0  0
    5.6333   -6.1953    1.6432 C   0  0  0  0  0  0  0  0  0  0  0  0
    4.2946   -3.8926    1.9167 C   0  0  1  0  0  0  0  0  0  0  0  0
    3.0164   -4.5174    1.2677 C   0  0  0  0  0  0  0  0  0  0  0  0
    5.0501   -3.0566    0.8183 C   0  0  1  0  0  0  0  0  0  0  0  0
    5.7829   -3.7725   -0.3424 C   0  0  0  0  0  0  0  0  0  0  0  0
    5.8845   -2.9455   -1.6485 C   0  0  0  0  0  0  0  0  0  0  0  0
    4.7966   -1.8477   -1.7494 C   0  0  1  0  0  0  0  0  0  0  0  0
    4.8823   -0.8459   -0.6010 C   0  0  0  0  0  0  0  0  0  0  0  0
    2.9466   -0.0263   -3.0097 H   0  0  0  0  0  0  0  0  0  0  0  0
    3.6038   -0.1766   -4.6208 H   0  0  0  0  0  0  0  0  0  0  0  0
    4.5810    0.5095   -3.3173 H   0  0  0  0  0  0  0  0  0  0  0  0
    5.2320   -1.8795   -3.9032 H   0  0  0  0  0  0  0  0  0  0  0  0
    2.4546   -2.3729   -3.9141 H   0  0  0  0  0  0  0  0  0  0  0  0
    3.7118   -3.5919   -4.0327 H   0  0  0  0  0  0  0  0  0  0  0  0
    1.9018   -3.4772   -1.8724 H   0  0  0  0  0  0  0  0  0  0  0  0
    3.4956   -4.2165   -1.7693 H   0  0  0  0  0  0  0  0  0  0  0  0
    2.7058   -1.3478   -1.2833 H   0  0  0  0  0  0  0  0  0  0  0  0
    2.6252   -0.4676    0.8871 H   0  0  0  0  0  0  0  0  0  0  0  0
    2.4106   -1.2155    3.1884 H   0  0  0  0  0  0  0  0  0  0  0  0
    5.7730   -2.9055    4.2283 H   0  0  0  0  0  0  0  0  0  0  0  0
    4.7024   -1.5890    4.6473 H   0  0  0  0  0  0  0  0  0  0  0  0
    5.6124   -1.5148    3.1729 H   0  0  0  0  0  0  0  0  0  0  0  0
    2.7990   -2.9089    4.9743 H   0  0  0  0  0  0  0  0  0  0  0  0
    2.0906   -3.9470    3.7825 H   0  0  0  0  0  0  0  0  0  0  0  0
    4.6501   -4.4248    5.4003 H   0  0  0  0  0  0  0  0  0  0  0  0
    3.1650   -5.3253    5.4807 H   0  0  0  0  0  0  0  0  0  0  0  0
    5.0079   -6.4760    4.2387 H   0  0  0  0  0  0  0  0  0  0  0  0
    3.5302   -6.3532    3.3456 H   0  0  0  0  0  0  0  0  0  0  0  0
    6.0430   -4.6489    3.0064 H   0  0  0  0  0  0  0  0  0  0  0  0
    4.8517   -6.5901    0.9912 H   0  0  0  0  0  0  0  0  0  0  0  0
    6.0090   -7.0393    2.2307 H   0  0  0  0  0  0  0  0  0  0  0  0
    6.4759   -5.8756    1.0372 H   0  0  0  0  0  0  0  0  0  0  0  0
    3.2514   -5.1391    0.4118 H   0  0  0  0  0  0  0  0  0  0  0  0
    2.3130   -3.7681    0.9147 H   0  0  0  0  0  0  0  0  0  0  0  0
    2.4414   -5.1378    1.9436 H   0  0  0  0  0  0  0  0  0  0  0  0
    5.8795   -2.5539    1.3244 H   0  0  0  0  0  0  0  0  0  0  0  0
    6.7893   -4.0202   -0.0227 H   0  0  0  0  0  0  0  0  0  0  0  0
    5.2716   -4.7128   -0.5501 H   0  0  0  0  0  0  0  0  0  0  0  0
    6.8775   -2.5028   -1.6939 H   0  0  0  0  0  0  0  0  0  0  0  0
    5.8686   -3.6294   -2.4898 H   0  0  0  0  0  0  0  0  0  0  0  0
    4.2980    0.0758   -0.7431 H   0  0  0  0  0  0  0  0  0  0  0  0
    5.8862   -0.6415   -0.2378 H   0  0  0  0  0  0  0  0  0  0  0  0
  1  2  1  0
  1 23  1  0
  1 24  1  0
  1 25  1  0
  2 21  1  0
  2  3  1  0
  2 26  1  6
  3  4  1  0
  3 27  1  0
  3 28  1  0
  4  5  1  0
  4 29  1  0
  4 30  1  0
  5 21  1  0
  5  6  1  0
  5 31  1  6
  6 18  1  0
  6 22  1  0
  6  7  1  1
  7  8  2  0
  7 32  1  0
  8  9  1  0
  8 33  1  0
  9 16  1  0
  9 10  1  1
  9 11  1  0
 10 34  1  0
 10 35  1  0
 10 36  1  0
 11 12  1  0
 11 37  1  0
 11 38  1  0
 12 13  1  0
 12 39  1  0
 12 40  1  0
 13 14  1  0
 13 41  1  0
 13 42  1  0
 14 15  1  0
 14 16  1  0
 14 43  1  1
 15 44  1  0
 15 45  1  0
 15 46  1  0
 16 17  1  6
 16 18  1  0
 17 47  1  0
 17 48  1  0
 17 49  1  0
 18 19  1  0
 18 50  1  1
 19 20  1  0
 19 51  1  0
 19 52  1  0
 21 20  1  6
 20 53  1  0
 20 54  1  0
 21 22  1  0
 22 55  1  0
 22 56  1  0
M  END
>  <i_m_ct_stereo_status>  (101) 
1

>  <s_m_source_file>  (101) 
/var/tmp/pbs.5076255.sched01/tmpuxvxg9lz/41q4u19exn.sdf

>  <i_m_source_file_index>  (101) 
2

>  <i_lp_mmshare_version>  (101) 
48012

>  <i_f3d_flags>  (101) 
1

>  <s_epik_input>  (101) 
W0NIMl0xW0NIMl1bQ0BASF0oW0NIM10pW0NAXShbQ0BASF0xW0NAQF0yMzQpKFtDSDJdNClbQ0gyXVtDSDJdW0NAQEhdM1tDQF01KFtDSDNdKVtDQEBdKFtDSDNdKShbQ0hdPVtDSF0yKVtDSDJdW0NIMl1bQ0gyXVtDQEhdNVtDSDNd

>  <s_epik_cmdline>  (101) 
J2VwaWtfcHl0aG9uJywgJy1waHQnLCAnMi4wJywgJy1waCcsICc3LjAnLCAnLXRuJywgJzgnLCAnLW1hJywgJzIwMCcsICctaW1hZScsICc8aW5maWxlLm1hZT4nLCAnLW9tYWUnLCAnPG91dGZpbGUubWFlPic=

>  <r_lp_tautomer_probability>  (101) 
1

>  <r_epik_Ionization_Penalty>  (101) 
0

>  <r_epik_Ionization_Penalty_Charging>  (101) 
0

>  <r_epik_Ionization_Penalty_Neutral>  (101) 
0

>  <r_epik_State_Penalty>  (101) 
-0

>  <r_epik_Charging_Adjusted_Penalty>  (101) 
0

>  <i_epik_Tot_Q>  (101) 
0

>  <i_epik_Tot_abs_Q>  (101) 
0

>  <s_lp_Force_Field>  (101) 
OPLS3e

>  <r_lp_Energy>  (101) 
109.154

>  <b_lp_Chiralities_Consistent>  (101) 
1

>  <s_lp_Variant>  (101) 
29:0-1

>  <s_i_glide_gridfile>  (101) 
pfpi4k_grid

>  <i_i_glide_lignum>  (101) 
2

>  <i_i_glide_rotatable_bonds>  (101) 
0

>  <r_i_docking_score>  (101) 
-3.35203

>  <r_i_glide_ligand_efficiency>  (101) 
-0.152365

>  <r_i_glide_ligand_efficiency_sa>  (101) 
-0.426933

>  <r_i_glide_ligand_efficiency_ln>  (101) 
-0.819359

>  <r_i_glide_gscore>  (101) 
-3.35203

>  <r_i_glide_lipo>  (101) 
-0.766736

>  <r_i_glide_hbond>  (101) 
0

>  <r_i_glide_metal>  (101) 
-0

>  <r_i_glide_rewards>  (101) 
-1.37383

>  <r_i_glide_evdw>  (101) 
-23.4322

>  <r_i_glide_ecoul>  (101) 
-0.265729

>  <r_i_glide_erotb>  (101) 
0

>  <r_i_glide_esite>  (101) 
0

>  <r_i_glide_emodel>  (101) 
-27.8557

>  <r_i_glide_energy>  (101) 
-23.698

>  <r_i_glide_einternal>  (101) 
0

>  <r_i_glide_intrahb_reward>  (101) 
-0

>  <i_i_glide_confnum>  (101) 
2

>  <i_i_glide_posenum>  (101) 
7

>  <r_i_glide_eff_state_penalty>  (101) 
0

>  <ligand_id>  (101) 
29

>  <original_smiles>  (101) 
CC1CCC2C34C=CC5(C)CCCC(C)C5(C)C3CCC12C4

>  <smiles>  (101) 
[H]C1=C([H])C2(C([H])([H])[H])C([H])([H])C([H])([H])C([H])([H])C([H])(C([H])([H])[H])C2(C([H])([H])[H])C2([H])C([H])([H])C([H])([H])C34C([H])([H])C12C3([H])C([H])([H])C([H])([H])C4([H])C([H])([H])[H]

$$$$
29:0:1
     RDKit          3D

 56 60  0  0  1  0  0  0  0  0999 V2000
    3.0203   -0.2609   -4.5789 C   0  0  0  0  0  0  0  0  0  0  0  0
    3.4384   -1.7212   -4.2102 C   0  0  2  0  0  0  0  0  0  0  0  0
    2.2213   -2.6943   -3.9246 C   0  0  0  0  0  0  0  0  0  0  0  0
    2.2270   -2.9970   -2.4098 C   0  0  0  0  0  0  0  0  0  0  0  0
    3.1015   -1.8684   -1.9241 C   0  0  1  0  0  0  0  0  0  0  0  0
    4.1674   -1.6577   -0.8470 C   0  0  1  0  0  0  0  0  0  0  0  0
    3.6443   -0.7981    0.3313 C   0  0  0  0  0  0  0  0  0  0  0  0
    3.8280   -1.0936    1.6212 C   0  0  0  0  0  0  0  0  0  0  0  0
    4.6073   -2.3078    2.0557 C   0  0  1  0  0  0  0  0  0  0  0  0
    6.0352   -1.7477    2.2293 C   0  0  0  0  0  0  0  0  0  0  0  0
    4.0853   -2.7876    3.4320 C   0  0  0  0  0  0  0  0  0  0  0  0
    4.8403   -4.0151    3.9541 C   0  0  0  0  0  0  0  0  0  0  0  0
    4.9107   -5.1503    2.9225 C   0  0  0  0  0  0  0  0  0  0  0  0
    5.3776   -4.7105    1.5150 C   0  0  1  0  0  0  0  0  0  0  0  0
    5.4313   -5.9710    0.6340 C   0  0  0  0  0  0  0  0  0  0  0  0
    4.5386   -3.4813    0.9809 C   0  0  1  0  0  0  0  0  0  0  0  0
    3.0604   -3.9343    0.7904 C   0  0  0  0  0  0  0  0  0  0  0  0
    5.0439   -2.8427   -0.3954 C   0  0  1  0  0  0  0  0  0  0  0  0
    5.2811   -3.7960   -1.5963 C   0  0  0  0  0  0  0  0  0  0  0  0
    5.1341   -3.1184   -2.9728 C   0  0  0  0  0  0  0  0  0  0  0  0
    4.2333   -1.8590   -2.9310 C   0  0  1  0  0  0  0  0  0  0  0  0
    4.7547   -0.7706   -1.9795 C   0  0  0  0  0  0  0  0  0  0  0  0
    2.3747    0.1725   -3.8287 H   0  0  0  0  0  0  0  0  0  0  0  0
    2.4709   -0.2528   -5.5111 H   0  0  0  0  0  0  0  0  0  0  0  0
    3.8893    0.3794   -4.6992 H   0  0  0  0  0  0  0  0  0  0  0  0
    4.0125   -2.0819   -5.0542 H   0  0  0  0  0  0  0  0  0  0  0  0
    1.2739   -2.2691   -4.2479 H   0  0  0  0  0  0  0  0  0  0  0  0
    2.3479   -3.6170   -4.4861 H   0  0  0  0  0  0  0  0  0  0  0  0
    1.2193   -3.0238   -1.9830 H   0  0  0  0  0  0  0  0  0  0  0  0
    2.6779   -3.9768   -2.2180 H   0  0  0  0  0  0  0  0  0  0  0  0
    2.5385   -0.9423   -2.0040 H   0  0  0  0  0  0  0  0  0  0  0  0
    3.1313    0.0986    0.1027 H   0  0  0  0  0  0  0  0  0  0  0  0
    3.4903   -0.4218    2.3906 H   0  0  0  0  0  0  0  0  0  0  0  0
    6.7093   -2.5574    2.3947 H   0  0  0  0  0  0  0  0  0  0  0  0
    6.0879   -1.0952    3.1061 H   0  0  0  0  0  0  0  0  0  0  0  0
    6.3788   -1.1238    1.3893 H   0  0  0  0  0  0  0  0  0  0  0  0
    4.1852   -1.9854    4.1628 H   0  0  0  0  0  0  0  0  0  0  0  0
    3.0188   -2.9972    3.3797 H   0  0  0  0  0  0  0  0  0  0  0  0
    5.8453   -3.7334    4.2509 H   0  0  0  0  0  0  0  0  0  0  0  0
    4.3552   -4.3820    4.8610 H   0  0  0  0  0  0  0  0  0  0  0  0
    5.5846   -5.9145    3.3112 H   0  0  0  0  0  0  0  0  0  0  0  0
    3.9360   -5.6390    2.8646 H   0  0  0  0  0  0  0  0  0  0  0  0
    6.4261   -4.4322    1.5940 H   0  0  0  0  0  0  0  0  0  0  0  0
    4.4535   -6.2890    0.2821 H   0  0  0  0  0  0  0  0  0  0  0  0
    5.8626   -6.8008    1.1937 H   0  0  0  0  0  0  0  0  0  0  0  0
    6.0918   -5.8337   -0.2153 H   0  0  0  0  0  0  0  0  0  0  0  0
    2.9525   -4.6612   -0.0104 H   0  0  0  0  0  0  0  0  0  0  0  0
    2.3834   -3.1117    0.5536 H   0  0  0  0  0  0  0  0  0  0  0  0
    2.6423   -4.3894    1.6810 H   0  0  0  0  0  0  0  0  0  0  0  0
    6.0435   -2.4596   -0.2204 H   0  0  0  0  0  0  0  0  0  0  0  0
    6.3072   -4.1393   -1.5349 H   0  0  0  0  0  0  0  0  0  0  0  0
    4.6371   -4.6451   -1.5430 H   0  0  0  0  0  0  0  0  0  0  0  0
    6.1138   -2.8367   -3.3665 H   0  0  0  0  0  0  0  0  0  0  0  0
    4.7520   -3.8525   -3.6917 H   0  0  0  0  0  0  0  0  0  0  0  0
    4.2874    0.1795   -2.1361 H   0  0  0  0  0  0  0  0  0  0  0  0
    5.8588   -0.7262   -1.9614 H   0  0  0  0  0  0  0  0  0  0  0  0
  1  2  1  0
  1 23  1  0
  1 24  1  0
  1 25  1  0
  2 21  1  0
  2  3  1  0
  2 26  1  6
  3  4  1  0
  3 27  1  0
  3 28  1  0
  4  5  1  0
  4 29  1  0
  4 30  1  0
  5 21  1  0
  5  6  1  0
  5 31  1  6
  6 18  1  0
  6 22  1  0
  6  7  1  1
  7  8  2  0
  7 32  1  0
  8  9  1  0
  8 33  1  0
  9 16  1  0
  9 10  1  1
  9 11  1  0
 10 34  1  0
 10 35  1  0
 10 36  1  0
 11 12  1  0
 11 37  1  0
 11 38  1  0
 12 13  1  0
 12 39  1  0
 12 40  1  0
 13 14  1  0
 13 41  1  0
 13 42  1  0
 14 15  1  0
 14 16  1  0
 14 43  1  1
 15 44  1  0
 15 45  1  0
 15 46  1  0
 16 17  1  6
 16 18  1  0
 17 47  1  0
 17 48  1  0
 17 49  1  0
 18 19  1  0
 18 50  1  1
 19 20  1  0
 19 51  1  0
 19 52  1  0
 21 20  1  6
 20 53  1  0
 20 54  1  0
 21 22  1  0
 22 55  1  0
 22 56  1  0
M  END
>  <i_m_ct_stereo_status>  (102) 
1

>  <s_m_source_file>  (102) 
/var/tmp/pbs.5076255.sched01/tmpuxvxg9lz/41q4u19exn.sdf

>  <i_m_source_file_index>  (102) 
2

>  <i_lp_mmshare_version>  (102) 
48012

>  <i_f3d_flags>  (102) 
1

>  <s_epik_input>  (102) 
W0NIMl0xW0NIMl1bQ0BASF0oW0NIM10pW0NAXShbQ0BASF0xW0NAQF0yMzQpKFtDSDJdNClbQ0gyXVtDSDJdW0NAQEhdM1tDQF01KFtDSDNdKVtDQEBdKFtDSDNdKShbQ0hdPVtDSF0yKVtDSDJdW0NIMl1bQ0gyXVtDQEhdNVtDSDNd

>  <s_epik_cmdline>  (102) 
J2VwaWtfcHl0aG9uJywgJy1waHQnLCAnMi4wJywgJy1waCcsICc3LjAnLCAnLXRuJywgJzgnLCAnLW1hJywgJzIwMCcsICctaW1hZScsICc8aW5maWxlLm1hZT4nLCAnLW9tYWUnLCAnPG91dGZpbGUubWFlPic=

>  <r_lp_tautomer_probability>  (102) 
1

>  <r_epik_Ionization_Penalty>  (102) 
0

>  <r_epik_Ionization_Penalty_Charging>  (102) 
0

>  <r_epik_Ionization_Penalty_Neutral>  (102) 
0

>  <r_epik_State_Penalty>  (102) 
-0

>  <r_epik_Charging_Adjusted_Penalty>  (102) 
0

>  <i_epik_Tot_Q>  (102) 
0

>  <i_epik_Tot_abs_Q>  (102) 
0

>  <s_lp_Force_Field>  (102) 
OPLS3e

>  <r_lp_Energy>  (102) 
109.154

>  <b_lp_Chiralities_Consistent>  (102) 
1

>  <s_lp_Variant>  (102) 
29:0-1

>  <s_i_glide_gridfile>  (102) 
pfpi4k_grid

>  <i_i_glide_lignum>  (102) 
2

>  <i_i_glide_rotatable_bonds>  (102) 
0

>  <r_i_docking_score>  (102) 
-3.33944

>  <r_i_glide_ligand_efficiency>  (102) 
-0.151793

>  <r_i_glide_ligand_efficiency_sa>  (102) 
-0.42533

>  <r_i_glide_ligand_efficiency_ln>  (102) 
-0.816282

>  <r_i_glide_gscore>  (102) 
-3.33944

>  <r_i_glide_lipo>  (102) 
-1.14244

>  <r_i_glide_hbond>  (102) 
0

>  <r_i_glide_metal>  (102) 
-0

>  <r_i_glide_rewards>  (102) 
-1.37383

>  <r_i_glide_evdw>  (102) 
-19.7251

>  <r_i_glide_ecoul>  (102) 
1.08722

>  <r_i_glide_erotb>  (102) 
0

>  <r_i_glide_esite>  (102) 
0

>  <r_i_glide_emodel>  (102) 
-22.2313

>  <r_i_glide_energy>  (102) 
-18.6379

>  <r_i_glide_einternal>  (102) 
0

>  <r_i_glide_intrahb_reward>  (102) 
-0

>  <i_i_glide_confnum>  (102) 
1

>  <i_i_glide_posenum>  (102) 
5

>  <r_i_glide_eff_state_penalty>  (102) 
0

>  <ligand_id>  (102) 
29

>  <original_smiles>  (102) 
CC1CCC2C34C=CC5(C)CCCC(C)C5(C)C3CCC12C4

>  <smiles>  (102) 
[H]C1=C([H])C2(C([H])([H])[H])C([H])([H])C([H])([H])C([H])([H])C([H])(C([H])([H])[H])C2(C([H])([H])[H])C2([H])C([H])([H])C([H])([H])C34C([H])([H])C12C3([H])C([H])([H])C([H])([H])C4([H])C([H])([H])[H]

$$$$
29:0:2
     RDKit          3D

 56 60  0  0  1  0  0  0  0  0999 V2000
    5.3347   -3.0573   -2.6927 C   0  0  0  0  0  0  0  0  0  0  0  0
    4.2512   -2.6790   -1.6738 C   0  0  2  0  0  0  0  0  0  0  0  0
    4.5676   -1.3409   -0.9224 C   0  0  0  0  0  0  0  0  0  0  0  0
    4.9223   -1.7150    0.5570 C   0  0  0  0  0  0  0  0  0  0  0  0
    5.2594   -3.1848    0.4015 C   0  0  1  0  0  0  0  0  0  0  0  0
    5.0528   -4.4934    1.2020 C   0  0  1  0  0  0  0  0  0  0  0  0
    6.3572   -5.0366    1.7333 C   0  0  0  0  0  0  0  0  0  0  0  0
    6.5071   -5.5267    2.9695 C   0  0  0  0  0  0  0  0  0  0  0  0
    5.3818   -5.5653    3.9870 C   0  0  1  0  0  0  0  0  0  0  0  0
    4.8497   -7.0245    3.8973 C   0  0  0  0  0  0  0  0  0  0  0  0
    5.9408   -5.3845    5.4187 C   0  0  0  0  0  0  0  0  0  0  0  0
    4.8359   -5.4372    6.4901 C   0  0  0  0  0  0  0  0  0  0  0  0
    3.6870   -4.4708    6.1947 C   0  0  0  0  0  0  0  0  0  0  0  0
    3.1408   -4.5623    4.7449 C   0  0  1  0  0  0  0  0  0  0  0  0
    1.9685   -3.5626    4.6460 C   0  0  0  0  0  0  0  0  0  0  0  0
    4.2942   -4.4430    3.6658 C   0  0  1  0  0  0  0  0  0  0  0  0
    4.9259   -3.0163    3.7963 C   0  0  0  0  0  0  0  0  0  0  0  0
    3.8580   -4.6592    2.1683 C   0  0  1  0  0  0  0  0  0  0  0  0
    2.6694   -3.8583    1.5962 C   0  0  0  0  0  0  0  0  0  0  0  0
    2.7148   -3.6112    0.0617 C   0  0  0  0  0  0  0  0  0  0  0  0
    4.1437   -3.6643   -0.5042 C   0  0  1  0  0  0  0  0  0  0  0  0
    4.8164   -5.0152   -0.2447 C   0  0  0  0  0  0  0  0  0  0  0  0
    6.3397   -3.1056   -2.2600 H   0  0  0  0  0  0  0  0  0  0  0  0
    5.3868   -2.3207   -3.4971 H   0  0  0  0  0  0  0  0  0  0  0  0
    5.1420   -4.0262   -3.1537 H   0  0  0  0  0  0  0  0  0  0  0  0
    3.2970   -2.5957   -2.2142 H   0  0  0  0  0  0  0  0  0  0  0  0
    5.4021   -0.8185   -1.4014 H   0  0  0  0  0  0  0  0  0  0  0  0
    3.7101   -0.6643   -0.9607 H   0  0  0  0  0  0  0  0  0  0  0  0
    5.7286   -1.1067    0.9601 H   0  0  0  0  0  0  0  0  0  0  0  0
    4.0583   -1.5466    1.1870 H   0  0  0  0  0  0  0  0  0  0  0  0
    6.2375   -3.2422   -0.0840 H   0  0  0  0  0  0  0  0  0  0  0  0
    7.1948   -5.0497    1.0495 H   0  0  0  0  0  0  0  0  0  0  0  0
    7.4620   -5.9129    3.3059 H   0  0  0  0  0  0  0  0  0  0  0  0
    3.9711   -7.2293    4.5090 H   0  0  0  0  0  0  0  0  0  0  0  0
    5.6183   -7.7306    4.2208 H   0  0  0  0  0  0  0  0  0  0  0  0
    4.6101   -7.3253    2.8790 H   0  0  0  0  0  0  0  0  0  0  0  0
    6.6635   -6.1714    5.6396 H   0  0  0  0  0  0  0  0  0  0  0  0
    6.5017   -4.4551    5.5096 H   0  0  0  0  0  0  0  0  0  0  0  0
    4.4385   -6.4489    6.5751 H   0  0  0  0  0  0  0  0  0  0  0  0
    5.2626   -5.2078    7.4696 H   0  0  0  0  0  0  0  0  0  0  0  0
    2.8848   -4.6754    6.9055 H   0  0  0  0  0  0  0  0  0  0  0  0
    4.0114   -3.4539    6.4200 H   0  0  0  0  0  0  0  0  0  0  0  0
    2.6644   -5.5345    4.6378 H   0  0  0  0  0  0  0  0  0  0  0  0
    2.2929   -2.5266    4.5407 H   0  0  0  0  0  0  0  0  0  0  0  0
    1.3511   -3.6040    5.5460 H   0  0  0  0  0  0  0  0  0  0  0  0
    1.2879   -3.7998    3.8301 H   0  0  0  0  0  0  0  0  0  0  0  0
    4.2363   -2.2317    3.4998 H   0  0  0  0  0  0  0  0  0  0  0  0
    5.8046   -2.8885    3.1752 H   0  0  0  0  0  0  0  0  0  0  0  0
    5.2521   -2.7729    4.7999 H   0  0  0  0  0  0  0  0  0  0  0  0
    3.5147   -5.6940    2.0787 H   0  0  0  0  0  0  0  0  0  0  0  0
    1.7787   -4.4324    1.8076 H   0  0  0  0  0  0  0  0  0  0  0  0
    2.5610   -2.9071    2.1274 H   0  0  0  0  0  0  0  0  0  0  0  0
    2.1038   -4.3612   -0.4423 H   0  0  0  0  0  0  0  0  0  0  0  0
    2.2252   -2.6592   -0.1387 H   0  0  0  0  0  0  0  0  0  0  0  0
    5.7141   -5.1808   -0.8592 H   0  0  0  0  0  0  0  0  0  0  0  0
    4.1269   -5.8342   -0.3014 H   0  0  0  0  0  0  0  0  0  0  0  0
  1  2  1  0
  1 23  1  0
  1 24  1  0
  1 25  1  0
  2 21  1  0
  2  3  1  0
  2 26  1  6
  3  4  1  0
  3 27  1  0
  3 28  1  0
  4  5  1  0
  4 29  1  0
  4 30  1  0
  5 21  1  0
  5  6  1  0
  5 31  1  6
  6 18  1  0
  6 22  1  0
  6  7  1  1
  7  8  2  0
  7 32  1  0
  8  9  1  0
  8 33  1  0
  9 16  1  0
  9 10  1  1
  9 11  1  0
 10 34  1  0
 10 35  1  0
 10 36  1  0
 11 12  1  0
 11 37  1  0
 11 38  1  0
 12 13  1  0
 12 39  1  0
 12 40  1  0
 13 14  1  0
 13 41  1  0
 13 42  1  0
 14 15  1  0
 14 16  1  0
 14 43  1  1
 15 44  1  0
 15 45  1  0
 15 46  1  0
 16 17  1  6
 16 18  1  0
 17 47  1  0
 17 48  1  0
 17 49  1  0
 18 19  1  0
 18 50  1  1
 19 20  1  0
 19 51  1  0
 19 52  1  0
 21 20  1  1
 20 53  1  0
 20 54  1  0
 21 22  1  0
 22 55  1  0
 22 56  1  0
M  END
>  <i_m_ct_stereo_status>  (103) 
1

>  <s_m_source_file>  (103) 
/var/tmp/pbs.5076255.sched01/tmpuxvxg9lz/41q4u19exn.sdf

>  <i_m_source_file_index>  (103) 
2

>  <i_lp_mmshare_version>  (103) 
48012

>  <i_f3d_flags>  (103) 
1

>  <s_epik_input>  (103) 
W0NIMl0xW0NIMl1bQ0BASF0oW0NIM10pW0NAXShbQ0BASF0xW0NAQF0yMzQpKFtDSDJdNClbQ0gyXVtDSDJdW0NAQEhdM1tDQF01KFtDSDNdKVtDQEBdKFtDSDNdKShbQ0hdPVtDSF0yKVtDSDJdW0NIMl1bQ0gyXVtDQEhdNVtDSDNd

>  <s_epik_cmdline>  (103) 
J2VwaWtfcHl0aG9uJywgJy1waHQnLCAnMi4wJywgJy1waCcsICc3LjAnLCAnLXRuJywgJzgnLCAnLW1hJywgJzIwMCcsICctaW1hZScsICc8aW5maWxlLm1hZT4nLCAnLW9tYWUnLCAnPG91dGZpbGUubWFlPic=

>  <r_lp_tautomer_probability>  (103) 
1

>  <r_epik_Ionization_Penalty>  (103) 
0

>  <r_epik_Ionization_Penalty_Charging>  (103) 
0

>  <r_epik_Ionization_Penalty_Neutral>  (103) 
0

>  <r_epik_State_Penalty>  (103) 
-0

>  <r_epik_Charging_Adjusted_Penalty>  (103) 
0

>  <i_epik_Tot_Q>  (103) 
0

>  <i_epik_Tot_abs_Q>  (103) 
0

>  <s_lp_Force_Field>  (103) 
OPLS3e

>  <r_lp_Energy>  (103) 
109.154

>  <b_lp_Chiralities_Consistent>  (103) 
1

>  <s_lp_Variant>  (103) 
29:0-1

>  <s_i_glide_gridfile>  (103) 
pfpi4k_grid

>  <i_i_glide_lignum>  (103) 
2

>  <i_i_glide_rotatable_bonds>  (103) 
0

>  <r_i_docking_score>  (103) 
-2.80175

>  <r_i_glide_ligand_efficiency>  (103) 
-0.127352

>  <r_i_glide_ligand_efficiency_sa>  (103) 
-0.356846

>  <r_i_glide_ligand_efficiency_ln>  (103) 
-0.68485

>  <r_i_glide_gscore>  (103) 
-2.80175

>  <r_i_glide_lipo>  (103) 
-0.444399

>  <r_i_glide_hbond>  (103) 
0

>  <r_i_glide_metal>  (103) 
-0

>  <r_i_glide_rewards>  (103) 
-1.37383

>  <r_i_glide_evdw>  (103) 
-19.4243

>  <r_i_glide_ecoul>  (103) 
-0.0820464

>  <r_i_glide_erotb>  (103) 
0

>  <r_i_glide_esite>  (103) 
0

>  <r_i_glide_emodel>  (103) 
-22.9171

>  <r_i_glide_energy>  (103) 
-19.5064

>  <r_i_glide_einternal>  (103) 
0

>  <r_i_glide_intrahb_reward>  (103) 
-0

>  <i_i_glide_confnum>  (103) 
1

>  <i_i_glide_posenum>  (103) 
12

>  <r_i_glide_eff_state_penalty>  (103) 
0

>  <ligand_id>  (103) 
29

>  <original_smiles>  (103) 
CC1CCC2C34C=CC5(C)CCCC(C)C5(C)C3CCC12C4

>  <smiles>  (103) 
[H]C1=C([H])C2(C([H])([H])[H])C([H])([H])C([H])([H])C([H])([H])C([H])(C([H])([H])[H])C2(C([H])([H])[H])C2([H])C([H])([H])C([H])([H])C34C([H])([H])C12C3([H])C([H])([H])C([H])([H])C4([H])C([H])([H])[H]

$$$$
30:0:0
     RDKit          3D

 65 70  0  0  1  0  0  0  0  0999 V2000
    4.5712   -1.3900   -2.3804 C   0  0  0  0  0  0  0  0  0  0  0  0
    4.9279   -1.2247   -0.9190 C   0  0  0  0  0  0  0  0  0  0  0  0
    5.0561   -2.1842    0.0170 C   0  0  0  0  0  0  0  0  0  0  0  0
    5.5541   -1.7671    1.4379 C   0  0  0  0  0  0  0  0  0  0  0  0
    4.6585   -1.7773    2.7618 C   0  0  1  0  0  0  0  0  0  0  0  0
    3.6599   -0.5754    3.0591 C   0  0  2  0  0  0  0  0  0  0  0  0
    2.9352    0.1328    1.8734 C   0  0  0  0  0  0  0  0  0  0  0  0
    4.3714    0.4690    3.7260 O   0  0  0  0  0  0  0  0  0  0  0  0
    4.2293   -3.2074    3.2420 C   0  0  1  0  0  0  0  0  0  0  0  0
    5.3565   -3.7992    4.1054 C   0  0  0  0  0  0  0  0  0  0  0  0
    2.9316   -4.0972    3.3287 C   0  0  2  0  0  0  0  0  0  0  0  0
    1.8206   -3.3457    3.8123 O   0  0  0  0  0  0  0  0  0  0  0  0
    1.6400   -3.4299    5.2196 C   0  0  0  0  0  0  0  0  0  0  0  0
    2.7247   -5.6087    3.1220 C   0  0  2  0  0  0  0  0  0  0  0  0
    4.0591   -6.1075    2.5072 C   0  0  0  0  0  0  0  0  0  0  0  0
    4.1716   -5.0432    1.4131 C   0  0  2  0  0  0  0  0  0  0  0  0
    5.4293   -4.6420    0.6925 C   0  0  0  0  0  0  0  0  0  0  0  0
    6.6972   -5.1349    0.7725 C   0  0  0  0  0  0  0  0  0  0  0  0
    7.2485   -6.2100    1.6834 C   0  0  0  0  0  0  0  0  0  0  0  0
    4.9290   -3.7006   -0.3840 C   0  0  1  0  0  0  0  0  0  0  0  0
    3.5187   -4.2552   -0.6414 N   0  0  2  0  0  0  0  0  0  0  0  0
    2.4000   -3.3506   -0.3542 C   0  0  0  0  0  0  0  0  0  0  0  0
    2.4517   -3.0206    1.1371 C   0  0  0  0  0  0  0  0  0  0  0  0
    3.4881   -3.7944    2.0338 C   0  0  2  0  0  0  0  0  0  0  0  0
    3.3586   -5.4766    0.2425 C   0  0  2  0  0  0  0  0  0  0  0  0
    1.9569   -6.0333    0.7337 C   0  0  0  0  0  0  0  0  0  0  0  0
    1.5846   -5.8589    2.1761 N   0  0  0  0  0  0  0  0  0  0  0  0
    0.6877   -6.9102    2.6313 C   0  0  0  0  0  0  0  0  0  0  0  0
    3.6800   -0.8086   -2.6160 H   0  0  0  0  0  0  0  0  0  0  0  0
    4.3924   -2.4216   -2.6712 H   0  0  0  0  0  0  0  0  0  0  0  0
    5.3821   -1.0076   -2.9889 H   0  0  0  0  0  0  0  0  0  0  0  0
    5.0932   -0.2057   -0.6219 H   0  0  0  0  0  0  0  0  0  0  0  0
    6.4439   -2.3676    1.6401 H   0  0  0  0  0  0  0  0  0  0  0  0
    5.9704   -0.7628    1.3547 H   0  0  0  0  0  0  0  0  0  0  0  0
    5.4570   -1.5252    3.4681 H   0  0  0  0  0  0  0  0  0  0  0  0
    2.9244   -0.9133    3.7922 H   0  0  0  0  0  0  0  0  0  0  0  0
    2.1194   -0.4112    1.4424 H   0  0  0  0  0  0  0  0  0  0  0  0
    3.6762    0.4072    1.1048 H   0  0  0  0  0  0  0  0  0  0  0  0
    2.4088    1.0377    2.2265 H   0  0  0  0  0  0  0  0  0  0  0  0
    4.3609    1.2296    3.1625 H   0  0  0  0  0  0  0  0  0  0  0  0
    4.9836   -4.6027    4.7287 H   0  0  0  0  0  0  0  0  0  0  0  0
    5.7849   -3.0824    4.8088 H   0  0  0  0  0  0  0  0  0  0  0  0
    6.1503   -4.1920    3.4807 H   0  0  0  0  0  0  0  0  0  0  0  0
    0.7685   -2.8593    5.5509 H   0  0  0  0  0  0  0  0  0  0  0  0
    2.5007   -3.0319    5.7553 H   0  0  0  0  0  0  0  0  0  0  0  0
    1.4826   -4.4575    5.5423 H   0  0  0  0  0  0  0  0  0  0  0  0
    2.5532   -6.0585    4.0997 H   0  0  0  0  0  0  0  0  0  0  0  0
    4.8692   -6.0867    3.2227 H   0  0  0  0  0  0  0  0  0  0  0  0
    3.9988   -7.1232    2.1303 H   0  0  0  0  0  0  0  0  0  0  0  0
    7.4318   -4.7417    0.1005 H   0  0  0  0  0  0  0  0  0  0  0  0
    8.0042   -6.8089    1.1649 H   0  0  0  0  0  0  0  0  0  0  0  0
    6.5067   -6.9223    2.0331 H   0  0  0  0  0  0  0  0  0  0  0  0
    7.7491   -5.7780    2.5514 H   0  0  0  0  0  0  0  0  0  0  0  0
    5.5022   -3.8758   -1.2934 H   0  0  0  0  0  0  0  0  0  0  0  0
    2.4772   -2.4620   -0.9624 H   0  0  0  0  0  0  0  0  0  0  0  0
    1.4492   -3.7897   -0.6727 H   0  0  0  0  0  0  0  0  0  0  0  0
    2.8299   -2.0940    1.0583 H   0  0  0  0  0  0  0  0  0  0  0  0
    1.4588   -2.9856    1.5738 H   0  0  0  0  0  0  0  0  0  0  0  0
    3.8586   -6.2840   -0.2923 H   0  0  0  0  0  0  0  0  0  0  0  0
    1.1347   -5.7311    0.0910 H   0  0  0  0  0  0  0  0  0  0  0  0
    2.0181   -7.1018    0.5420 H   0  0  0  0  0  0  0  0  0  0  0  0
   -0.1734   -6.9846    1.9696 H   0  0  0  0  0  0  0  0  0  0  0  0
    0.3131   -6.6925    3.6316 H   0  0  0  0  0  0  0  0  0  0  0  0
    1.1668   -7.8913    2.6570 H   0  0  0  0  0  0  0  0  0  0  0  0
    3.4266   -4.5560   -1.6258 H   0  0  0  0  0  0  0  0  0  0  0  0
  1  2  1  0
  1 29  1  0
  1 30  1  0
  1 31  1  0
  2  3  2  3
  2 32  1  0
  3 20  1  0
  3  4  1  0
  4  5  1  0
  4 33  1  0
  4 34  1  0
  5  6  1  0
  5  9  1  0
  5 35  1  1
  6  7  1  0
  6  8  1  0
  6 36  1  1
  7 37  1  0
  7 38  1  0
  7 39  1  0
  8 40  1  0
  9 24  1  0
  9 10  1  1
  9 11  1  0
 10 41  1  0
 10 42  1  0
 10 43  1  0
 11 24  1  0
 11 12  1  6
 11 14  1  0
 12 13  1  0
 13 44  1  0
 13 45  1  0
 13 46  1  0
 14 27  1  0
 14 15  1  0
 14 47  1  1
 16 15  1  1
 15 48  1  0
 15 49  1  0
 16 24  1  0
 16 25  1  0
 16 17  1  0
 17 18  2  3
 17 20  1  0
 18 19  1  0
 18 50  1  0
 19 51  1  0
 19 52  1  0
 19 53  1  0
 20 21  1  0
 20 54  1  6
 21 22  1  0
 21 25  1  0
 21 65  1  6
 22 23  1  0
 22 55  1  0
 22 56  1  0
 24 23  1  6
 23 57  1  0
 23 58  1  0
 25 26  1  0
 25 59  1  6
 26 27  1  0
 26 60  1  0
 26 61  1  0
 27 28  1  0
 28 62  1  0
 28 63  1  0
 28 64  1  0
M  CHG  1  21   1
M  END
>  <i_m_ct_stereo_status>  (104) 
1

>  <s_m_source_file>  (104) 
/var/tmp/pbs.5076255.sched01/tmpuxvxg9lz/41q4u19exn.sdf

>  <i_m_source_file_index>  (104) 
3

>  <i_lp_mmshare_version>  (104) 
48012

>  <i_f3d_flags>  (104) 
0

>  <s_epik_input>  (104) 
W0NIM11bQ0BIXShbT0hdKVtDQEBIXTFbQ0gyXVxDKD1bQ0hdXFtDSDNdKVtDQEBIXShDXDI9W0NIXVxbQ0gzXSlOKFtDSDJdW0NIMl0zKVtDQEBIXTRbQ0gyXU4oW0NIM10pW0NAQEhdKFtDSDJdNSlbQ0BdNihbQ0BAXTEoW0NIM10pW0NAXTM2W0NAXTI0NSlPW0NIM10=

>  <s_epik_cmdline>  (104) 
J2VwaWtfcHl0aG9uJywgJy1waHQnLCAnMi4wJywgJy1waCcsICc3LjAnLCAnLXRuJywgJzgnLCAnLW1hJywgJzIwMCcsICctaW1hZScsICc8aW5maWxlLm1hZT4nLCAnLW9tYWUnLCAnPG91dGZpbGUubWFlPic=

>  <r_epik_Ionization_Penalty>  (104) 
0.0204399

>  <r_epik_Ionization_Penalty_Charging>  (104) 
0.0174143

>  <r_epik_Ionization_Penalty_Neutral>  (104) 
0.00302556

>  <r_epik_State_Penalty>  (104) 
0.382901

>  <r_epik_Charging_Adjusted_Penalty>  (104) 
0.400315

>  <i_epik_Tot_Q>  (104) 
1

>  <i_epik_Tot_abs_Q>  (104) 
1

>  <s_lp_Force_Field>  (104) 
OPLS3e

>  <r_lp_Energy>  (104) 
132.779

>  <b_lp_Chiralities_Consistent>  (104) 
1

>  <s_lp_Variant>  (104) 
30:0-1

>  <s_i_glide_gridfile>  (104) 
pfpi4k_grid

>  <i_i_glide_lignum>  (104) 
3

>  <i_i_glide_rotatable_bonds>  (104) 
3

>  <r_i_docking_score>  (104) 
-3.11798

>  <r_i_glide_ligand_efficiency>  (104) 
-0.111356

>  <r_i_glide_ligand_efficiency_sa>  (104) 
-0.338143

>  <r_i_glide_ligand_efficiency_ln>  (104) 
-0.719721

>  <r_i_glide_gscore>  (104) 
-3.11798

>  <r_i_glide_lipo>  (104) 
-0.505211

>  <r_i_glide_hbond>  (104) 
-0.228125

>  <r_i_glide_metal>  (104) 
-0

>  <r_i_glide_rewards>  (104) 
-0.780254

>  <r_i_glide_evdw>  (104) 
-17.3185

>  <r_i_glide_ecoul>  (104) 
-5.55269

>  <r_i_glide_erotb>  (104) 
0.130866

>  <r_i_glide_esite>  (104) 
-0.0364254

>  <r_i_glide_emodel>  (104) 
-25.6656

>  <r_i_glide_energy>  (104) 
-22.8712

>  <r_i_glide_einternal>  (104) 
4.2022

>  <r_i_glide_intrahb_reward>  (104) 
-0

>  <i_i_glide_confnum>  (104) 
2

>  <i_i_glide_posenum>  (104) 
14

>  <r_i_glide_eff_state_penalty>  (104) 
0

>  <ligand_id>  (104) 
30

>  <original_smiles>  (104) 
CC=C1CC(C(C)O)C2(C)C3(OC)C4CC56C(=CC)C1N(CCC523)C6CN4C

>  <smiles>  (104) 
[H]OC([H])(C([H])([H])[H])C1([H])C([H])([H])C(=C([H])C([H])([H])[H])C2([H])C(=C([H])C([H])([H])[H])C34C([H])([H])C5([H])N(C([H])([H])[H])C([H])([H])C3([H])[N+]2([H])C([H])([H])C([H])([H])C42C5(OC([H])([H])[H])C12C([H])([H])[H]

$$$$
30:0:1
     RDKit          3D

 65 70  0  0  1  0  0  0  0  0999 V2000
   -3.1212    3.4612    2.9598 C   0  0  0  0  0  0  0  0  0  0  0  0
   -2.5675    3.5741    4.3732 C   0  0  0  0  0  0  0  0  0  0  0  0
   -1.2741    3.6971    4.7369 C   0  0  0  0  0  0  0  0  0  0  0  0
   -0.9680    3.9359    6.2607 C   0  0  0  0  0  0  0  0  0  0  0  0
   -0.2988    2.8612    7.2311 C   0  0  1  0  0  0  0  0  0  0  0  0
   -1.2009    1.7802    7.9647 C   0  0  2  0  0  0  0  0  0  0  0  0
   -0.4306    0.8503    8.9144 C   0  0  0  0  0  0  0  0  0  0  0  0
   -1.9699    0.9579    7.1009 O   0  0  0  0  0  0  0  0  0  0  0  0
    1.2083    2.5582    6.9062 C   0  0  1  0  0  0  0  0  0  0  0  0
    2.0837    3.6482    7.5661 C   0  0  0  0  0  0  0  0  0  0  0  0
    2.1175    1.4129    6.2987 C   0  0  2  0  0  0  0  0  0  0  0  0
    1.8632    0.1132    6.7970 O   0  0  0  0  0  0  0  0  0  0  0  0
    2.6301   -0.2142    7.9609 C   0  0  0  0  0  0  0  0  0  0  0  0
    3.3502    1.4672    5.3747 C   0  0  2  0  0  0  0  0  0  0  0  0
    3.4016    2.9139    4.8541 C   0  0  0  0  0  0  0  0  0  0  0  0
    1.9225    3.0133    4.4487 C   0  0  2  0  0  0  0  0  0  0  0  0
    1.1731    4.2950    4.2345 C   0  0  0  0  0  0  0  0  0  0  0  0
    1.5874    5.6098    4.3015 C   0  0  0  0  0  0  0  0  0  0  0  0
    2.9399    6.1532    4.6831 C   0  0  0  0  0  0  0  0  0  0  0  0
   -0.1367    3.8213    3.6464 C   0  0  1  0  0  0  0  0  0  0  0  0
    0.2996    2.5444    2.8927 N   0  0  2  0  0  0  0  0  0  0  0  0
   -0.3077    1.2920    3.3687 C   0  0  0  0  0  0  0  0  0  0  0  0
    0.1083    1.0939    4.8336 C   0  0  0  0  0  0  0  0  0  0  0  0
    1.1755    2.0878    5.4462 C   0  0  2  0  0  0  0  0  0  0  0  0
    1.7865    2.4409    3.0641 C   0  0  2  0  0  0  0  0  0  0  0  0
    2.5787    1.0721    2.9740 C   0  0  0  0  0  0  0  0  0  0  0  0
    3.1699    0.5128    4.2377 N   0  0  0  0  0  0  0  0  0  0  0  0
    4.3245   -0.3278    3.9853 C   0  0  0  0  0  0  0  0  0  0  0  0
   -3.6982    2.5516    2.8665 H   0  0  0  0  0  0  0  0  0  0  0  0
   -2.3478    3.4522    2.1937 H   0  0  0  0  0  0  0  0  0  0  0  0
   -3.7886    4.2954    2.7434 H   0  0  0  0  0  0  0  0  0  0  0  0
   -3.3238    3.5607    5.1468 H   0  0  0  0  0  0  0  0  0  0  0  0
   -0.4009    4.8675    6.3104 H   0  0  0  0  0  0  0  0  0  0  0  0
   -1.9086    4.2165    6.7348 H   0  0  0  0  0  0  0  0  0  0  0  0
   -0.2193    3.5018    8.1066 H   0  0  0  0  0  0  0  0  0  0  0  0
   -1.9761    2.2919    8.5386 H   0  0  0  0  0  0  0  0  0  0  0  0
    0.0247    1.3960    9.7475 H   0  0  0  0  0  0  0  0  0  0  0  0
    0.3266    0.3717    8.3547 H   0  0  0  0  0  0  0  0  0  0  0  0
   -1.0259    0.0149    9.2938 H   0  0  0  0  0  0  0  0  0  0  0  0
   -2.0641    1.4132    6.2631 H   0  0  0  0  0  0  0  0  0  0  0  0
    3.1176    3.3146    7.6622 H   0  0  0  0  0  0  0  0  0  0  0  0
    1.7807    3.8852    8.5885 H   0  0  0  0  0  0  0  0  0  0  0  0
    2.0729    4.5765    6.9945 H   0  0  0  0  0  0  0  0  0  0  0  0
    2.2691   -1.1612    8.3650 H   0  0  0  0  0  0  0  0  0  0  0  0
    2.4827    0.5203    8.7524 H   0  0  0  0  0  0  0  0  0  0  0  0
    3.6952   -0.3040    7.7754 H   0  0  0  0  0  0  0  0  0  0  0  0
    4.2223    1.2098    5.9694 H   0  0  0  0  0  0  0  0  0  0  0  0
    3.6932    3.6075    5.6375 H   0  0  0  0  0  0  0  0  0  0  0  0
    4.1135    3.0407    4.0366 H   0  0  0  0  0  0  0  0  0  0  0  0
    0.8689    6.3577    4.0235 H   0  0  0  0  0  0  0  0  0  0  0  0
    3.1564    7.0343    4.0825 H   0  0  0  0  0  0  0  0  0  0  0  0
    3.7603    5.4675    4.5086 H   0  0  0  0  0  0  0  0  0  0  0  0
    2.9518    6.4707    5.7216 H   0  0  0  0  0  0  0  0  0  0  0  0
   -0.4622    4.5505    2.9050 H   0  0  0  0  0  0  0  0  0  0  0  0
   -1.3927    1.3428    3.2674 H   0  0  0  0  0  0  0  0  0  0  0  0
   -0.0234    0.4518    2.7362 H   0  0  0  0  0  0  0  0  0  0  0  0
   -0.8266    1.2504    5.2680 H   0  0  0  0  0  0  0  0  0  0  0  0
    0.3763    0.0444    4.9792 H   0  0  0  0  0  0  0  0  0  0  0  0
    2.2179    3.1155    2.3237 H   0  0  0  0  0  0  0  0  0  0  0  0
    2.0290    0.3021    2.4359 H   0  0  0  0  0  0  0  0  0  0  0  0
    3.4182    1.2947    2.3153 H   0  0  0  0  0  0  0  0  0  0  0  0
    4.0957   -1.0758    3.2275 H   0  0  0  0  0  0  0  0  0  0  0  0
    4.6283   -0.8543    4.8895 H   0  0  0  0  0  0  0  0  0  0  0  0
    5.1589    0.2742    3.6367 H   0  0  0  0  0  0  0  0  0  0  0  0
    0.0825    2.6959    1.9066 H   0  0  0  0  0  0  0  0  0  0  0  0
  1  2  1  0
  1 29  1  0
  1 30  1  0
  1 31  1  0
  2  3  2  3
  2 32  1  0
  3 20  1  0
  3  4  1  0
  4  5  1  0
  4 33  1  0
  4 34  1  0
  5  6  1  0
  5  9  1  0
  5 35  1  1
  6  7  1  0
  6  8  1  0
  6 36  1  1
  7 37  1  0
  7 38  1  0
  7 39  1  0
  8 40  1  0
  9 24  1  0
  9 10  1  6
  9 11  1  0
 10 41  1  0
 10 42  1  0
 10 43  1  0
 11 24  1  0
 11 12  1  1
 11 14  1  0
 12 13  1  0
 13 44  1  0
 13 45  1  0
 13 46  1  0
 14 27  1  0
 14 15  1  0
 14 47  1  1
 16 15  1  1
 15 48  1  0
 15 49  1  0
 16 24  1  0
 16 25  1  0
 16 17  1  0
 17 18  2  3
 17 20  1  0
 18 19  1  0
 18 50  1  0
 19 51  1  0
 19 52  1  0
 19 53  1  0
 20 21  1  0
 20 54  1  6
 21 22  1  0
 21 25  1  0
 21 65  1  6
 22 23  1  0
 22 55  1  0
 22 56  1  0
 24 23  1  6
 23 57  1  0
 23 58  1  0
 25 26  1  0
 25 59  1  6
 26 27  1  0
 26 60  1  0
 26 61  1  0
 27 28  1  0
 28 62  1  0
 28 63  1  0
 28 64  1  0
M  CHG  1  21   1
M  END
>  <i_m_ct_stereo_status>  (105) 
1

>  <s_m_source_file>  (105) 
/var/tmp/pbs.5076255.sched01/tmpuxvxg9lz/41q4u19exn.sdf

>  <i_m_source_file_index>  (105) 
3

>  <i_lp_mmshare_version>  (105) 
48012

>  <i_f3d_flags>  (105) 
0

>  <s_epik_input>  (105) 
W0NIM11bQ0BIXShbT0hdKVtDQEBIXTFbQ0gyXVxDKD1bQ0hdXFtDSDNdKVtDQEBIXShDXDI9W0NIXVxbQ0gzXSlOKFtDSDJdW0NIMl0zKVtDQEBIXTRbQ0gyXU4oW0NIM10pW0NAQEhdKFtDSDJdNSlbQ0BdNihbQ0BAXTEoW0NIM10pW0NAXTM2W0NAXTI0NSlPW0NIM10=

>  <s_epik_cmdline>  (105) 
J2VwaWtfcHl0aG9uJywgJy1waHQnLCAnMi4wJywgJy1waCcsICc3LjAnLCAnLXRuJywgJzgnLCAnLW1hJywgJzIwMCcsICctaW1hZScsICc8aW5maWxlLm1hZT4nLCAnLW9tYWUnLCAnPG91dGZpbGUubWFlPic=

>  <r_epik_Ionization_Penalty>  (105) 
0.0204399

>  <r_epik_Ionization_Penalty_Charging>  (105) 
0.0174143

>  <r_epik_Ionization_Penalty_Neutral>  (105) 
0.00302556

>  <r_epik_State_Penalty>  (105) 
0.382901

>  <r_epik_Charging_Adjusted_Penalty>  (105) 
0.400315

>  <i_epik_Tot_Q>  (105) 
1

>  <i_epik_Tot_abs_Q>  (105) 
1

>  <s_lp_Force_Field>  (105) 
OPLS3e

>  <r_lp_Energy>  (105) 
132.779

>  <b_lp_Chiralities_Consistent>  (105) 
1

>  <s_lp_Variant>  (105) 
30:0-1

>  <s_i_glide_gridfile>  (105) 
pfpi4k_grid

>  <i_i_glide_lignum>  (105) 
3

>  <i_i_glide_rotatable_bonds>  (105) 
3

>  <r_i_docking_score>  (105) 
-3.02799

>  <r_i_glide_ligand_efficiency>  (105) 
-0.108143

>  <r_i_glide_ligand_efficiency_sa>  (105) 
-0.328385

>  <r_i_glide_ligand_efficiency_ln>  (105) 
-0.69895

>  <r_i_glide_gscore>  (105) 
-3.02799

>  <r_i_glide_lipo>  (105) 
-0.0319421

>  <r_i_glide_hbond>  (105) 
-0.293985

>  <r_i_glide_metal>  (105) 
-0

>  <r_i_glide_rewards>  (105) 
-0.780254

>  <r_i_glide_evdw>  (105) 
-15.1012

>  <r_i_glide_ecoul>  (105) 
-7.98413

>  <r_i_glide_erotb>  (105) 
0.130866

>  <r_i_glide_esite>  (105) 
-0.1

>  <r_i_glide_emodel>  (105) 
-25.2849

>  <r_i_glide_energy>  (105) 
-23.0853

>  <r_i_glide_einternal>  (105) 
4.14794

>  <r_i_glide_intrahb_reward>  (105) 
-0

>  <i_i_glide_confnum>  (105) 
3

>  <i_i_glide_posenum>  (105) 
25

>  <r_i_glide_eff_state_penalty>  (105) 
0

>  <ligand_id>  (105) 
30

>  <original_smiles>  (105) 
CC=C1CC(C(C)O)C2(C)C3(OC)C4CC56C(=CC)C1N(CCC523)C6CN4C

>  <smiles>  (105) 
[H]OC([H])(C([H])([H])[H])C1([H])C([H])([H])C(=C([H])C([H])([H])[H])C2([H])C(=C([H])C([H])([H])[H])C34C([H])([H])C5([H])N(C([H])([H])[H])C([H])([H])C3([H])[N+]2([H])C([H])([H])C([H])([H])C42C5(OC([H])([H])[H])C12C([H])([H])[H]

$$$$
30:0:2
     RDKit          3D

 65 70  0  0  1  0  0  0  0  0999 V2000
    2.8419   -2.2567   -3.4086 C   0  0  0  0  0  0  0  0  0  0  0  0
    3.1703   -1.5156   -2.1277 C   0  0  0  0  0  0  0  0  0  0  0  0
    4.0245   -1.8738   -1.1424 C   0  0  0  0  0  0  0  0  0  0  0  0
    4.2833   -0.8687    0.0298 C   0  0  0  0  0  0  0  0  0  0  0  0
    3.7858   -1.0345    1.5448 C   0  0  1  0  0  0  0  0  0  0  0  0
    2.3132   -0.7011    1.9731 C   0  0  2  0  0  0  0  0  0  0  0  0
    1.8302    0.6930    1.5648 C   0  0  0  0  0  0  0  0  0  0  0  0
    2.2057   -0.7345    3.3814 O   0  0  0  0  0  0  0  0  0  0  0  0
    4.4620   -2.2042    2.3012 C   0  0  1  0  0  0  0  0  0  0  0  0
    5.7823   -1.7004    2.8492 C   0  0  0  0  0  0  0  0  0  0  0  0
    4.1402   -3.6597    2.8292 C   0  0  2  0  0  0  0  0  0  0  0  0
    2.8952   -3.6968    3.5011 O   0  0  0  0  0  0  0  0  0  0  0  0
    3.0141   -3.5041    4.9053 C   0  0  0  0  0  0  0  0  0  0  0  0
    4.9813   -4.9556    2.8822 C   0  0  2  0  0  0  0  0  0  0  0  0
    6.1985   -4.6777    1.9781 C   0  0  0  0  0  0  0  0  0  0  0  0
    5.4192   -4.0951    0.8023 C   0  0  2  0  0  0  0  0  0  0  0  0
    6.0022   -3.2265   -0.2803 C   0  0  0  0  0  0  0  0  0  0  0  0
    7.2712   -2.8134   -0.5221 C   0  0  0  0  0  0  0  0  0  0  0  0
    8.5209   -2.9870    0.3163 C   0  0  0  0  0  0  0  0  0  0  0  0
    4.8929   -3.1702   -1.2995 C   0  0  1  0  0  0  0  0  0  0  0  0
    4.2182   -4.4970   -1.0456 N   0  0  2  0  0  0  0  0  0  0  0  0
    2.8280   -4.4176   -0.6112 C   0  0  0  0  0  0  0  0  0  0  0  0
    2.7869   -3.7371    0.7430 C   0  0  0  0  0  0  0  0  0  0  0  0
    4.1757   -3.4153    1.4160 C   0  0  2  0  0  0  0  0  0  0  0  0
    4.9848   -5.2462   -0.0268 C   0  0  2  0  0  0  0  0  0  0  0  0
    4.4010   -6.3965    0.8813 C   0  0  0  0  0  0  0  0  0  0  0  0
    4.1876   -6.0999    2.3378 N   0  0  0  0  0  0  0  0  0  0  0  0
    4.2991   -7.3022    3.1575 C   0  0  0  0  0  0  0  0  0  0  0  0
    1.7702   -2.4547   -3.4488 H   0  0  0  0  0  0  0  0  0  0  0  0
    3.3565   -3.2131   -3.5045 H   0  0  0  0  0  0  0  0  0  0  0  0
    3.0899   -1.6362   -4.2711 H   0  0  0  0  0  0  0  0  0  0  0  0
    2.6153   -0.5971   -2.0268 H   0  0  0  0  0  0  0  0  0  0  0  0
    5.3598   -0.6898    0.0442 H   0  0  0  0  0  0  0  0  0  0  0  0
    3.9197    0.1019   -0.2890 H   0  0  0  0  0  0  0  0  0  0  0  0
    4.2609   -0.1461    1.9637 H   0  0  0  0  0  0  0  0  0  0  0  0
    1.5497   -1.3791    1.6142 H   0  0  0  0  0  0  0  0  0  0  0  0
    1.7539    0.7579    0.4814 H   0  0  0  0  0  0  0  0  0  0  0  0
    2.4798    1.4937    1.9311 H   0  0  0  0  0  0  0  0  0  0  0  0
    0.8251    0.8792    1.9536 H   0  0  0  0  0  0  0  0  0  0  0  0
    2.7885   -0.0899    3.7518 H   0  0  0  0  0  0  0  0  0  0  0  0
    6.0907   -2.3759    3.6385 H   0  0  0  0  0  0  0  0  0  0  0  0
    5.7058   -0.7190    3.3215 H   0  0  0  0  0  0  0  0  0  0  0  0
    6.5412   -1.6553    2.0684 H   0  0  0  0  0  0  0  0  0  0  0  0
    2.0277   -3.5273    5.3695 H   0  0  0  0  0  0  0  0  0  0  0  0
    3.4631   -2.5402    5.1537 H   0  0  0  0  0  0  0  0  0  0  0  0
    3.6081   -4.2913    5.3701 H   0  0  0  0  0  0  0  0  0  0  0  0
    5.2789   -5.1299    3.9158 H   0  0  0  0  0  0  0  0  0  0  0  0
    6.8505   -3.9479    2.4088 H   0  0  0  0  0  0  0  0  0  0  0  0
    6.8010   -5.5620    1.7537 H   0  0  0  0  0  0  0  0  0  0  0  0
    7.4534   -2.2729   -1.4355 H   0  0  0  0  0  0  0  0  0  0  0  0
    9.3855   -3.1161   -0.3380 H   0  0  0  0  0  0  0  0  0  0  0  0
    8.4920   -3.8492    0.9827 H   0  0  0  0  0  0  0  0  0  0  0  0
    8.7095   -2.0681    0.8693 H   0  0  0  0  0  0  0  0  0  0  0  0
    5.3334   -3.1687   -2.2956 H   0  0  0  0  0  0  0  0  0  0  0  0
    2.1998   -3.9213   -1.3434 H   0  0  0  0  0  0  0  0  0  0  0  0
    2.3849   -5.4026   -0.5293 H   0  0  0  0  0  0  0  0  0  0  0  0
    2.2420   -2.8416    0.5047 H   0  0  0  0  0  0  0  0  0  0  0  0
    2.1425   -4.3251    1.4002 H   0  0  0  0  0  0  0  0  0  0  0  0
    5.8210   -5.6777   -0.5568 H   0  0  0  0  0  0  0  0  0  0  0  0
    3.5108   -6.8521    0.4628 H   0  0  0  0  0  0  0  0  0  0  0  0
    5.1410   -7.2000    0.8185 H   0  0  0  0  0  0  0  0  0  0  0  0
    3.6370   -8.0822    2.7780 H   0  0  0  0  0  0  0  0  0  0  0  0
    4.0088   -7.0976    4.1908 H   0  0  0  0  0  0  0  0  0  0  0  0
    5.3190   -7.6947    3.1586 H   0  0  0  0  0  0  0  0  0  0  0  0
    4.1573   -5.0419   -1.8930 H   0  0  0  0  0  0  0  0  0  0  0  0
  1  2  1  0
  1 29  1  0
  1 30  1  0
  1 31  1  0
  2  3  2  3
  2 32  1  0
  3 20  1  0
  3  4  1  0
  4  5  1  0
  4 33  1  0
  4 34  1  0
  5  6  1  0
  5  9  1  0
  5 35  1  1
  6  7  1  0
  6  8  1  0
  6 36  1  6
  7 37  1  0
  7 38  1  0
  7 39  1  0
  8 40  1  0
  9 24  1  0
  9 10  1  6
  9 11  1  0
 10 41  1  0
 10 42  1  0
 10 43  1  0
 11 24  1  0
 11 12  1  1
 11 14  1  0
 12 13  1  0
 13 44  1  0
 13 45  1  0
 13 46  1  0
 14 27  1  0
 14 15  1  0
 14 47  1  1
 16 15  1  1
 15 48  1  0
 15 49  1  0
 16 24  1  0
 16 25  1  0
 16 17  1  0
 17 18  2  3
 17 20  1  0
 18 19  1  0
 18 50  1  0
 19 51  1  0
 19 52  1  0
 19 53  1  0
 20 21  1  0
 20 54  1  6
 21 22  1  0
 21 25  1  0
 21 65  1  6
 22 23  1  0
 22 55  1  0
 22 56  1  0
 24 23  1  6
 23 57  1  0
 23 58  1  0
 25 26  1  0
 25 59  1  6
 26 27  1  0
 26 60  1  0
 26 61  1  0
 27 28  1  0
 28 62  1  0
 28 63  1  0
 28 64  1  0
M  CHG  1  21   1
M  END
>  <i_m_ct_stereo_status>  (106) 
1

>  <s_m_source_file>  (106) 
/var/tmp/pbs.5076255.sched01/tmpuxvxg9lz/41q4u19exn.sdf

>  <i_m_source_file_index>  (106) 
3

>  <i_lp_mmshare_version>  (106) 
48012

>  <i_f3d_flags>  (106) 
0

>  <s_epik_input>  (106) 
W0NIM11bQ0BIXShbT0hdKVtDQEBIXTFbQ0gyXVxDKD1bQ0hdXFtDSDNdKVtDQEBIXShDXDI9W0NIXVxbQ0gzXSlOKFtDSDJdW0NIMl0zKVtDQEBIXTRbQ0gyXU4oW0NIM10pW0NAQEhdKFtDSDJdNSlbQ0BdNihbQ0BAXTEoW0NIM10pW0NAXTM2W0NAXTI0NSlPW0NIM10=

>  <s_epik_cmdline>  (106) 
J2VwaWtfcHl0aG9uJywgJy1waHQnLCAnMi4wJywgJy1waCcsICc3LjAnLCAnLXRuJywgJzgnLCAnLW1hJywgJzIwMCcsICctaW1hZScsICc8aW5maWxlLm1hZT4nLCAnLW9tYWUnLCAnPG91dGZpbGUubWFlPic=

>  <r_epik_Ionization_Penalty>  (106) 
0.0204399

>  <r_epik_Ionization_Penalty_Charging>  (106) 
0.0174143

>  <r_epik_Ionization_Penalty_Neutral>  (106) 
0.00302556

>  <r_epik_State_Penalty>  (106) 
0.382901

>  <r_epik_Charging_Adjusted_Penalty>  (106) 
0.400315

>  <i_epik_Tot_Q>  (106) 
1

>  <i_epik_Tot_abs_Q>  (106) 
1

>  <s_lp_Force_Field>  (106) 
OPLS3e

>  <r_lp_Energy>  (106) 
132.779

>  <b_lp_Chiralities_Consistent>  (106) 
1

>  <s_lp_Variant>  (106) 
30:0-1

>  <s_i_glide_gridfile>  (106) 
pfpi4k_grid

>  <i_i_glide_lignum>  (106) 
3

>  <i_i_glide_rotatable_bonds>  (106) 
3

>  <r_i_docking_score>  (106) 
-2.86496

>  <r_i_glide_ligand_efficiency>  (106) 
-0.10232

>  <r_i_glide_ligand_efficiency_sa>  (106) 
-0.310704

>  <r_i_glide_ligand_efficiency_ln>  (106) 
-0.661317

>  <r_i_glide_gscore>  (106) 
-2.86496

>  <r_i_glide_lipo>  (106) 
-0.762172

>  <r_i_glide_hbond>  (106) 
0

>  <r_i_glide_metal>  (106) 
-0

>  <r_i_glide_rewards>  (106) 
-0.780254

>  <r_i_glide_evdw>  (106) 
-16.1329

>  <r_i_glide_ecoul>  (106) 
-4.03217

>  <r_i_glide_erotb>  (106) 
0.130866

>  <r_i_glide_esite>  (106) 
-0.0419308

>  <r_i_glide_emodel>  (106) 
-25.4319

>  <r_i_glide_energy>  (106) 
-20.1651

>  <r_i_glide_einternal>  (106) 
0.349035

>  <r_i_glide_intrahb_reward>  (106) 
-0

>  <i_i_glide_confnum>  (106) 
2

>  <i_i_glide_posenum>  (106) 
32

>  <r_i_glide_eff_state_penalty>  (106) 
0

>  <ligand_id>  (106) 
30

>  <original_smiles>  (106) 
CC=C1CC(C(C)O)C2(C)C3(OC)C4CC56C(=CC)C1N(CCC523)C6CN4C

>  <smiles>  (106) 
[H]OC([H])(C([H])([H])[H])C1([H])C([H])([H])C(=C([H])C([H])([H])[H])C2([H])C(=C([H])C([H])([H])[H])C34C([H])([H])C5([H])N(C([H])([H])[H])C([H])([H])C3([H])[N+]2([H])C([H])([H])C([H])([H])C42C5(OC([H])([H])[H])C12C([H])([H])[H]

$$$$
30:1:0
     RDKit          3D

 65 70  0  0  1  0  0  0  0  0999 V2000
    3.6388   -1.0203   -2.7180 C   0  0  0  0  0  0  0  0  0  0  0  0
    4.1278   -2.3677   -2.2006 C   0  0  0  0  0  0  0  0  0  0  0  0
    4.6747   -2.6615   -0.9973 C   0  0  0  0  0  0  0  0  0  0  0  0
    5.0240   -1.5729    0.0490 C   0  0  0  0  0  0  0  0  0  0  0  0
    4.1818   -1.3446    1.3811 C   0  0  1  0  0  0  0  0  0  0  0  0
    2.8118   -0.6282    1.2383 C   0  0  2  0  0  0  0  0  0  0  0  0
    2.7499    0.8047    1.7687 C   0  0  0  0  0  0  0  0  0  0  0  0
    1.7078   -1.2002    1.9008 O   0  0  0  0  0  0  0  0  0  0  0  0
    4.3747   -2.4271    2.4774 C   0  0  1  0  0  0  0  0  0  0  0  0
    5.6875   -2.1347    3.1479 C   0  0  0  0  0  0  0  0  0  0  0  0
    3.6491   -3.6673    3.1417 C   0  0  2  0  0  0  0  0  0  0  0  0
    2.3498   -3.3004    3.5465 O   0  0  0  0  0  0  0  0  0  0  0  0
    2.3202   -2.8441    4.8851 C   0  0  0  0  0  0  0  0  0  0  0  0
    4.1346   -5.0818    3.5404 C   0  0  2  0  0  0  0  0  0  0  0  0
    5.5168   -5.2578    2.8761 C   0  0  0  0  0  0  0  0  0  0  0  0
    5.1038   -4.7478    1.4971 C   0  0  2  0  0  0  0  0  0  0  0  0
    6.0554   -4.2576    0.4412 C   0  0  0  0  0  0  0  0  0  0  0  0
    7.4144   -4.2236    0.3875 C   0  0  0  0  0  0  0  0  0  0  0  0
    8.4156   -4.6265    1.4481 C   0  0  0  0  0  0  0  0  0  0  0  0
    5.1708   -4.1261   -0.7768 C   0  0  1  0  0  0  0  0  0  0  0  0
    4.1481   -5.1739   -0.4676 N   0  0  2  0  0  0  0  0  0  0  0  0
    2.7593   -4.6769   -0.3653 C   0  0  0  0  0  0  0  0  0  0  0  0
    2.6341   -3.9072    0.9279 C   0  0  0  0  0  0  0  0  0  0  0  0
    3.9584   -3.7030    1.7427 C   0  0  2  0  0  0  0  0  0  0  0  0
    4.5217   -5.9033    0.7535 C   0  0  2  0  0  0  0  0  0  0  0  0
    3.5157   -6.7004    1.6715 C   0  0  0  0  0  0  0  0  0  0  0  0
    3.1991   -6.1330    3.0274 N   0  0  0  0  0  0  0  0  0  0  0  0
    2.8972   -7.1709    4.0077 C   0  0  0  0  0  0  0  0  0  0  0  0
    2.6292   -1.1336   -3.1202 H   0  0  0  0  0  0  0  0  0  0  0  0
    4.2874   -0.6512   -3.5136 H   0  0  0  0  0  0  0  0  0  0  0  0
    3.6055   -0.2621   -1.9472 H   0  0  0  0  0  0  0  0  0  0  0  0
    3.9953   -3.1667   -2.9138 H   0  0  0  0  0  0  0  0  0  0  0  0
    6.0723   -1.6940    0.3107 H   0  0  0  0  0  0  0  0  0  0  0  0
    5.0629   -0.6157   -0.4594 H   0  0  0  0  0  0  0  0  0  0  0  0
    4.7730   -0.5061    1.7487 H   0  0  0  0  0  0  0  0  0  0  0  0
    2.7219   -0.5774    0.1548 H   0  0  0  0  0  0  0  0  0  0  0  0
    3.5442    1.3915    1.3289 H   0  0  0  0  0  0  0  0  0  0  0  0
    2.8478    0.8150    2.8538 H   0  0  0  0  0  0  0  0  0  0  0  0
    1.7961    1.2713    1.5167 H   0  0  0  0  0  0  0  0  0  0  0  0
    1.9934   -1.4929    2.7532 H   0  0  0  0  0  0  0  0  0  0  0  0
    5.7479   -2.6883    4.0849 H   0  0  0  0  0  0  0  0  0  0  0  0
    5.7802   -1.0769    3.4330 H   0  0  0  0  0  0  0  0  0  0  0  0
    6.4884   -2.3977    2.4676 H   0  0  0  0  0  0  0  0  0  0  0  0
    1.2963   -2.5800    5.1400 H   0  0  0  0  0  0  0  0  0  0  0  0
    2.9369   -1.9573    5.0402 H   0  0  0  0  0  0  0  0  0  0  0  0
    2.6409   -3.6163    5.5824 H   0  0  0  0  0  0  0  0  0  0  0  0
    4.2086   -5.1305    4.6254 H   0  0  0  0  0  0  0  0  0  0  0  0
    6.2566   -4.6326    3.3521 H   0  0  0  0  0  0  0  0  0  0  0  0
    5.8970   -6.2889    2.8800 H   0  0  0  0  0  0  0  0  0  0  0  0
    7.8492   -3.8820   -0.5422 H   0  0  0  0  0  0  0  0  0  0  0  0
    9.3037   -5.0549    0.9879 H   0  0  0  0  0  0  0  0  0  0  0  0
    8.0317   -5.3126    2.2017 H   0  0  0  0  0  0  0  0  0  0  0  0
    8.7997   -3.7425    1.9258 H   0  0  0  0  0  0  0  0  0  0  0  0
    5.7352   -4.4087   -1.6662 H   0  0  0  0  0  0  0  0  0  0  0  0
    2.4982   -4.0774   -1.2107 H   0  0  0  0  0  0  0  0  0  0  0  0
    2.0980   -5.5251   -0.4069 H   0  0  0  0  0  0  0  0  0  0  0  0
    2.1633   -2.9901    0.6241 H   0  0  0  0  0  0  0  0  0  0  0  0
    1.9273   -4.5090    1.5251 H   0  0  0  0  0  0  0  0  0  0  0  0
    5.3138   -6.6058    0.4736 H   0  0  0  0  0  0  0  0  0  0  0  0
    2.5932   -6.9306    1.1409 H   0  0  0  0  0  0  0  0  0  0  0  0
    3.9675   -7.6807    1.8256 H   0  0  0  0  0  0  0  0  0  0  0  0
    2.1228   -7.8440    3.6300 H   0  0  0  0  0  0  0  0  0  0  0  0
    2.5365   -6.7371    4.9452 H   0  0  0  0  0  0  0  0  0  0  0  0
    3.7931   -7.7577    4.2175 H   0  0  0  0  0  0  0  0  0  0  0  0
    4.0870   -5.8220   -1.2626 H   0  0  0  0  0  0  0  0  0  0  0  0
  1  2  1  0
  1 29  1  0
  1 30  1  0
  1 31  1  0
  2  3  2  3
  2 32  1  0
  3 20  1  0
  3  4  1  0
  4  5  1  0
  4 33  1  0
  4 34  1  0
  5  6  1  0
  5  9  1  0
  5 35  1  1
  6  7  1  0
  6  8  1  0
  6 36  1  6
  7 37  1  0
  7 38  1  0
  7 39  1  0
  8 40  1  0
  9 24  1  0
  9 10  1  1
  9 11  1  0
 10 41  1  0
 10 42  1  0
 10 43  1  0
 11 24  1  0
 11 12  1  6
 11 14  1  0
 12 13  1  0
 13 44  1  0
 13 45  1  0
 13 46  1  0
 14 27  1  0
 14 15  1  0
 14 47  1  1
 16 15  1  1
 15 48  1  0
 15 49  1  0
 16 24  1  0
 16 25  1  0
 16 17  1  0
 17 18  2  3
 17 20  1  0
 18 19  1  0
 18 50  1  0
 19 51  1  0
 19 52  1  0
 19 53  1  0
 20 21  1  0
 20 54  1  6
 21 22  1  0
 21 25  1  0
 21 65  1  6
 22 23  1  0
 22 55  1  0
 22 56  1  0
 24 23  1  6
 23 57  1  0
 23 58  1  0
 25 26  1  0
 25 59  1  6
 26 27  1  0
 26 60  1  0
 26 61  1  0
 27 28  1  0
 28 62  1  0
 28 63  1  0
 28 64  1  0
M  CHG  1  21   1
M  END
>  <i_m_ct_stereo_status>  (107) 
1

>  <s_m_source_file>  (107) 
/var/tmp/pbs.5076255.sched01/tmpuxvxg9lz/41q4u19exn.sdf

>  <i_m_source_file_index>  (107) 
4

>  <i_lp_mmshare_version>  (107) 
48012

>  <i_f3d_flags>  (107) 
0

>  <s_epik_input>  (107) 
W0NIM11bQ0BIXShbT0hdKVtDQEBIXTFbQ0gyXVxDKD1bQ0hdXFtDSDNdKVtDQEBIXShDXDI9W0NIXVxbQ0gzXSlOKFtDSDJdW0NIMl0zKVtDQEBIXTRbQ0gyXU4oW0NIM10pW0NAQEhdKFtDSDJdNSlbQ0BdNihbQ0BAXTEoW0NIM10pW0NAXTM2W0NAXTI0NSlPW0NIM10=

>  <s_epik_cmdline>  (107) 
J2VwaWtfcHl0aG9uJywgJy1waHQnLCAnMi4wJywgJy1waCcsICc3LjAnLCAnLXRuJywgJzgnLCAnLW1hJywgJzIwMCcsICctaW1hZScsICc8aW5maWxlLm1hZT4nLCAnLW9tYWUnLCAnPG91dGZpbGUubWFlPic=

>  <r_epik_Ionization_Penalty>  (107) 
0.0204399

>  <r_epik_Ionization_Penalty_Charging>  (107) 
0.0174143

>  <r_epik_Ionization_Penalty_Neutral>  (107) 
0.00302556

>  <r_epik_State_Penalty>  (107) 
0.382901

>  <r_epik_Charging_Adjusted_Penalty>  (107) 
0.400315

>  <i_epik_Tot_Q>  (107) 
1

>  <i_epik_Tot_abs_Q>  (107) 
1

>  <s_lp_Force_Field>  (107) 
OPLS3e

>  <r_lp_Energy>  (107) 
132.026

>  <b_lp_Chiralities_Consistent>  (107) 
1

>  <s_lp_Variant>  (107) 
30:0-2

>  <s_i_glide_gridfile>  (107) 
pfpi4k_grid

>  <i_i_glide_lignum>  (107) 
4

>  <i_i_glide_rotatable_bonds>  (107) 
3

>  <r_i_docking_score>  (107) 
-2.90427

>  <r_i_glide_ligand_efficiency>  (107) 
-0.103724

>  <r_i_glide_ligand_efficiency_sa>  (107) 
-0.314967

>  <r_i_glide_ligand_efficiency_ln>  (107) 
-0.67039

>  <r_i_glide_gscore>  (107) 
-2.90427

>  <r_i_glide_lipo>  (107) 
-0.65463

>  <r_i_glide_hbond>  (107) 
0

>  <r_i_glide_metal>  (107) 
-0

>  <r_i_glide_rewards>  (107) 
-1.28025

>  <r_i_glide_evdw>  (107) 
-14.9718

>  <r_i_glide_ecoul>  (107) 
-2.02991

>  <r_i_glide_erotb>  (107) 
0.130866

>  <r_i_glide_esite>  (107) 
-0.0471748

>  <r_i_glide_emodel>  (107) 
-22.6606

>  <r_i_glide_energy>  (107) 
-17.0017

>  <r_i_glide_einternal>  (107) 
5.20538

>  <r_i_glide_intrahb_reward>  (107) 
-0.5

>  <i_i_glide_confnum>  (107) 
4

>  <i_i_glide_posenum>  (107) 
14

>  <r_i_glide_eff_state_penalty>  (107) 
0

>  <ligand_id>  (107) 
30

>  <original_smiles>  (107) 
CC=C1CC(C(C)O)C2(C)C3(OC)C4CC56C(=CC)C1N(CCC523)C6CN4C

>  <smiles>  (107) 
[H]OC([H])(C([H])([H])[H])C1([H])C([H])([H])C(=C([H])C([H])([H])[H])C2([H])C(=C([H])C([H])([H])[H])C34C([H])([H])C5([H])N(C([H])([H])[H])C([H])([H])C3([H])[N+]2([H])C([H])([H])C([H])([H])C42C5(OC([H])([H])[H])C12C([H])([H])[H]

$$$$
30:1:1
     RDKit          3D

 65 70  0  0  1  0  0  0  0  0999 V2000
    4.9393   -0.8860   -1.0349 C   0  0  0  0  0  0  0  0  0  0  0  0
    5.0244   -2.3866   -0.8629 C   0  0  0  0  0  0  0  0  0  0  0  0
    5.1969   -3.1003    0.2733 C   0  0  0  0  0  0  0  0  0  0  0  0
    5.4941   -2.4185    1.6454 C   0  0  0  0  0  0  0  0  0  0  0  0
    4.3989   -2.3041    2.7678 C   0  0  1  0  0  0  0  0  0  0  0  0
    3.2959   -1.2037    2.5261 C   0  0  2  0  0  0  0  0  0  0  0  0
    2.1617   -1.1707    3.5795 C   0  0  0  0  0  0  0  0  0  0  0  0
    2.8058   -1.1444    1.2119 O   0  0  0  0  0  0  0  0  0  0  0  0
    4.1038   -3.6532    3.5376 C   0  0  1  0  0  0  0  0  0  0  0  0
    5.2340   -3.8685    4.5567 C   0  0  0  0  0  0  0  0  0  0  0  0
    3.0270   -4.8209    3.6935 C   0  0  2  0  0  0  0  0  0  0  0  0
    1.7068   -4.3403    3.9377 O   0  0  0  0  0  0  0  0  0  0  0  0
    1.4017   -4.2431    5.3198 C   0  0  0  0  0  0  0  0  0  0  0  0
    3.1241   -6.3552    3.7434 C   0  0  2  0  0  0  0  0  0  0  0  0
    4.5678   -6.6807    3.3155 C   0  0  0  0  0  0  0  0  0  0  0  0
    4.5809   -5.7704    2.0842 C   0  0  2  0  0  0  0  0  0  0  0  0
    5.8425   -5.3006    1.4064 C   0  0  0  0  0  0  0  0  0  0  0  0
    7.1461   -5.5618    1.6681 C   0  0  0  0  0  0  0  0  0  0  0  0
    7.7548   -6.3685    2.7888 C   0  0  0  0  0  0  0  0  0  0  0  0
    5.3239   -4.6533    0.1377 C   0  0  1  0  0  0  0  0  0  0  0  0
    4.0365   -5.4445   -0.1037 N   0  0  2  0  0  0  0  0  0  0  0  0
    2.8126   -4.6394   -0.0622 C   0  0  0  0  0  0  0  0  0  0  0  0
    2.4734   -4.2775    1.3876 C   0  0  0  0  0  0  0  0  0  0  0  0
    3.6243   -4.5765    2.4224 C   0  0  2  0  0  0  0  0  0  0  0  0
    3.9801   -6.5218    0.9452 C   0  0  2  0  0  0  0  0  0  0  0  0
    2.6555   -7.2494    1.4066 C   0  0  0  0  0  0  0  0  0  0  0  0
    2.1505   -6.9819    2.7948 N   0  0  0  0  0  0  0  0  0  0  0  0
    1.4088   -8.0901    3.3472 C   0  0  0  0  0  0  0  0  0  0  0  0
    4.0676   -0.6571   -1.6453 H   0  0  0  0  0  0  0  0  0  0  0  0
    5.8110   -0.5050   -1.5473 H   0  0  0  0  0  0  0  0  0  0  0  0
    4.8229   -0.3333   -0.1024 H   0  0  0  0  0  0  0  0  0  0  0  0
    4.9243   -2.9355   -1.7964 H   0  0  0  0  0  0  0  0  0  0  0  0
    6.3986   -2.8629    2.0576 H   0  0  0  0  0  0  0  0  0  0  0  0
    5.8406   -1.4117    1.4428 H   0  0  0  0  0  0  0  0  0  0  0  0
    4.9556   -1.7377    3.5141 H   0  0  0  0  0  0  0  0  0  0  0  0
    3.8000   -0.2342    2.6170 H   0  0  0  0  0  0  0  0  0  0  0  0
    2.5731   -1.0420    4.5957 H   0  0  0  0  0  0  0  0  0  0  0  0
    1.5576   -2.0686    3.5510 H   0  0  0  0  0  0  0  0  0  0  0  0
    1.4502   -0.3531    3.3948 H   0  0  0  0  0  0  0  0  0  0  0  0
    1.9530   -0.7462    1.1874 H   0  0  0  0  0  0  0  0  0  0  0  0
    4.9319   -4.6151    5.2899 H   0  0  0  0  0  0  0  0  0  0  0  0
    5.4774   -2.9722    5.1314 H   0  0  0  0  0  0  0  0  0  0  0  0
    6.1299   -4.2420    4.0658 H   0  0  0  0  0  0  0  0  0  0  0  0
    0.4303   -3.7719    5.4482 H   0  0  0  0  0  0  0  0  0  0  0  0
    2.1148   -3.6345    5.8752 H   0  0  0  0  0  0  0  0  0  0  0  0
    1.3423   -5.2206    5.7949 H   0  0  0  0  0  0  0  0  0  0  0  0
    2.9128   -6.6612    4.7644 H   0  0  0  0  0  0  0  0  0  0  0  0
    5.2658   -6.3746    4.0812 H   0  0  0  0  0  0  0  0  0  0  0  0
    4.7182   -7.7433    3.1124 H   0  0  0  0  0  0  0  0  0  0  0  0
    7.8651   -5.1653    0.9777 H   0  0  0  0  0  0  0  0  0  0  0  0
    8.6504   -6.8763    2.4349 H   0  0  0  0  0  0  0  0  0  0  0  0
    7.1111   -7.1500    3.1741 H   0  0  0  0  0  0  0  0  0  0  0  0
    8.0659   -5.7273    3.6031 H   0  0  0  0  0  0  0  0  0  0  0  0
    6.0228   -4.8619   -0.6799 H   0  0  0  0  0  0  0  0  0  0  0  0
    2.8642   -3.7833   -0.7369 H   0  0  0  0  0  0  0  0  0  0  0  0
    2.0101   -5.2456   -0.5100 H   0  0  0  0  0  0  0  0  0  0  0  0
    2.0441   -3.3008    1.4714 H   0  0  0  0  0  0  0  0  0  0  0  0
    1.6336   -4.9363    1.6208 H   0  0  0  0  0  0  0  0  0  0  0  0
    4.6658   -7.3084    0.6075 H   0  0  0  0  0  0  0  0  0  0  0  0
    1.8492   -7.0939    0.6848 H   0  0  0  0  0  0  0  0  0  0  0  0
    2.8724   -8.3143    1.3384 H   0  0  0  0  0  0  0  0  0  0  0  0
    0.6404   -8.4276    2.6500 H   0  0  0  0  0  0  0  0  0  0  0  0
    0.9156   -7.8119    4.2770 H   0  0  0  0  0  0  0  0  0  0  0  0
    2.0769   -8.9198    3.5433 H   0  0  0  0  0  0  0  0  0  0  0  0
    4.0775   -5.8637   -1.0416 H   0  0  0  0  0  0  0  0  0  0  0  0
  1  2  1  0
  1 29  1  0
  1 30  1  0
  1 31  1  0
  2  3  2  3
  2 32  1  0
  3 20  1  0
  3  4  1  0
  4  5  1  0
  4 33  1  0
  4 34  1  0
  5  6  1  0
  5  9  1  0
  5 35  1  1
  6  7  1  0
  6  8  1  0
  6 36  1  1
  7 37  1  0
  7 38  1  0
  7 39  1  0
  8 40  1  0
  9 24  1  0
  9 10  1  1
  9 11  1  0
 10 41  1  0
 10 42  1  0
 10 43  1  0
 11 24  1  0
 11 12  1  6
 11 14  1  0
 12 13  1  0
 13 44  1  0
 13 45  1  0
 13 46  1  0
 14 27  1  0
 14 15  1  0
 14 47  1  1
 16 15  1  1
 15 48  1  0
 15 49  1  0
 16 24  1  0
 16 25  1  0
 16 17  1  0
 17 18  2  3
 17 20  1  0
 18 19  1  0
 18 50  1  0
 19 51  1  0
 19 52  1  0
 19 53  1  0
 20 21  1  0
 20 54  1  6
 21 22  1  0
 21 25  1  0
 21 65  1  6
 22 23  1  0
 22 55  1  0
 22 56  1  0
 24 23  1  6
 23 57  1  0
 23 58  1  0
 25 26  1  0
 25 59  1  6
 26 27  1  0
 26 60  1  0
 26 61  1  0
 27 28  1  0
 28 62  1  0
 28 63  1  0
 28 64  1  0
M  CHG  1  21   1
M  END
>  <i_m_ct_stereo_status>  (108) 
1

>  <s_m_source_file>  (108) 
/var/tmp/pbs.5076255.sched01/tmpuxvxg9lz/41q4u19exn.sdf

>  <i_m_source_file_index>  (108) 
4

>  <i_lp_mmshare_version>  (108) 
48012

>  <i_f3d_flags>  (108) 
0

>  <s_epik_input>  (108) 
W0NIM11bQ0BIXShbT0hdKVtDQEBIXTFbQ0gyXVxDKD1bQ0hdXFtDSDNdKVtDQEBIXShDXDI9W0NIXVxbQ0gzXSlOKFtDSDJdW0NIMl0zKVtDQEBIXTRbQ0gyXU4oW0NIM10pW0NAQEhdKFtDSDJdNSlbQ0BdNihbQ0BAXTEoW0NIM10pW0NAXTM2W0NAXTI0NSlPW0NIM10=

>  <s_epik_cmdline>  (108) 
J2VwaWtfcHl0aG9uJywgJy1waHQnLCAnMi4wJywgJy1waCcsICc3LjAnLCAnLXRuJywgJzgnLCAnLW1hJywgJzIwMCcsICctaW1hZScsICc8aW5maWxlLm1hZT4nLCAnLW9tYWUnLCAnPG91dGZpbGUubWFlPic=

>  <r_epik_Ionization_Penalty>  (108) 
0.0204399

>  <r_epik_Ionization_Penalty_Charging>  (108) 
0.0174143

>  <r_epik_Ionization_Penalty_Neutral>  (108) 
0.00302556

>  <r_epik_State_Penalty>  (108) 
0.382901

>  <r_epik_Charging_Adjusted_Penalty>  (108) 
0.400315

>  <i_epik_Tot_Q>  (108) 
1

>  <i_epik_Tot_abs_Q>  (108) 
1

>  <s_lp_Force_Field>  (108) 
OPLS3e

>  <r_lp_Energy>  (108) 
132.026

>  <b_lp_Chiralities_Consistent>  (108) 
1

>  <s_lp_Variant>  (108) 
30:0-2

>  <s_i_glide_gridfile>  (108) 
pfpi4k_grid

>  <i_i_glide_lignum>  (108) 
4

>  <i_i_glide_rotatable_bonds>  (108) 
3

>  <r_i_docking_score>  (108) 
-2.49007

>  <r_i_glide_ligand_efficiency>  (108) 
-0.088931

>  <r_i_glide_ligand_efficiency_sa>  (108) 
-0.270047

>  <r_i_glide_ligand_efficiency_ln>  (108) 
-0.574781

>  <r_i_glide_gscore>  (108) 
-2.49007

>  <r_i_glide_lipo>  (108) 
-0.459372

>  <r_i_glide_hbond>  (108) 
-0.0140516

>  <r_i_glide_metal>  (108) 
-0

>  <r_i_glide_rewards>  (108) 
-0.780254

>  <r_i_glide_evdw>  (108) 
-16.5473

>  <r_i_glide_ecoul>  (108) 
-3.43792

>  <r_i_glide_erotb>  (108) 
0.130866

>  <r_i_glide_esite>  (108) 
-0.0242041

>  <r_i_glide_emodel>  (108) 
-21.9539

>  <r_i_glide_energy>  (108) 
-19.9852

>  <r_i_glide_einternal>  (108) 
2.45812

>  <r_i_glide_intrahb_reward>  (108) 
-0

>  <i_i_glide_confnum>  (108) 
6

>  <i_i_glide_posenum>  (108) 
28

>  <r_i_glide_eff_state_penalty>  (108) 
0

>  <ligand_id>  (108) 
30

>  <original_smiles>  (108) 
CC=C1CC(C(C)O)C2(C)C3(OC)C4CC56C(=CC)C1N(CCC523)C6CN4C

>  <smiles>  (108) 
[H]OC([H])(C([H])([H])[H])C1([H])C([H])([H])C(=C([H])C([H])([H])[H])C2([H])C(=C([H])C([H])([H])[H])C34C([H])([H])C5([H])N(C([H])([H])[H])C([H])([H])C3([H])[N+]2([H])C([H])([H])C([H])([H])C42C5(OC([H])([H])[H])C12C([H])([H])[H]

$$$$
30:1:2
     RDKit          3D

 65 70  0  0  1  0  0  0  0  0999 V2000
    4.6091   -1.2623   -1.1874 C   0  0  0  0  0  0  0  0  0  0  0  0
    4.7770   -2.7205   -0.8251 C   0  0  0  0  0  0  0  0  0  0  0  0
    4.9333   -3.3107    0.3858 C   0  0  0  0  0  0  0  0  0  0  0  0
    5.0960   -2.5134    1.7350 C   0  0  0  0  0  0  0  0  0  0  0  0
    3.9550   -2.3945    2.8374 C   0  0  1  0  0  0  0  0  0  0  0  0
    2.7375   -1.4610    2.4794 C   0  0  2  0  0  0  0  0  0  0  0  0
    3.1062    0.0111    2.1865 C   0  0  0  0  0  0  0  0  0  0  0  0
    1.8807   -1.4137    3.6000 O   0  0  0  0  0  0  0  0  0  0  0  0
    3.7387   -3.7308    3.6507 C   0  0  1  0  0  0  0  0  0  0  0  0
    4.8080   -3.8086    4.7485 C   0  0  0  0  0  0  0  0  0  0  0  0
    2.7346   -4.9555    3.8248 C   0  0  2  0  0  0  0  0  0  0  0  0
    1.3818   -4.5004    3.9665 O   0  0  0  0  0  0  0  0  0  0  0  0
    1.0031   -4.3769    5.3260 C   0  0  0  0  0  0  0  0  0  0  0  0
    2.9401   -6.4821    3.9854 C   0  0  2  0  0  0  0  0  0  0  0  0
    4.4306   -6.7250    3.6644 C   0  0  0  0  0  0  0  0  0  0  0  0
    4.4502   -5.9063    2.3726 C   0  0  2  0  0  0  0  0  0  0  0  0
    5.7074   -5.3688    1.7349 C   0  0  0  0  0  0  0  0  0  0  0  0
    7.0070   -5.4940    2.0784 C   0  0  0  0  0  0  0  0  0  0  0  0
    7.6237   -6.1767    3.2831 C   0  0  0  0  0  0  0  0  0  0  0  0
    5.1974   -4.8511    0.3997 C   0  0  1  0  0  0  0  0  0  0  0  0
    4.0055   -5.7790    0.1151 N   0  0  2  0  0  0  0  0  0  0  0  0
    2.7248   -5.0896    0.0613 C   0  0  0  0  0  0  0  0  0  0  0  0
    2.2991   -4.6383    1.4488 C   0  0  0  0  0  0  0  0  0  0  0  0
    3.4026   -4.7661    2.5779 C   0  0  2  0  0  0  0  0  0  0  0  0
    3.9806   -6.7787    1.2605 C   0  0  2  0  0  0  0  0  0  0  0  0
    2.7062   -7.5911    1.6884 C   0  0  0  0  0  0  0  0  0  0  0  0
    2.0946   -7.2746    3.0354 N   0  0  0  0  0  0  0  0  0  0  0  0
    1.4406   -8.4273    3.6251 C   0  0  0  0  0  0  0  0  0  0  0  0
    3.7313   -1.1394   -1.8220 H   0  0  0  0  0  0  0  0  0  0  0  0
    5.4731   -0.8767   -1.7269 H   0  0  0  0  0  0  0  0  0  0  0  0
    4.4681   -0.6332   -0.3112 H   0  0  0  0  0  0  0  0  0  0  0  0
    4.7729   -3.4000   -1.6814 H   0  0  0  0  0  0  0  0  0  0  0  0
    6.0072   -2.8645    2.2379 H   0  0  0  0  0  0  0  0  0  0  0  0
    5.3918   -1.5119    1.4786 H   0  0  0  0  0  0  0  0  0  0  0  0
    4.4412   -1.7547    3.5733 H   0  0  0  0  0  0  0  0  0  0  0  0
    2.1902   -1.7807    1.6016 H   0  0  0  0  0  0  0  0  0  0  0  0
    3.8434    0.1005    1.3945 H   0  0  0  0  0  0  0  0  0  0  0  0
    3.5143    0.5509    3.0413 H   0  0  0  0  0  0  0  0  0  0  0  0
    2.2165    0.5238    1.8157 H   0  0  0  0  0  0  0  0  0  0  0  0
    2.2755   -0.8310    4.2341 H   0  0  0  0  0  0  0  0  0  0  0  0
    4.5257   -4.5393    5.5121 H   0  0  0  0  0  0  0  0  0  0  0  0
    4.9271   -2.8637    5.2791 H   0  0  0  0  0  0  0  0  0  0  0  0
    5.7670   -4.0977    4.3198 H   0  0  0  0  0  0  0  0  0  0  0  0
   -0.0230   -4.0191    5.3807 H   0  0  0  0  0  0  0  0  0  0  0  0
    1.6230   -3.6633    5.8674 H   0  0  0  0  0  0  0  0  0  0  0  0
    1.0349   -5.3312    5.8473 H   0  0  0  0  0  0  0  0  0  0  0  0
    2.7128   -6.7674    5.0129 H   0  0  0  0  0  0  0  0  0  0  0  0
    5.0709   -6.3269    4.4337 H   0  0  0  0  0  0  0  0  0  0  0  0
    4.6970   -7.7792    3.5307 H   0  0  0  0  0  0  0  0  0  0  0  0
    7.7264   -5.0681    1.3947 H   0  0  0  0  0  0  0  0  0  0  0  0
    8.5761   -6.6139    2.9914 H   0  0  0  0  0  0  0  0  0  0  0  0
    7.0243   -6.9917    3.6757 H   0  0  0  0  0  0  0  0  0  0  0  0
    7.8323   -5.4595    4.0696 H   0  0  0  0  0  0  0  0  0  0  0  0
    5.9719   -5.0510   -0.3504 H   0  0  0  0  0  0  0  0  0  0  0  0
    2.7305   -4.2703   -0.6761 H   0  0  0  0  0  0  0  0  0  0  0  0
    1.9828   -5.7888   -0.3434 H   0  0  0  0  0  0  0  0  0  0  0  0
    1.8452   -3.6698    1.3949 H   0  0  0  0  0  0  0  0  0  0  0  0
    1.4576   -5.2884    1.7022 H   0  0  0  0  0  0  0  0  0  0  0  0
    4.7584   -7.5189    1.0142 H   0  0  0  0  0  0  0  0  0  0  0  0
    1.9354   -7.5772    0.9119 H   0  0  0  0  0  0  0  0  0  0  0  0
    3.0228   -8.6290    1.7211 H   0  0  0  0  0  0  0  0  0  0  0  0
    0.7432   -8.8825    2.9180 H   0  0  0  0  0  0  0  0  0  0  0  0
    0.8714   -8.1462    4.5139 H   0  0  0  0  0  0  0  0  0  0  0  0
    2.1773   -9.1749    3.9064 H   0  0  0  0  0  0  0  0  0  0  0  0
    4.1422   -6.2453   -0.7653 H   0  0  0  0  0  0  0  0  0  0  0  0
  1  2  1  0
  1 29  1  0
  1 30  1  0
  1 31  1  0
  2  3  2  3
  2 32  1  0
  3 20  1  0
  3  4  1  0
  4  5  1  0
  4 33  1  0
  4 34  1  0
  5  6  1  0
  5  9  1  0
  5 35  1  1
  6  7  1  0
  6  8  1  0
  6 36  1  6
  7 37  1  0
  7 38  1  0
  7 39  1  0
  8 40  1  0
  9 24  1  0
  9 10  1  1
  9 11  1  0
 10 41  1  0
 10 42  1  0
 10 43  1  0
 11 24  1  0
 11 12  1  6
 11 14  1  0
 12 13  1  0
 13 44  1  0
 13 45  1  0
 13 46  1  0
 14 27  1  0
 14 15  1  0
 14 47  1  1
 16 15  1  1
 15 48  1  0
 15 49  1  0
 16 24  1  0
 16 25  1  0
 16 17  1  0
 17 18  2  3
 17 20  1  0
 18 19  1  0
 18 50  1  0
 19 51  1  0
 19 52  1  0
 19 53  1  0
 20 21  1  0
 20 54  1  6
 21 22  1  0
 21 25  1  0
 21 65  1  6
 22 23  1  0
 22 55  1  0
 22 56  1  0
 24 23  1  6
 23 57  1  0
 23 58  1  0
 25 26  1  0
 25 59  1  6
 26 27  1  0
 26 60  1  0
 26 61  1  0
 27 28  1  0
 28 62  1  0
 28 63  1  0
 28 64  1  0
M  CHG  1  21   1
M  END
>  <i_m_ct_stereo_status>  (109) 
1

>  <s_m_source_file>  (109) 
/var/tmp/pbs.5076255.sched01/tmpuxvxg9lz/41q4u19exn.sdf

>  <i_m_source_file_index>  (109) 
4

>  <i_lp_mmshare_version>  (109) 
48012

>  <i_f3d_flags>  (109) 
0

>  <s_epik_input>  (109) 
W0NIM11bQ0BIXShbT0hdKVtDQEBIXTFbQ0gyXVxDKD1bQ0hdXFtDSDNdKVtDQEBIXShDXDI9W0NIXVxbQ0gzXSlOKFtDSDJdW0NIMl0zKVtDQEBIXTRbQ0gyXU4oW0NIM10pW0NAQEhdKFtDSDJdNSlbQ0BdNihbQ0BAXTEoW0NIM10pW0NAXTM2W0NAXTI0NSlPW0NIM10=

>  <s_epik_cmdline>  (109) 
J2VwaWtfcHl0aG9uJywgJy1waHQnLCAnMi4wJywgJy1waCcsICc3LjAnLCAnLXRuJywgJzgnLCAnLW1hJywgJzIwMCcsICctaW1hZScsICc8aW5maWxlLm1hZT4nLCAnLW9tYWUnLCAnPG91dGZpbGUubWFlPic=

>  <r_epik_Ionization_Penalty>  (109) 
0.0204399

>  <r_epik_Ionization_Penalty_Charging>  (109) 
0.0174143

>  <r_epik_Ionization_Penalty_Neutral>  (109) 
0.00302556

>  <r_epik_State_Penalty>  (109) 
0.382901

>  <r_epik_Charging_Adjusted_Penalty>  (109) 
0.400315

>  <i_epik_Tot_Q>  (109) 
1

>  <i_epik_Tot_abs_Q>  (109) 
1

>  <s_lp_Force_Field>  (109) 
OPLS3e

>  <r_lp_Energy>  (109) 
132.026

>  <b_lp_Chiralities_Consistent>  (109) 
1

>  <s_lp_Variant>  (109) 
30:0-2

>  <s_i_glide_gridfile>  (109) 
pfpi4k_grid

>  <i_i_glide_lignum>  (109) 
4

>  <i_i_glide_rotatable_bonds>  (109) 
3

>  <r_i_docking_score>  (109) 
-2.13654

>  <r_i_glide_ligand_efficiency>  (109) 
-0.0763051

>  <r_i_glide_ligand_efficiency_sa>  (109) 
-0.231707

>  <r_i_glide_ligand_efficiency_ln>  (109) 
-0.493176

>  <r_i_glide_gscore>  (109) 
-2.13654

>  <r_i_glide_lipo>  (109) 
-0.377804

>  <r_i_glide_hbond>  (109) 
0

>  <r_i_glide_metal>  (109) 
-0

>  <r_i_glide_rewards>  (109) 
-0.780254

>  <r_i_glide_evdw>  (109) 
-17.6614

>  <r_i_glide_ecoul>  (109) 
-1.50854

>  <r_i_glide_erotb>  (109) 
0.130866

>  <r_i_glide_esite>  (109) 
0

>  <r_i_glide_emodel>  (109) 
-21.6221

>  <r_i_glide_energy>  (109) 
-19.1699

>  <r_i_glide_einternal>  (109) 
0.0337984

>  <r_i_glide_intrahb_reward>  (109) 
-0

>  <i_i_glide_confnum>  (109) 
2

>  <i_i_glide_posenum>  (109) 
8

>  <r_i_glide_eff_state_penalty>  (109) 
0

>  <ligand_id>  (109) 
30

>  <original_smiles>  (109) 
CC=C1CC(C(C)O)C2(C)C3(OC)C4CC56C(=CC)C1N(CCC523)C6CN4C

>  <smiles>  (109) 
[H]OC([H])(C([H])([H])[H])C1([H])C([H])([H])C(=C([H])C([H])([H])[H])C2([H])C(=C([H])C([H])([H])[H])C34C([H])([H])C5([H])N(C([H])([H])[H])C([H])([H])C3([H])[N+]2([H])C([H])([H])C([H])([H])C42C5(OC([H])([H])[H])C12C([H])([H])[H]

$$$$
30:2:0
     RDKit          3D

 65 70  0  0  1  0  0  0  0  0999 V2000
    4.3391   -1.5077   -3.4291 C   0  0  0  0  0  0  0  0  0  0  0  0
    4.4993   -0.9353   -2.0298 C   0  0  0  0  0  0  0  0  0  0  0  0
    4.9185   -1.5790   -0.9211 C   0  0  0  0  0  0  0  0  0  0  0  0
    5.0820   -0.7683    0.4026 C   0  0  0  0  0  0  0  0  0  0  0  0
    4.1542   -0.8720    1.6954 C   0  0  1  0  0  0  0  0  0  0  0  0
    2.7857   -0.0895    1.7647 C   0  0  2  0  0  0  0  0  0  0  0  0
    2.6120    0.6844    3.0964 C   0  0  0  0  0  0  0  0  0  0  0  0
    1.6172   -0.8867    1.6850 O   0  0  0  0  0  0  0  0  0  0  0  0
    4.2795   -2.1930    2.4919 C   0  0  1  0  0  0  0  0  0  0  0  0
    5.4913   -2.0840    3.3927 C   0  0  0  0  0  0  0  0  0  0  0  0
    3.4993   -3.5328    2.7446 C   0  0  2  0  0  0  0  0  0  0  0  0
    2.1468   -3.2898    3.0796 O   0  0  0  0  0  0  0  0  0  0  0  0
    1.9737   -3.1108    4.4749 C   0  0  0  0  0  0  0  0  0  0  0  0
    3.9636   -4.9949    2.8459 C   0  0  2  0  0  0  0  0  0  0  0  0
    5.4180   -5.0184    2.2986 C   0  0  0  0  0  0  0  0  0  0  0  0
    5.1250   -4.1908    1.0421 C   0  0  2  0  0  0  0  0  0  0  0  0
    6.1624   -3.4597    0.2497 C   0  0  0  0  0  0  0  0  0  0  0  0
    7.4819   -3.3664    0.5159 C   0  0  0  0  0  0  0  0  0  0  0  0
    8.5330   -2.7147   -0.3439 C   0  0  0  0  0  0  0  0  0  0  0  0
    5.4267   -3.0658   -1.0100 C   0  0  1  0  0  0  0  0  0  0  0  0
    4.3808   -4.1763   -1.1082 N   0  0  2  0  0  0  0  0  0  0  0  0
    2.9891   -3.7124   -0.9891 C   0  0  0  0  0  0  0  0  0  0  0  0
    2.8072   -3.0824    0.3805 C   0  0  0  0  0  0  0  0  0  0  0  0
    3.9701   -3.2353    1.4208 C   0  0  2  0  0  0  0  0  0  0  0  0
    4.6419   -5.1387    0.0020 C   0  0  2  0  0  0  0  0  0  0  0  0
    3.5537   -6.1079    0.6079 C   0  0  0  0  0  0  0  0  0  0  0  0
    3.0780   -5.8477    2.0011 N   0  0  0  0  0  0  0  0  0  0  0  0
    2.6449   -7.0621    2.6717 C   0  0  0  0  0  0  0  0  0  0  0  0
    3.3041   -1.3862   -3.7532 H   0  0  0  0  0  0  0  0  0  0  0  0
    4.5936   -2.5654   -3.4949 H   0  0  0  0  0  0  0  0  0  0  0  0
    4.9646   -0.9657   -4.1358 H   0  0  0  0  0  0  0  0  0  0  0  0
    4.2304    0.1110   -1.9531 H   0  0  0  0  0  0  0  0  0  0  0  0
    6.1309   -0.8528    0.6973 H   0  0  0  0  0  0  0  0  0  0  0  0
    5.0094    0.2717    0.1249 H   0  0  0  0  0  0  0  0  0  0  0  0
    4.7278   -0.1781    2.2906 H   0  0  0  0  0  0  0  0  0  0  0  0
    2.8022    0.6490    0.9513 H   0  0  0  0  0  0  0  0  0  0  0  0
    3.3159    1.5169    3.1969 H   0  0  0  0  0  0  0  0  0  0  0  0
    2.7357    0.0220    3.9526 H   0  0  0  0  0  0  0  0  0  0  0  0
    1.6058    1.1028    3.1623 H   0  0  0  0  0  0  0  0  0  0  0  0
    1.3479   -0.9792    0.7418 H   0  0  0  0  0  0  0  0  0  0  0  0
    5.4696   -2.8656    4.1518 H   0  0  0  0  0  0  0  0  0  0  0  0
    5.5500   -1.1356    3.9301 H   0  0  0  0  0  0  0  0  0  0  0  0
    6.3648   -2.1856    2.7597 H   0  0  0  0  0  0  0  0  0  0  0  0
    0.9330   -2.8754    4.6612 H   0  0  0  0  0  0  0  0  0  0  0  0
    2.5626   -2.2919    4.8887 H   0  0  0  0  0  0  0  0  0  0  0  0
    2.2055   -4.0138    5.0386 H   0  0  0  0  0  0  0  0  0  0  0  0
    3.9084   -5.2949    3.8888 H   0  0  0  0  0  0  0  0  0  0  0  0
    6.1209   -4.5359    2.9628 H   0  0  0  0  0  0  0  0  0  0  0  0
    5.7908   -6.0319    2.1031 H   0  0  0  0  0  0  0  0  0  0  0  0
    7.8239   -3.8282    1.4186 H   0  0  0  0  0  0  0  0  0  0  0  0
    9.0468   -1.9488    0.2320 H   0  0  0  0  0  0  0  0  0  0  0  0
    8.1279   -2.2602   -1.2465 H   0  0  0  0  0  0  0  0  0  0  0  0
    9.2859   -3.4453   -0.6385 H   0  0  0  0  0  0  0  0  0  0  0  0
    6.1277   -3.1474   -1.8444 H   0  0  0  0  0  0  0  0  0  0  0  0
    2.7551   -3.0365   -1.8109 H   0  0  0  0  0  0  0  0  0  0  0  0
    2.2982   -4.5507   -1.1397 H   0  0  0  0  0  0  0  0  0  0  0  0
    2.6636   -2.0351    0.1754 H   0  0  0  0  0  0  0  0  0  0  0  0
    1.8782   -3.4839    0.7648 H   0  0  0  0  0  0  0  0  0  0  0  0
    5.4715   -5.7682   -0.3405 H   0  0  0  0  0  0  0  0  0  0  0  0
    2.7037   -6.2075   -0.0652 H   0  0  0  0  0  0  0  0  0  0  0  0
    4.0238   -7.0892    0.6080 H   0  0  0  0  0  0  0  0  0  0  0  0
    1.9216   -7.6107    2.0639 H   0  0  0  0  0  0  0  0  0  0  0  0
    2.1766   -6.8425    3.6329 H   0  0  0  0  0  0  0  0  0  0  0  0
    3.5023   -7.7020    2.8470 H   0  0  0  0  0  0  0  0  0  0  0  0
    4.4498   -4.6775   -1.9999 H   0  0  0  0  0  0  0  0  0  0  0  0
  1  2  1  0
  1 29  1  0
  1 30  1  0
  1 31  1  0
  2  3  2  3
  2 32  1  0
  3 20  1  0
  3  4  1  0
  4  5  1  0
  4 33  1  0
  4 34  1  0
  5  6  1  0
  5  9  1  0
  5 35  1  1
  6  7  1  0
  6  8  1  0
  6 36  1  6
  7 37  1  0
  7 38  1  0
  7 39  1  0
  8 40  1  0
  9 24  1  0
  9 10  1  1
  9 11  1  0
 10 41  1  0
 10 42  1  0
 10 43  1  0
 11 24  1  0
 11 12  1  6
 11 14  1  0
 12 13  1  0
 13 44  1  0
 13 45  1  0
 13 46  1  0
 14 27  1  0
 14 15  1  0
 14 47  1  1
 16 15  1  1
 15 48  1  0
 15 49  1  0
 16 24  1  0
 16 25  1  0
 16 17  1  0
 17 18  2  3
 17 20  1  0
 18 19  1  0
 18 50  1  0
 19 51  1  0
 19 52  1  0
 19 53  1  0
 20 21  1  0
 20 54  1  6
 21 22  1  0
 21 25  1  0
 21 65  1  6
 22 23  1  0
 22 55  1  0
 22 56  1  0
 24 23  1  6
 23 57  1  0
 23 58  1  0
 25 26  1  0
 25 59  1  6
 26 27  1  0
 26 60  1  0
 26 61  1  0
 27 28  1  0
 28 62  1  0
 28 63  1  0
 28 64  1  0
M  CHG  1  21   1
M  END
>  <i_m_ct_stereo_status>  (110) 
1

>  <s_m_source_file>  (110) 
/var/tmp/pbs.5076255.sched01/tmpuxvxg9lz/41q4u19exn.sdf

>  <i_m_source_file_index>  (110) 
5

>  <i_lp_mmshare_version>  (110) 
48012

>  <i_f3d_flags>  (110) 
0

>  <s_epik_input>  (110) 
W0NIM11bQ0BIXShbT0hdKVtDQEBIXTFbQ0gyXVxDKD1bQ0hdXFtDSDNdKVtDQEBIXShDXDI9W0NIXVxbQ0gzXSlOKFtDSDJdW0NIMl0zKVtDQEBIXTRbQ0gyXU4oW0NIM10pW0NAQEhdKFtDSDJdNSlbQ0BdNihbQ0BAXTEoW0NIM10pW0NAXTM2W0NAXTI0NSlPW0NIM10=

>  <s_epik_cmdline>  (110) 
J2VwaWtfcHl0aG9uJywgJy1waHQnLCAnMi4wJywgJy1waCcsICc3LjAnLCAnLXRuJywgJzgnLCAnLW1hJywgJzIwMCcsICctaW1hZScsICc8aW5maWxlLm1hZT4nLCAnLW9tYWUnLCAnPG91dGZpbGUubWFlPic=

>  <r_epik_Ionization_Penalty>  (110) 
0.0204399

>  <r_epik_Ionization_Penalty_Charging>  (110) 
0.0174143

>  <r_epik_Ionization_Penalty_Neutral>  (110) 
0.00302556

>  <r_epik_State_Penalty>  (110) 
0.382901

>  <r_epik_Charging_Adjusted_Penalty>  (110) 
0.400315

>  <i_epik_Tot_Q>  (110) 
1

>  <i_epik_Tot_abs_Q>  (110) 
1

>  <s_lp_Force_Field>  (110) 
OPLS3e

>  <r_lp_Energy>  (110) 
130.233

>  <b_lp_Chiralities_Consistent>  (110) 
1

>  <s_lp_Variant>  (110) 
30:0-3

>  <s_i_glide_gridfile>  (110) 
pfpi4k_grid

>  <i_i_glide_lignum>  (110) 
5

>  <i_i_glide_rotatable_bonds>  (110) 
3

>  <r_i_docking_score>  (110) 
-3.40214

>  <r_i_glide_ligand_efficiency>  (110) 
-0.121505

>  <r_i_glide_ligand_efficiency_sa>  (110) 
-0.368961

>  <r_i_glide_ligand_efficiency_ln>  (110) 
-0.785315

>  <r_i_glide_gscore>  (110) 
-3.40214

>  <r_i_glide_lipo>  (110) 
-0.721065

>  <r_i_glide_hbond>  (110) 
0

>  <r_i_glide_metal>  (110) 
-0

>  <r_i_glide_rewards>  (110) 
-0.780254

>  <r_i_glide_evdw>  (110) 
-20.1574

>  <r_i_glide_ecoul>  (110) 
-6.62019

>  <r_i_glide_erotb>  (110) 
0.130866

>  <r_i_glide_esite>  (110) 
-0.0307926

>  <r_i_glide_emodel>  (110) 
-27.9692

>  <r_i_glide_energy>  (110) 
-26.7776

>  <r_i_glide_einternal>  (110) 
8.61016

>  <r_i_glide_intrahb_reward>  (110) 
-0

>  <i_i_glide_confnum>  (110) 
6

>  <i_i_glide_posenum>  (110) 
23

>  <r_i_glide_eff_state_penalty>  (110) 
0

>  <ligand_id>  (110) 
30

>  <original_smiles>  (110) 
CC=C1CC(C(C)O)C2(C)C3(OC)C4CC56C(=CC)C1N(CCC523)C6CN4C

>  <smiles>  (110) 
[H]OC([H])(C([H])([H])[H])C1([H])C([H])([H])C(=C([H])C([H])([H])[H])C2([H])C(=C([H])C([H])([H])[H])C34C([H])([H])C5([H])N(C([H])([H])[H])C([H])([H])C3([H])[N+]2([H])C([H])([H])C([H])([H])C42C5(OC([H])([H])[H])C12C([H])([H])[H]

$$$$
30:2:1
     RDKit          3D

 65 70  0  0  1  0  0  0  0  0999 V2000
    4.0514   -1.5105   -3.2884 C   0  0  0  0  0  0  0  0  0  0  0  0
    4.2775   -1.0026   -1.8782 C   0  0  0  0  0  0  0  0  0  0  0  0
    4.7456   -1.6688   -0.8070 C   0  0  0  0  0  0  0  0  0  0  0  0
    4.9468   -0.8772    0.5390 C   0  0  0  0  0  0  0  0  0  0  0  0
    4.1145   -1.0929    1.8985 C   0  0  1  0  0  0  0  0  0  0  0  0
    2.7032   -0.4466    2.1047 C   0  0  2  0  0  0  0  0  0  0  0  0
    2.6590    1.0589    1.9143 C   0  0  0  0  0  0  0  0  0  0  0  0
    2.2995   -0.6238    3.4422 O   0  0  0  0  0  0  0  0  0  0  0  0
    4.3217   -2.4716    2.5895 C   0  0  1  0  0  0  0  0  0  0  0  0
    5.5654   -2.3713    3.4366 C   0  0  0  0  0  0  0  0  0  0  0  0
    3.5958   -3.8471    2.8041 C   0  0  2  0  0  0  0  0  0  0  0  0
    2.2583   -3.6683    3.2205 O   0  0  0  0  0  0  0  0  0  0  0  0
    2.1224   -3.6287    4.6354 C   0  0  0  0  0  0  0  0  0  0  0  0
    4.1294   -5.3029    2.8171 C   0  0  2  0  0  0  0  0  0  0  0  0
    5.5496   -5.2197    2.2044 C   0  0  0  0  0  0  0  0  0  0  0  0
    5.1489   -4.3489    1.0009 C   0  0  2  0  0  0  0  0  0  0  0  0
    6.1154   -3.5287    0.2135 C   0  0  0  0  0  0  0  0  0  0  0  0
    7.4474   -3.3994    0.4228 C   0  0  0  0  0  0  0  0  0  0  0  0
    8.4313   -2.6456   -0.4505 C   0  0  0  0  0  0  0  0  0  0  0  0
    5.3071   -3.1161   -0.9904 C   0  0  1  0  0  0  0  0  0  0  0  0
    4.3023   -4.2475   -1.0968 N   0  0  2  0  0  0  0  0  0  0  0  0
    2.9117   -3.8548   -0.9140 C   0  0  0  0  0  0  0  0  0  0  0  0
    2.7385   -3.3537    0.5130 C   0  0  0  0  0  0  0  0  0  0  0  0
    3.9830   -3.4638    1.4769 C   0  0  2  0  0  0  0  0  0  0  0  0
    4.6731   -5.2620   -0.0708 C   0  0  2  0  0  0  0  0  0  0  0  0
    3.6714   -6.3164    0.5399 C   0  0  0  0  0  0  0  0  0  0  0  0
    3.2437   -6.1507    1.9662 N   0  0  0  0  0  0  0  0  0  0  0  0
    2.9208   -7.4352    2.5880 C   0  0  0  0  0  0  0  0  0  0  0  0
    2.9953   -1.4085   -3.5491 H   0  0  0  0  0  0  0  0  0  0  0  0
    4.3429   -2.5500   -3.4324 H   0  0  0  0  0  0  0  0  0  0  0  0
    4.6131   -0.8827   -3.9779 H   0  0  0  0  0  0  0  0  0  0  0  0
    4.0218    0.0347   -1.7924 H   0  0  0  0  0  0  0  0  0  0  0  0
    6.0070   -0.9490    0.7822 H   0  0  0  0  0  0  0  0  0  0  0  0
    4.8391    0.1782    0.2967 H   0  0  0  0  0  0  0  0  0  0  0  0
    4.6697   -0.4041    2.5385 H   0  0  0  0  0  0  0  0  0  0  0  0
    1.9114   -0.8294    1.4707 H   0  0  0  0  0  0  0  0  0  0  0  0
    2.8877    1.2683    0.8822 H   0  0  0  0  0  0  0  0  0  0  0  0
    3.3692    1.5877    2.5471 H   0  0  0  0  0  0  0  0  0  0  0  0
    1.6658    1.4569    2.1126 H   0  0  0  0  0  0  0  0  0  0  0  0
    1.3966   -0.3462    3.5055 H   0  0  0  0  0  0  0  0  0  0  0  0
    5.6143   -3.1889    4.1539 H   0  0  0  0  0  0  0  0  0  0  0  0
    5.6021   -1.4598    4.0328 H   0  0  0  0  0  0  0  0  0  0  0  0
    6.4140   -2.3855    2.7632 H   0  0  0  0  0  0  0  0  0  0  0  0
    1.0779   -3.4633    4.8936 H   0  0  0  0  0  0  0  0  0  0  0  0
    2.7015   -2.8190    5.0869 H   0  0  0  0  0  0  0  0  0  0  0  0
    2.4306   -4.5703    5.0926 H   0  0  0  0  0  0  0  0  0  0  0  0
    4.1487   -5.6544    3.8479 H   0  0  0  0  0  0  0  0  0  0  0  0
    6.2737   -4.7475    2.8612 H   0  0  0  0  0  0  0  0  0  0  0  0
    5.9619   -6.1987    1.9386 H   0  0  0  0  0  0  0  0  0  0  0  0
    7.8803   -3.8733    1.2909 H   0  0  0  0  0  0  0  0  0  0  0  0
    8.9334   -1.8695    0.1360 H   0  0  0  0  0  0  0  0  0  0  0  0
    7.9532   -2.1836   -1.3139 H   0  0  0  0  0  0  0  0  0  0  0  0
    9.2029   -3.3248   -0.8189 H   0  0  0  0  0  0  0  0  0  0  0  0
    5.9617   -3.1221   -1.8597 H   0  0  0  0  0  0  0  0  0  0  0  0
    2.5898   -3.1253   -1.6468 H   0  0  0  0  0  0  0  0  0  0  0  0
    2.2391   -4.6800   -1.0795 H   0  0  0  0  0  0  0  0  0  0  0  0
    2.4663   -2.3295    0.3447 H   0  0  0  0  0  0  0  0  0  0  0  0
    1.8639   -3.8419    0.9465 H   0  0  0  0  0  0  0  0  0  0  0  0
    5.5023   -5.8203   -0.4827 H   0  0  0  0  0  0  0  0  0  0  0  0
    2.7948   -6.4260   -0.0712 H   0  0  0  0  0  0  0  0  0  0  0  0
    4.1967   -7.2745    0.4629 H   0  0  0  0  0  0  0  0  0  0  0  0
    2.1935   -7.9824    1.9847 H   0  0  0  0  0  0  0  0  0  0  0  0
    2.4825   -7.2912    3.5800 H   0  0  0  0  0  0  0  0  0  0  0  0
    3.8127   -8.0574    2.6923 H   0  0  0  0  0  0  0  0  0  0  0  0
    4.3438   -4.6920   -2.0017 H   0  0  0  0  0  0  0  0  0  0  0  0
  1  2  1  0
  1 29  1  0
  1 30  1  0
  1 31  1  0
  2  3  2  3
  2 32  1  0
  3 20  1  0
  3  4  1  0
  4  5  1  0
  4 33  1  0
  4 34  1  0
  5  6  1  0
  5  9  1  0
  5 35  1  1
  6  7  1  0
  6  8  1  0
  6 36  1  6
  7 37  1  0
  7 38  1  0
  7 39  1  0
  8 40  1  0
  9 24  1  0
  9 10  1  1
  9 11  1  0
 10 41  1  0
 10 42  1  0
 10 43  1  0
 11 24  1  0
 11 12  1  6
 11 14  1  0
 12 13  1  0
 13 44  1  0
 13 45  1  0
 13 46  1  0
 14 27  1  0
 14 15  1  0
 14 47  1  1
 16 15  1  1
 15 48  1  0
 15 49  1  0
 16 24  1  0
 16 25  1  0
 16 17  1  0
 17 18  2  3
 17 20  1  0
 18 19  1  0
 18 50  1  0
 19 51  1  0
 19 52  1  0
 19 53  1  0
 20 21  1  0
 20 54  1  6
 21 22  1  0
 21 25  1  0
 21 65  1  6
 22 23  1  0
 22 55  1  0
 22 56  1  0
 24 23  1  6
 23 57  1  0
 23 58  1  0
 25 26  1  0
 25 59  1  6
 26 27  1  0
 26 60  1  0
 26 61  1  0
 27 28  1  0
 28 62  1  0
 28 63  1  0
 28 64  1  0
M  CHG  1  21   1
M  END
>  <i_m_ct_stereo_status>  (111) 
1

>  <s_m_source_file>  (111) 
/var/tmp/pbs.5076255.sched01/tmpuxvxg9lz/41q4u19exn.sdf

>  <i_m_source_file_index>  (111) 
5

>  <i_lp_mmshare_version>  (111) 
48012

>  <i_f3d_flags>  (111) 
0

>  <s_epik_input>  (111) 
W0NIM11bQ0BIXShbT0hdKVtDQEBIXTFbQ0gyXVxDKD1bQ0hdXFtDSDNdKVtDQEBIXShDXDI9W0NIXVxbQ0gzXSlOKFtDSDJdW0NIMl0zKVtDQEBIXTRbQ0gyXU4oW0NIM10pW0NAQEhdKFtDSDJdNSlbQ0BdNihbQ0BAXTEoW0NIM10pW0NAXTM2W0NAXTI0NSlPW0NIM10=

>  <s_epik_cmdline>  (111) 
J2VwaWtfcHl0aG9uJywgJy1waHQnLCAnMi4wJywgJy1waCcsICc3LjAnLCAnLXRuJywgJzgnLCAnLW1hJywgJzIwMCcsICctaW1hZScsICc8aW5maWxlLm1hZT4nLCAnLW9tYWUnLCAnPG91dGZpbGUubWFlPic=

>  <r_epik_Ionization_Penalty>  (111) 
0.0204399

>  <r_epik_Ionization_Penalty_Charging>  (111) 
0.0174143

>  <r_epik_Ionization_Penalty_Neutral>  (111) 
0.00302556

>  <r_epik_State_Penalty>  (111) 
0.382901

>  <r_epik_Charging_Adjusted_Penalty>  (111) 
0.400315

>  <i_epik_Tot_Q>  (111) 
1

>  <i_epik_Tot_abs_Q>  (111) 
1

>  <s_lp_Force_Field>  (111) 
OPLS3e

>  <r_lp_Energy>  (111) 
130.233

>  <b_lp_Chiralities_Consistent>  (111) 
1

>  <s_lp_Variant>  (111) 
30:0-3

>  <s_i_glide_gridfile>  (111) 
pfpi4k_grid

>  <i_i_glide_lignum>  (111) 
5

>  <i_i_glide_rotatable_bonds>  (111) 
3

>  <r_i_docking_score>  (111) 
-2.90344

>  <r_i_glide_ligand_efficiency>  (111) 
-0.103694

>  <r_i_glide_ligand_efficiency_sa>  (111) 
-0.314877

>  <r_i_glide_ligand_efficiency_ln>  (111) 
-0.6702

>  <r_i_glide_gscore>  (111) 
-2.90344

>  <r_i_glide_lipo>  (111) 
-0.721762

>  <r_i_glide_hbond>  (111) 
0

>  <r_i_glide_metal>  (111) 
-0

>  <r_i_glide_rewards>  (111) 
-0.780254

>  <r_i_glide_evdw>  (111) 
-18.1328

>  <r_i_glide_ecoul>  (111) 
-3.92761

>  <r_i_glide_erotb>  (111) 
0.130866

>  <r_i_glide_esite>  (111) 
-0.0365112

>  <r_i_glide_emodel>  (111) 
-26.6822

>  <r_i_glide_energy>  (111) 
-22.0604

>  <r_i_glide_einternal>  (111) 
0.926775

>  <r_i_glide_intrahb_reward>  (111) 
-0

>  <i_i_glide_confnum>  (111) 
1

>  <i_i_glide_posenum>  (111) 
20

>  <r_i_glide_eff_state_penalty>  (111) 
0

>  <ligand_id>  (111) 
30

>  <original_smiles>  (111) 
CC=C1CC(C(C)O)C2(C)C3(OC)C4CC56C(=CC)C1N(CCC523)C6CN4C

>  <smiles>  (111) 
[H]OC([H])(C([H])([H])[H])C1([H])C([H])([H])C(=C([H])C([H])([H])[H])C2([H])C(=C([H])C([H])([H])[H])C34C([H])([H])C5([H])N(C([H])([H])[H])C([H])([H])C3([H])[N+]2([H])C([H])([H])C([H])([H])C42C5(OC([H])([H])[H])C12C([H])([H])[H]

$$$$
30:2:2
     RDKit          3D

 65 70  0  0  1  0  0  0  0  0999 V2000
    3.9546   -1.7324   -3.2787 C   0  0  0  0  0  0  0  0  0  0  0  0
    4.1771   -1.1787   -1.8844 C   0  0  0  0  0  0  0  0  0  0  0  0
    4.6954   -1.7859   -0.8041 C   0  0  0  0  0  0  0  0  0  0  0  0
    4.9111   -0.9377    0.5022 C   0  0  0  0  0  0  0  0  0  0  0  0
    4.1060   -1.1111    1.8832 C   0  0  1  0  0  0  0  0  0  0  0  0
    2.6863   -0.4699    2.0770 C   0  0  2  0  0  0  0  0  0  0  0  0
    2.6439    1.0464    1.9103 C   0  0  0  0  0  0  0  0  0  0  0  0
    2.2290   -0.6797    3.3973 O   0  0  0  0  0  0  0  0  0  0  0  0
    4.3407   -2.4630    2.6186 C   0  0  1  0  0  0  0  0  0  0  0  0
    5.6010   -2.3211    3.4432 C   0  0  0  0  0  0  0  0  0  0  0  0
    3.6351   -3.8412    2.9044 C   0  0  2  0  0  0  0  0  0  0  0  0
    2.3016   -3.6648    3.3404 O   0  0  0  0  0  0  0  0  0  0  0  0
    2.1885   -3.5630    4.7532 C   0  0  0  0  0  0  0  0  0  0  0  0
    4.1796   -5.2887    2.9595 C   0  0  2  0  0  0  0  0  0  0  0  0
    5.5879   -5.2174    2.3210 C   0  0  0  0  0  0  0  0  0  0  0  0
    5.1610   -4.3967    1.0952 C   0  0  2  0  0  0  0  0  0  0  0  0
    6.1072   -3.5954    0.2596 C   0  0  0  0  0  0  0  0  0  0  0  0
    7.4415   -3.4441    0.4375 C   0  0  0  0  0  0  0  0  0  0  0  0
    8.3987   -2.7122   -0.4818 C   0  0  0  0  0  0  0  0  0  0  0  0
    5.2756   -3.2326   -0.9436 C   0  0  1  0  0  0  0  0  0  0  0  0
    4.2791   -4.3793   -0.9851 N   0  0  2  0  0  0  0  0  0  0  0  0
    2.8815   -4.0063   -0.7871 C   0  0  0  0  0  0  0  0  0  0  0  0
    2.7295   -3.4452    0.6166 C   0  0  0  0  0  0  0  0  0  0  0  0
    3.9920   -3.5049    1.5574 C   0  0  2  0  0  0  0  0  0  0  0  0
    4.6748   -5.3545    0.0653 C   0  0  2  0  0  0  0  0  0  0  0  0
    3.6944   -6.4014    0.7283 C   0  0  0  0  0  0  0  0  0  0  0  0
    3.2872   -6.1833    2.1569 N   0  0  0  0  0  0  0  0  0  0  0  0
    2.9899   -7.4415    2.8365 C   0  0  0  0  0  0  0  0  0  0  0  0
    2.8942   -1.6565   -3.5289 H   0  0  0  0  0  0  0  0  0  0  0  0
    4.2585   -2.7739   -3.3858 H   0  0  0  0  0  0  0  0  0  0  0  0
    4.5058   -1.1268   -3.9986 H   0  0  0  0  0  0  0  0  0  0  0  0
    3.8487   -0.1591   -1.8069 H   0  0  0  0  0  0  0  0  0  0  0  0
    5.9780   -0.9953    0.7273 H   0  0  0  0  0  0  0  0  0  0  0  0
    4.7945    0.1110    0.2187 H   0  0  0  0  0  0  0  0  0  0  0  0
    4.6710   -0.3991    2.4854 H   0  0  0  0  0  0  0  0  0  0  0  0
    1.9133   -0.8441    1.4169 H   0  0  0  0  0  0  0  0  0  0  0  0
    2.8726    1.3261    0.8859 H   0  0  0  0  0  0  0  0  0  0  0  0
    3.3446    1.5674    2.5626 H   0  0  0  0  0  0  0  0  0  0  0  0
    1.6415    1.4243    2.1174 H   0  0  0  0  0  0  0  0  0  0  0  0
    2.8451   -0.2984    4.0035 H   0  0  0  0  0  0  0  0  0  0  0  0
    5.6685   -3.1090    4.1924 H   0  0  0  0  0  0  0  0  0  0  0  0
    5.6390   -1.3876    4.0052 H   0  0  0  0  0  0  0  0  0  0  0  0
    6.4427   -2.3518    2.7592 H   0  0  0  0  0  0  0  0  0  0  0  0
    1.1460   -3.3962    5.0232 H   0  0  0  0  0  0  0  0  0  0  0  0
    2.7632   -2.7275    5.1595 H   0  0  0  0  0  0  0  0  0  0  0  0
    2.5149   -4.4783    5.2479 H   0  0  0  0  0  0  0  0  0  0  0  0
    4.2210   -5.6006    4.0023 H   0  0  0  0  0  0  0  0  0  0  0  0
    6.3160   -4.7101    2.9453 H   0  0  0  0  0  0  0  0  0  0  0  0
    6.0077   -6.2014    2.0898 H   0  0  0  0  0  0  0  0  0  0  0  0
    7.8942   -3.8840    1.3123 H   0  0  0  0  0  0  0  0  0  0  0  0
    8.9059   -1.9184    0.0716 H   0  0  0  0  0  0  0  0  0  0  0  0
    7.9031   -2.2694   -1.3453 H   0  0  0  0  0  0  0  0  0  0  0  0
    9.1678   -3.3957   -0.8451 H   0  0  0  0  0  0  0  0  0  0  0  0
    5.9098   -3.2711   -1.8261 H   0  0  0  0  0  0  0  0  0  0  0  0
    2.5362   -3.3174   -1.5486 H   0  0  0  0  0  0  0  0  0  0  0  0
    2.2240   -4.8586   -0.8928 H   0  0  0  0  0  0  0  0  0  0  0  0
    2.4372   -2.4337    0.4109 H   0  0  0  0  0  0  0  0  0  0  0  0
    1.8708   -3.9288    1.0812 H   0  0  0  0  0  0  0  0  0  0  0  0
    5.5074   -5.9220   -0.3360 H   0  0  0  0  0  0  0  0  0  0  0  0
    2.8188   -6.5853    0.1198 H   0  0  0  0  0  0  0  0  0  0  0  0
    4.2362   -7.3508    0.6896 H   0  0  0  0  0  0  0  0  0  0  0  0
    2.2581   -8.0204    2.2700 H   0  0  0  0  0  0  0  0  0  0  0  0
    2.5691   -7.2617    3.8294 H   0  0  0  0  0  0  0  0  0  0  0  0
    3.8894   -8.0505    2.9511 H   0  0  0  0  0  0  0  0  0  0  0  0
    4.3048   -4.8475   -1.8791 H   0  0  0  0  0  0  0  0  0  0  0  0
  1  2  1  0
  1 29  1  0
  1 30  1  0
  1 31  1  0
  2  3  2  3
  2 32  1  0
  3 20  1  0
  3  4  1  0
  4  5  1  0
  4 33  1  0
  4 34  1  0
  5  6  1  0
  5  9  1  0
  5 35  1  1
  6  7  1  0
  6  8  1  0
  6 36  1  6
  7 37  1  0
  7 38  1  0
  7 39  1  0
  8 40  1  0
  9 24  1  0
  9 10  1  1
  9 11  1  0
 10 41  1  0
 10 42  1  0
 10 43  1  0
 11 24  1  0
 11 12  1  6
 11 14  1  0
 12 13  1  0
 13 44  1  0
 13 45  1  0
 13 46  1  0
 14 27  1  0
 14 15  1  0
 14 47  1  1
 16 15  1  1
 15 48  1  0
 15 49  1  0
 16 24  1  0
 16 25  1  0
 16 17  1  0
 17 18  2  3
 17 20  1  0
 18 19  1  0
 18 50  1  0
 19 51  1  0
 19 52  1  0
 19 53  1  0
 20 21  1  0
 20 54  1  6
 21 22  1  0
 21 25  1  0
 21 65  1  6
 22 23  1  0
 22 55  1  0
 22 56  1  0
 24 23  1  6
 23 57  1  0
 23 58  1  0
 25 26  1  0
 25 59  1  6
 26 27  1  0
 26 60  1  0
 26 61  1  0
 27 28  1  0
 28 62  1  0
 28 63  1  0
 28 64  1  0
M  CHG  1  21   1
M  END
>  <i_m_ct_stereo_status>  (112) 
1

>  <s_m_source_file>  (112) 
/var/tmp/pbs.5076255.sched01/tmpuxvxg9lz/41q4u19exn.sdf

>  <i_m_source_file_index>  (112) 
5

>  <i_lp_mmshare_version>  (112) 
48012

>  <i_f3d_flags>  (112) 
0

>  <s_epik_input>  (112) 
W0NIM11bQ0BIXShbT0hdKVtDQEBIXTFbQ0gyXVxDKD1bQ0hdXFtDSDNdKVtDQEBIXShDXDI9W0NIXVxbQ0gzXSlOKFtDSDJdW0NIMl0zKVtDQEBIXTRbQ0gyXU4oW0NIM10pW0NAQEhdKFtDSDJdNSlbQ0BdNihbQ0BAXTEoW0NIM10pW0NAXTM2W0NAXTI0NSlPW0NIM10=

>  <s_epik_cmdline>  (112) 
J2VwaWtfcHl0aG9uJywgJy1waHQnLCAnMi4wJywgJy1waCcsICc3LjAnLCAnLXRuJywgJzgnLCAnLW1hJywgJzIwMCcsICctaW1hZScsICc8aW5maWxlLm1hZT4nLCAnLW9tYWUnLCAnPG91dGZpbGUubWFlPic=

>  <r_epik_Ionization_Penalty>  (112) 
0.0204399

>  <r_epik_Ionization_Penalty_Charging>  (112) 
0.0174143

>  <r_epik_Ionization_Penalty_Neutral>  (112) 
0.00302556

>  <r_epik_State_Penalty>  (112) 
0.382901

>  <r_epik_Charging_Adjusted_Penalty>  (112) 
0.400315

>  <i_epik_Tot_Q>  (112) 
1

>  <i_epik_Tot_abs_Q>  (112) 
1

>  <s_lp_Force_Field>  (112) 
OPLS3e

>  <r_lp_Energy>  (112) 
130.233

>  <b_lp_Chiralities_Consistent>  (112) 
1

>  <s_lp_Variant>  (112) 
30:0-3

>  <s_i_glide_gridfile>  (112) 
pfpi4k_grid

>  <i_i_glide_lignum>  (112) 
5

>  <i_i_glide_rotatable_bonds>  (112) 
3

>  <r_i_docking_score>  (112) 
-2.79517

>  <r_i_glide_ligand_efficiency>  (112) 
-0.0998277

>  <r_i_glide_ligand_efficiency_sa>  (112) 
-0.303136

>  <r_i_glide_ligand_efficiency_ln>  (112) 
-0.645208

>  <r_i_glide_gscore>  (112) 
-2.79517

>  <r_i_glide_lipo>  (112) 
-0.732801

>  <r_i_glide_hbond>  (112) 
0

>  <r_i_glide_metal>  (112) 
-0

>  <r_i_glide_rewards>  (112) 
-0.780254

>  <r_i_glide_evdw>  (112) 
-17.8468

>  <r_i_glide_ecoul>  (112) 
-3.21906

>  <r_i_glide_erotb>  (112) 
0.130866

>  <r_i_glide_esite>  (112) 
-0.0377856

>  <r_i_glide_emodel>  (112) 
-25.4907

>  <r_i_glide_energy>  (112) 
-21.0659

>  <r_i_glide_einternal>  (112) 
0.920998

>  <r_i_glide_intrahb_reward>  (112) 
-0

>  <i_i_glide_confnum>  (112) 
2

>  <i_i_glide_posenum>  (112) 
32

>  <r_i_glide_eff_state_penalty>  (112) 
0

>  <ligand_id>  (112) 
30

>  <original_smiles>  (112) 
CC=C1CC(C(C)O)C2(C)C3(OC)C4CC56C(=CC)C1N(CCC523)C6CN4C

>  <smiles>  (112) 
[H]OC([H])(C([H])([H])[H])C1([H])C([H])([H])C(=C([H])C([H])([H])[H])C2([H])C(=C([H])C([H])([H])[H])C34C([H])([H])C5([H])N(C([H])([H])[H])C([H])([H])C3([H])[N+]2([H])C([H])([H])C([H])([H])C42C5(OC([H])([H])[H])C12C([H])([H])[H]

$$$$
30:3:0
     RDKit          3D

 65 70  0  0  1  0  0  0  0  0999 V2000
    5.6444   -2.0805   -1.8533 C   0  0  0  0  0  0  0  0  0  0  0  0
    5.5683   -3.4569   -1.2258 C   0  0  0  0  0  0  0  0  0  0  0  0
    5.5046   -3.7785    0.0898 C   0  0  0  0  0  0  0  0  0  0  0  0
    5.6432   -2.7104    1.2112 C   0  0  0  0  0  0  0  0  0  0  0  0
    4.3938   -2.2134    2.0447 C   0  0  1  0  0  0  0  0  0  0  0  0
    3.4228   -1.2129    1.3037 C   0  0  2  0  0  0  0  0  0  0  0  0
    2.1426   -0.8570    2.0765 C   0  0  0  0  0  0  0  0  0  0  0  0
    3.0617   -1.5974   -0.0004 O   0  0  0  0  0  0  0  0  0  0  0  0
    3.8934   -3.2311    3.1507 C   0  0  1  0  0  0  0  0  0  0  0  0
    4.8365   -3.1553    4.3520 C   0  0  0  0  0  0  0  0  0  0  0  0
    2.7038   -4.2452    3.4786 C   0  0  2  0  0  0  0  0  0  0  0  0
    1.4194   -3.6612    3.3468 O   0  0  0  0  0  0  0  0  0  0  0  0
    0.9436   -3.1278    4.5700 C   0  0  0  0  0  0  0  0  0  0  0  0
    2.6866   -5.6998    4.0082 C   0  0  2  0  0  0  0  0  0  0  0  0
    4.1454   -6.1958    3.9284 C   0  0  0  0  0  0  0  0  0  0  0  0
    4.3878   -5.7139    2.4957 C   0  0  2  0  0  0  0  0  0  0  0  0
    5.7643   -5.5059    1.9336 C   0  0  0  0  0  0  0  0  0  0  0  0
    6.9416   -5.6801    2.5603 C   0  0  0  0  0  0  0  0  0  0  0  0
    8.3206   -5.5876    1.9444 C   0  0  0  0  0  0  0  0  0  0  0  0
    5.5129   -5.2934    0.4614 C   0  0  1  0  0  0  0  0  0  0  0  0
    4.2060   -6.0748    0.2546 N   0  0  2  0  0  0  0  0  0  0  0  0
    3.0518   -5.2202   -0.1373 C   0  0  0  0  0  0  0  0  0  0  0  0
    2.5594   -4.4171    1.0528 C   0  0  0  0  0  0  0  0  0  0  0  0
    3.5001   -4.4362    2.3053 C   0  0  2  0  0  0  0  0  0  0  0  0
    3.9043   -6.7694    1.5661 C   0  0  2  0  0  0  0  0  0  0  0  0
    2.4650   -7.2650    1.9960 C   0  0  0  0  0  0  0  0  0  0  0  0
    1.8092   -6.5623    3.1529 N   0  0  0  0  0  0  0  0  0  0  0  0
    0.9135   -7.4221    3.8985 C   0  0  0  0  0  0  0  0  0  0  0  0
    4.9051   -2.0214   -2.6519 H   0  0  0  0  0  0  0  0  0  0  0  0
    6.6291   -1.9322   -2.2947 H   0  0  0  0  0  0  0  0  0  0  0  0
    5.4328   -1.2612   -1.1684 H   0  0  0  0  0  0  0  0  0  0  0  0
    5.5576   -4.2582   -1.9462 H   0  0  0  0  0  0  0  0  0  0  0  0
    6.4421   -3.0228    1.8909 H   0  0  0  0  0  0  0  0  0  0  0  0
    6.0950   -1.8261    0.7750 H   0  0  0  0  0  0  0  0  0  0  0  0
    4.8897   -1.4634    2.6643 H   0  0  0  0  0  0  0  0  0  0  0  0
    3.9892   -0.2778    1.1988 H   0  0  0  0  0  0  0  0  0  0  0  0
    2.3799   -0.4585    3.0746 H   0  0  0  0  0  0  0  0  0  0  0  0
    1.4882   -1.7252    2.1818 H   0  0  0  0  0  0  0  0  0  0  0  0
    1.5563   -0.0961    1.5418 H   0  0  0  0  0  0  0  0  0  0  0  0
    2.1574   -1.3271   -0.2107 H   0  0  0  0  0  0  0  0  0  0  0  0
    4.3828   -3.6329    5.2159 H   0  0  0  0  0  0  0  0  0  0  0  0
    5.0583   -2.1284    4.6594 H   0  0  0  0  0  0  0  0  0  0  0  0
    5.7705   -3.6655    4.1304 H   0  0  0  0  0  0  0  0  0  0  0  0
    0.0034   -2.6182    4.3834 H   0  0  0  0  0  0  0  0  0  0  0  0
    1.6240   -2.3864    4.9884 H   0  0  0  0  0  0  0  0  0  0  0  0
    0.7505   -3.8905    5.3270 H   0  0  0  0  0  0  0  0  0  0  0  0
    2.3171   -5.6743    5.0341 H   0  0  0  0  0  0  0  0  0  0  0  0
    4.7822   -5.7062    4.6536 H   0  0  0  0  0  0  0  0  0  0  0  0
    4.2420   -7.2777    4.0742 H   0  0  0  0  0  0  0  0  0  0  0  0
    6.9224   -5.9430    3.5998 H   0  0  0  0  0  0  0  0  0  0  0  0
    8.9139   -4.8446    2.4717 H   0  0  0  0  0  0  0  0  0  0  0  0
    8.2938   -5.3076    0.8934 H   0  0  0  0  0  0  0  0  0  0  0  0
    8.8521   -6.5360    2.0415 H   0  0  0  0  0  0  0  0  0  0  0  0
    6.3006   -5.7954   -0.0994 H   0  0  0  0  0  0  0  0  0  0  0  0
    3.2923   -4.6172   -1.0021 H   0  0  0  0  0  0  0  0  0  0  0  0
    2.2607   -5.8911   -0.4707 H   0  0  0  0  0  0  0  0  0  0  0  0
    2.2165   -3.4522    0.7700 H   0  0  0  0  0  0  0  0  0  0  0  0
    1.6434   -4.9625    1.3284 H   0  0  0  0  0  0  0  0  0  0  0  0
    4.5640   -7.6394    1.6020 H   0  0  0  0  0  0  0  0  0  0  0  0
    1.7911   -7.3230    1.1420 H   0  0  0  0  0  0  0  0  0  0  0  0
    2.6024   -8.3038    2.2916 H   0  0  0  0  0  0  0  0  0  0  0  0
    0.2190   -7.9311    3.2298 H   0  0  0  0  0  0  0  0  0  0  0  0
    0.3229   -6.8511    4.6179 H   0  0  0  0  0  0  0  0  0  0  0  0
    1.4883   -8.1718    4.4356 H   0  0  0  0  0  0  0  0  0  0  0  0
    4.3550   -6.7671   -0.4817 H   0  0  0  0  0  0  0  0  0  0  0  0
  1  2  1  0
  1 29  1  0
  1 30  1  0
  1 31  1  0
  2  3  2  3
  2 32  1  0
  3 20  1  0
  3  4  1  0
  4  5  1  0
  4 33  1  0
  4 34  1  0
  5  6  1  0
  5  9  1  0
  5 35  1  1
  6  7  1  0
  6  8  1  0
  6 36  1  6
  7 37  1  0
  7 38  1  0
  7 39  1  0
  8 40  1  0
  9 24  1  0
  9 10  1  1
  9 11  1  0
 10 41  1  0
 10 42  1  0
 10 43  1  0
 11 24  1  0
 11 12  1  6
 11 14  1  0
 12 13  1  0
 13 44  1  0
 13 45  1  0
 13 46  1  0
 14 27  1  0
 14 15  1  0
 14 47  1  1
 16 15  1  1
 15 48  1  0
 15 49  1  0
 16 24  1  0
 16 25  1  0
 16 17  1  0
 17 18  2  3
 17 20  1  0
 18 19  1  0
 18 50  1  0
 19 51  1  0
 19 52  1  0
 19 53  1  0
 20 21  1  0
 20 54  1  6
 21 22  1  0
 21 25  1  0
 21 65  1  6
 22 23  1  0
 22 55  1  0
 22 56  1  0
 24 23  1  6
 23 57  1  0
 23 58  1  0
 25 26  1  0
 25 59  1  6
 26 27  1  0
 26 60  1  0
 26 61  1  0
 27 28  1  0
 28 62  1  0
 28 63  1  0
 28 64  1  0
M  CHG  1  21   1
M  END
>  <i_m_ct_stereo_status>  (113) 
1

>  <s_m_source_file>  (113) 
/var/tmp/pbs.5076255.sched01/tmpuxvxg9lz/41q4u19exn.sdf

>  <i_m_source_file_index>  (113) 
6

>  <i_lp_mmshare_version>  (113) 
48012

>  <i_f3d_flags>  (113) 
0

>  <s_epik_input>  (113) 
W0NIM11bQ0BIXShbT0hdKVtDQEBIXTFbQ0gyXVxDKD1bQ0hdXFtDSDNdKVtDQEBIXShDXDI9W0NIXVxbQ0gzXSlOKFtDSDJdW0NIMl0zKVtDQEBIXTRbQ0gyXU4oW0NIM10pW0NAQEhdKFtDSDJdNSlbQ0BdNihbQ0BAXTEoW0NIM10pW0NAXTM2W0NAXTI0NSlPW0NIM10=

>  <s_epik_cmdline>  (113) 
J2VwaWtfcHl0aG9uJywgJy1waHQnLCAnMi4wJywgJy1waCcsICc3LjAnLCAnLXRuJywgJzgnLCAnLW1hJywgJzIwMCcsICctaW1hZScsICc8aW5maWxlLm1hZT4nLCAnLW9tYWUnLCAnPG91dGZpbGUubWFlPic=

>  <r_epik_Ionization_Penalty>  (113) 
0.0204399

>  <r_epik_Ionization_Penalty_Charging>  (113) 
0.0174143

>  <r_epik_Ionization_Penalty_Neutral>  (113) 
0.00302556

>  <r_epik_State_Penalty>  (113) 
0.382901

>  <r_epik_Charging_Adjusted_Penalty>  (113) 
0.400315

>  <i_epik_Tot_Q>  (113) 
1

>  <i_epik_Tot_abs_Q>  (113) 
1

>  <s_lp_Force_Field>  (113) 
OPLS3e

>  <r_lp_Energy>  (113) 
129.233

>  <b_lp_Chiralities_Consistent>  (113) 
1

>  <s_lp_Variant>  (113) 
30:0-4

>  <s_i_glide_gridfile>  (113) 
pfpi4k_grid

>  <i_i_glide_lignum>  (113) 
6

>  <i_i_glide_rotatable_bonds>  (113) 
3

>  <r_i_docking_score>  (113) 
-2.93444

>  <r_i_glide_ligand_efficiency>  (113) 
-0.104801

>  <r_i_glide_ligand_efficiency_sa>  (113) 
-0.318239

>  <r_i_glide_ligand_efficiency_ln>  (113) 
-0.677355

>  <r_i_glide_gscore>  (113) 
-2.93444

>  <r_i_glide_lipo>  (113) 
-0.523213

>  <r_i_glide_hbond>  (113) 
-0.16

>  <r_i_glide_metal>  (113) 
-0

>  <r_i_glide_rewards>  (113) 
-0.780254

>  <r_i_glide_evdw>  (113) 
-14.833

>  <r_i_glide_ecoul>  (113) 
-5.73458

>  <r_i_glide_erotb>  (113) 
0.130866

>  <r_i_glide_esite>  (113) 
0

>  <r_i_glide_emodel>  (113) 
-23.2282

>  <r_i_glide_energy>  (113) 
-20.5676

>  <r_i_glide_einternal>  (113) 
2.79372

>  <r_i_glide_intrahb_reward>  (113) 
-0

>  <i_i_glide_confnum>  (113) 
1

>  <i_i_glide_posenum>  (113) 
40

>  <r_i_glide_eff_state_penalty>  (113) 
0

>  <ligand_id>  (113) 
30

>  <original_smiles>  (113) 
CC=C1CC(C(C)O)C2(C)C3(OC)C4CC56C(=CC)C1N(CCC523)C6CN4C

>  <smiles>  (113) 
[H]OC([H])(C([H])([H])[H])C1([H])C([H])([H])C(=C([H])C([H])([H])[H])C2([H])C(=C([H])C([H])([H])[H])C34C([H])([H])C5([H])N(C([H])([H])[H])C([H])([H])C3([H])[N+]2([H])C([H])([H])C([H])([H])C42C5(OC([H])([H])[H])C12C([H])([H])[H]

$$$$
30:3:1
     RDKit          3D

 65 70  0  0  1  0  0  0  0  0999 V2000
    3.8460   -1.0513   -2.6230 C   0  0  0  0  0  0  0  0  0  0  0  0
    4.3022   -2.3802   -2.0565 C   0  0  0  0  0  0  0  0  0  0  0  0
    4.7761   -2.6517   -0.8181 C   0  0  0  0  0  0  0  0  0  0  0  0
    5.0723   -1.5339    0.2217 C   0  0  0  0  0  0  0  0  0  0  0  0
    4.1603   -1.2805    1.4977 C   0  0  1  0  0  0  0  0  0  0  0  0
    2.7846   -0.5773    1.2574 C   0  0  2  0  0  0  0  0  0  0  0  0
    2.6667    0.8476    1.8063 C   0  0  0  0  0  0  0  0  0  0  0  0
    1.6383   -1.2040    1.7699 O   0  0  0  0  0  0  0  0  0  0  0  0
    4.3056   -2.3505    2.6277 C   0  0  1  0  0  0  0  0  0  0  0  0
    5.5735   -2.0189    3.3915 C   0  0  0  0  0  0  0  0  0  0  0  0
    3.5712   -3.5846    3.2873 C   0  0  2  0  0  0  0  0  0  0  0  0
    2.2454   -3.2546    3.6591 O   0  0  0  0  0  0  0  0  0  0  0  0
    2.1663   -2.7358    4.9699 C   0  0  0  0  0  0  0  0  0  0  0  0
    4.0594   -4.9799    3.7424 C   0  0  2  0  0  0  0  0  0  0  0  0
    5.4651   -5.1460    3.1282 C   0  0  0  0  0  0  0  0  0  0  0  0
    5.0789   -4.6805    1.7271 C   0  0  2  0  0  0  0  0  0  0  0  0
    6.0876   -4.1987    0.7162 C   0  0  0  0  0  0  0  0  0  0  0  0
    7.4101   -4.0874    0.8610 C   0  0  0  0  0  0  0  0  0  0  0  0
    8.4210   -3.7053   -0.2085 C   0  0  0  0  0  0  0  0  0  0  0  0
    5.2668   -4.1046   -0.5498 C   0  0  1  0  0  0  0  0  0  0  0  0
    4.2010   -5.1811   -0.3010 N   0  0  2  0  0  0  0  0  0  0  0  0
    2.8177   -4.6716   -0.2485 C   0  0  0  0  0  0  0  0  0  0  0  0
    2.6296   -3.8848    1.0381 C   0  0  0  0  0  0  0  0  0  0  0  0
    3.9271   -3.6423    1.9041 C   0  0  2  0  0  0  0  0  0  0  0  0
    4.5530   -5.8665    0.9992 C   0  0  2  0  0  0  0  0  0  0  0  0
    3.5112   -6.6465    1.8883 C   0  0  0  0  0  0  0  0  0  0  0  0
    3.1596   -6.0583    3.2255 N   0  0  0  0  0  0  0  0  0  0  0  0
    2.8337   -7.0707    4.2108 C   0  0  0  0  0  0  0  0  0  0  0  0
    2.8628   -1.1755   -3.0796 H   0  0  0  0  0  0  0  0  0  0  0  0
    4.5343   -0.6938   -3.3908 H   0  0  0  0  0  0  0  0  0  0  0  0
    3.7626   -0.2662   -1.8771 H   0  0  0  0  0  0  0  0  0  0  0  0
    4.2195   -3.1985   -2.7581 H   0  0  0  0  0  0  0  0  0  0  0  0
    6.1159   -1.6356    0.5408 H   0  0  0  0  0  0  0  0  0  0  0  0
    5.1359   -0.5928   -0.3072 H   0  0  0  0  0  0  0  0  0  0  0  0
    4.7258   -0.4325    1.8871 H   0  0  0  0  0  0  0  0  0  0  0  0
    2.6364   -0.5398    0.1852 H   0  0  0  0  0  0  0  0  0  0  0  0
    3.4668    1.4881    1.4463 H   0  0  0  0  0  0  0  0  0  0  0  0
    2.7023    0.8307    2.8957 H   0  0  0  0  0  0  0  0  0  0  0  0
    1.7138    1.2948    1.5060 H   0  0  0  0  0  0  0  0  0  0  0  0
    1.0084   -1.1625    1.0609 H   0  0  0  0  0  0  0  0  0  0  0  0
    5.6126   -2.5655    4.3228 H   0  0  0  0  0  0  0  0  0  0  0  0
    5.6638   -0.9609    3.6572 H   0  0  0  0  0  0  0  0  0  0  0  0
    6.4030   -2.2805    2.7464 H   0  0  0  0  0  0  0  0  0  0  0  0
    1.1295   -2.4749    5.1852 H   0  0  0  0  0  0  0  0  0  0  0  0
    2.7561   -1.8296    5.1158 H   0  0  0  0  0  0  0  0  0  0  0  0
    2.4681   -3.4714    5.7129 H   0  0  0  0  0  0  0  0  0  0  0  0
    4.1025   -4.9950    4.8315 H   0  0  0  0  0  0  0  0  0  0  0  0
    6.1741   -4.4941    3.6147 H   0  0  0  0  0  0  0  0  0  0  0  0
    5.8629   -6.1716    3.1821 H   0  0  0  0  0  0  0  0  0  0  0  0
    7.8425   -4.3149    1.8205 H   0  0  0  0  0  0  0  0  0  0  0  0
    8.9851   -2.8338    0.1192 H   0  0  0  0  0  0  0  0  0  0  0  0
    7.9560   -3.4706   -1.1642 H   0  0  0  0  0  0  0  0  0  0  0  0
    9.1358   -4.5128   -0.3640 H   0  0  0  0  0  0  0  0  0  0  0  0
    5.8456   -4.4308   -1.4059 H   0  0  0  0  0  0  0  0  0  0  0  0
    2.6108   -4.0741   -1.1192 H   0  0  0  0  0  0  0  0  0  0  0  0
    2.1565   -5.5192   -0.3222 H   0  0  0  0  0  0  0  0  0  0  0  0
    2.1651   -2.9855    0.7120 H   0  0  0  0  0  0  0  0  0  0  0  0
    1.9243   -4.4928    1.6230 H   0  0  0  0  0  0  0  0  0  0  0  0
    5.3592   -6.5610    0.7581 H   0  0  0  0  0  0  0  0  0  0  0  0
    2.6109   -6.8832    1.3295 H   0  0  0  0  0  0  0  0  0  0  0  0
    3.9697   -7.6184    2.0695 H   0  0  0  0  0  0  0  0  0  0  0  0
    2.0776   -7.7525    3.8214 H   0  0  0  0  0  0  0  0  0  0  0  0
    2.4349   -6.6226    5.1254 H   0  0  0  0  0  0  0  0  0  0  0  0
    3.7210   -7.6528    4.4679 H   0  0  0  0  0  0  0  0  0  0  0  0
    4.2263   -5.8689   -1.0603 H   0  0  0  0  0  0  0  0  0  0  0  0
  1  2  1  0
  1 29  1  0
  1 30  1  0
  1 31  1  0
  2  3  2  3
  2 32  1  0
  3 20  1  0
  3  4  1  0
  4  5  1  0
  4 33  1  0
  4 34  1  0
  5  6  1  0
  5  9  1  0
  5 35  1  1
  6  7  1  0
  6  8  1  0
  6 36  1  6
  7 37  1  0
  7 38  1  0
  7 39  1  0
  8 40  1  0
  9 24  1  0
  9 10  1  1
  9 11  1  0
 10 41  1  0
 10 42  1  0
 10 43  1  0
 11 24  1  0
 11 12  1  6
 11 14  1  0
 12 13  1  0
 13 44  1  0
 13 45  1  0
 13 46  1  0
 14 27  1  0
 14 15  1  0
 14 47  1  1
 16 15  1  1
 15 48  1  0
 15 49  1  0
 16 24  1  0
 16 25  1  0
 16 17  1  0
 17 18  2  3
 17 20  1  0
 18 19  1  0
 18 50  1  0
 19 51  1  0
 19 52  1  0
 19 53  1  0
 20 21  1  0
 20 54  1  6
 21 22  1  0
 21 25  1  0
 21 65  1  6
 22 23  1  0
 22 55  1  0
 22 56  1  0
 24 23  1  6
 23 57  1  0
 23 58  1  0
 25 26  1  0
 25 59  1  6
 26 27  1  0
 26 60  1  0
 26 61  1  0
 27 28  1  0
 28 62  1  0
 28 63  1  0
 28 64  1  0
M  CHG  1  21   1
M  END
>  <i_m_ct_stereo_status>  (114) 
1

>  <s_m_source_file>  (114) 
/var/tmp/pbs.5076255.sched01/tmpuxvxg9lz/41q4u19exn.sdf

>  <i_m_source_file_index>  (114) 
6

>  <i_lp_mmshare_version>  (114) 
48012

>  <i_f3d_flags>  (114) 
0

>  <s_epik_input>  (114) 
W0NIM11bQ0BIXShbT0hdKVtDQEBIXTFbQ0gyXVxDKD1bQ0hdXFtDSDNdKVtDQEBIXShDXDI9W0NIXVxbQ0gzXSlOKFtDSDJdW0NIMl0zKVtDQEBIXTRbQ0gyXU4oW0NIM10pW0NAQEhdKFtDSDJdNSlbQ0BdNihbQ0BAXTEoW0NIM10pW0NAXTM2W0NAXTI0NSlPW0NIM10=

>  <s_epik_cmdline>  (114) 
J2VwaWtfcHl0aG9uJywgJy1waHQnLCAnMi4wJywgJy1waCcsICc3LjAnLCAnLXRuJywgJzgnLCAnLW1hJywgJzIwMCcsICctaW1hZScsICc8aW5maWxlLm1hZT4nLCAnLW9tYWUnLCAnPG91dGZpbGUubWFlPic=

>  <r_epik_Ionization_Penalty>  (114) 
0.0204399

>  <r_epik_Ionization_Penalty_Charging>  (114) 
0.0174143

>  <r_epik_Ionization_Penalty_Neutral>  (114) 
0.00302556

>  <r_epik_State_Penalty>  (114) 
0.382901

>  <r_epik_Charging_Adjusted_Penalty>  (114) 
0.400315

>  <i_epik_Tot_Q>  (114) 
1

>  <i_epik_Tot_abs_Q>  (114) 
1

>  <s_lp_Force_Field>  (114) 
OPLS3e

>  <r_lp_Energy>  (114) 
129.233

>  <b_lp_Chiralities_Consistent>  (114) 
1

>  <s_lp_Variant>  (114) 
30:0-4

>  <s_i_glide_gridfile>  (114) 
pfpi4k_grid

>  <i_i_glide_lignum>  (114) 
6

>  <i_i_glide_rotatable_bonds>  (114) 
3

>  <r_i_docking_score>  (114) 
-2.84595

>  <r_i_glide_ligand_efficiency>  (114) 
-0.101641

>  <r_i_glide_ligand_efficiency_sa>  (114) 
-0.308642

>  <r_i_glide_ligand_efficiency_ln>  (114) 
-0.656928

>  <r_i_glide_gscore>  (114) 
-2.84595

>  <r_i_glide_lipo>  (114) 
-0.633445

>  <r_i_glide_hbond>  (114) 
0

>  <r_i_glide_metal>  (114) 
-0

>  <r_i_glide_rewards>  (114) 
-0.780254

>  <r_i_glide_evdw>  (114) 
-16.6527

>  <r_i_glide_ecoul>  (114) 
-4.64465

>  <r_i_glide_erotb>  (114) 
0.130866

>  <r_i_glide_esite>  (114) 
-0.0337812

>  <r_i_glide_emodel>  (114) 
-21.2758

>  <r_i_glide_energy>  (114) 
-21.2973

>  <r_i_glide_einternal>  (114) 
6.29523

>  <r_i_glide_intrahb_reward>  (114) 
-0

>  <i_i_glide_confnum>  (114) 
1

>  <i_i_glide_posenum>  (114) 
5

>  <r_i_glide_eff_state_penalty>  (114) 
0

>  <ligand_id>  (114) 
30

>  <original_smiles>  (114) 
CC=C1CC(C(C)O)C2(C)C3(OC)C4CC56C(=CC)C1N(CCC523)C6CN4C

>  <smiles>  (114) 
[H]OC([H])(C([H])([H])[H])C1([H])C([H])([H])C(=C([H])C([H])([H])[H])C2([H])C(=C([H])C([H])([H])[H])C34C([H])([H])C5([H])N(C([H])([H])[H])C([H])([H])C3([H])[N+]2([H])C([H])([H])C([H])([H])C42C5(OC([H])([H])[H])C12C([H])([H])[H]

$$$$
30:3:2
     RDKit          3D

 65 70  0  0  1  0  0  0  0  0999 V2000
    4.2162   -0.1346   -2.3442 C   0  0  0  0  0  0  0  0  0  0  0  0
    4.6838   -1.5482   -2.1579 C   0  0  0  0  0  0  0  0  0  0  0  0
    5.1112   -2.1339   -1.0056 C   0  0  0  0  0  0  0  0  0  0  0  0
    5.4075   -1.3591    0.3286 C   0  0  0  0  0  0  0  0  0  0  0  0
    4.4429   -1.3881    1.5919 C   0  0  1  0  0  0  0  0  0  0  0  0
    3.1205   -0.5841    1.4331 C   0  0  2  0  0  0  0  0  0  0  0  0
    3.3332    0.9294    1.4789 C   0  0  0  0  0  0  0  0  0  0  0  0
    2.2178   -0.8537    2.4853 O   0  0  0  0  0  0  0  0  0  0  0  0
    4.4318   -2.7242    2.4007 C   0  0  1  0  0  0  0  0  0  0  0  0
    5.6970   -2.7353    3.2087 C   0  0  0  0  0  0  0  0  0  0  0  0
    3.5871   -4.0410    2.6883 C   0  0  2  0  0  0  0  0  0  0  0  0
    2.2506   -3.7324    3.0631 O   0  0  0  0  0  0  0  0  0  0  0  0
    2.1401   -3.5835    4.4656 C   0  0  0  0  0  0  0  0  0  0  0  0
    3.9716   -5.5484    2.7596 C   0  0  2  0  0  0  0  0  0  0  0  0
    5.3912   -5.6477    2.1669 C   0  0  0  0  0  0  0  0  0  0  0  0
    5.1124   -4.7579    0.9582 C   0  0  2  0  0  0  0  0  0  0  0  0
    6.1861   -4.1040    0.1366 C   0  0  0  0  0  0  0  0  0  0  0  0
    7.5309   -4.1649    0.3306 C   0  0  0  0  0  0  0  0  0  0  0  0
    8.5956   -3.5941   -0.5746 C   0  0  0  0  0  0  0  0  0  0  0  0
    5.4659   -3.6349   -1.0921 C   0  0  1  0  0  0  0  0  0  0  0  0
    4.2914   -4.5878   -1.1209 N   0  0  2  0  0  0  0  0  0  0  0  0
    2.9762   -3.9581   -0.9940 C   0  0  0  0  0  0  0  0  0  0  0  0
    2.7610   -3.6187    0.4602 C   0  0  0  0  0  0  0  0  0  0  0  0
    4.0250   -3.7341    1.3757 C   0  0  2  0  0  0  0  0  0  0  0  0
    4.5336   -5.6277   -0.0810 C   0  0  2  0  0  0  0  0  0  0  0  0
    3.4166   -6.5565    0.5163 C   0  0  0  0  0  0  0  0  0  0  0  0
    3.0250   -6.3614    1.9461 N   0  0  0  0  0  0  0  0  0  0  0  0
    2.5758   -7.5931    2.5777 C   0  0  0  0  0  0  0  0  0  0  0  0
    3.2487   -0.0438   -2.8045 H   0  0  0  0  0  0  0  0  0  0  0  0
    4.9010    0.4797   -2.9729 H   0  0  0  0  0  0  0  0  0  0  0  0
    4.2238    0.2563   -1.3588 H   0  0  0  0  0  0  0  0  0  0  0  0
    4.5816   -2.1539   -3.0513 H   0  0  0  0  0  0  0  0  0  0  0  0
    6.4159   -1.6254    0.6440 H   0  0  0  0  0  0  0  0  0  0  0  0
    5.5645   -0.3211    0.0712 H   0  0  0  0  0  0  0  0  0  0  0  0
    4.9778   -0.7096    2.2484 H   0  0  0  0  0  0  0  0  0  0  0  0
    2.6534   -0.7656    0.4668 H   0  0  0  0  0  0  0  0  0  0  0  0
    4.0552    1.2177    0.7218 H   0  0  0  0  0  0  0  0  0  0  0  0
    3.7111    1.2701    2.4409 H   0  0  0  0  0  0  0  0  0  0  0  0
    2.3956    1.4473    1.2810 H   0  0  0  0  0  0  0  0  0  0  0  0
    2.5878   -0.5020    3.2756 H   0  0  0  0  0  0  0  0  0  0  0  0
    5.6091   -3.5133    3.9688 H   0  0  0  0  0  0  0  0  0  0  0  0
    5.7524   -1.8122    3.7853 H   0  0  0  0  0  0  0  0  0  0  0  0
    6.5693   -2.8656    2.5481 H   0  0  0  0  0  0  0  0  0  0  0  0
    1.1174   -3.3139    4.7063 H   0  0  0  0  0  0  0  0  0  0  0  0
    2.7842   -2.7995    4.8700 H   0  0  0  0  0  0  0  0  0  0  0  0
    2.3616   -4.5170    4.9811 H   0  0  0  0  0  0  0  0  0  0  0  0
    3.9412   -5.8603    3.7926 H   0  0  0  0  0  0  0  0  0  0  0  0
    6.1585   -5.2208    2.7999 H   0  0  0  0  0  0  0  0  0  0  0  0
    5.7037   -6.6701    1.9176 H   0  0  0  0  0  0  0  0  0  0  0  0
    7.8671   -4.6834    1.2077 H   0  0  0  0  0  0  0  0  0  0  0  0
    9.1889   -2.8842   -0.0060 H   0  0  0  0  0  0  0  0  0  0  0  0
    8.1935   -3.0810   -1.4418 H   0  0  0  0  0  0  0  0  0  0  0  0
    9.2634   -4.3769   -0.9201 H   0  0  0  0  0  0  0  0  0  0  0  0
    6.0851   -3.7845   -1.9746 H   0  0  0  0  0  0  0  0  0  0  0  0
    2.8262   -3.1438   -1.7090 H   0  0  0  0  0  0  0  0  0  0  0  0
    2.1590   -4.6319   -1.2444 H   0  0  0  0  0  0  0  0  0  0  0  0
    2.2261   -2.6835    0.4975 H   0  0  0  0  0  0  0  0  0  0  0  0
    2.0030   -4.3453    0.7797 H   0  0  0  0  0  0  0  0  0  0  0  0
    5.2769   -6.2799   -0.5026 H   0  0  0  0  0  0  0  0  0  0  0  0
    2.4993   -6.4866   -0.0552 H   0  0  0  0  0  0  0  0  0  0  0  0
    3.8047   -7.5811    0.4170 H   0  0  0  0  0  0  0  0  0  0  0  0
    1.8035   -8.0723    1.9771 H   0  0  0  0  0  0  0  0  0  0  0  0
    2.1541   -7.3846    3.5590 H   0  0  0  0  0  0  0  0  0  0  0  0
    3.4057   -8.2852    2.6812 H   0  0  0  0  0  0  0  0  0  0  0  0
    4.2593   -5.0596   -1.9710 H   0  0  0  0  0  0  0  0  0  0  0  0
  1  2  1  0
  1 29  1  0
  1 30  1  0
  1 31  1  0
  2  3  2  3
  2 32  1  0
  3 20  1  0
  3  4  1  0
  4  5  1  0
  4 33  1  0
  4 34  1  0
  5  6  1  0
  5  9  1  0
  5 35  1  1
  6  7  1  0
  6  8  1  0
  6 36  1  6
  7 37  1  0
  7 38  1  0
  7 39  1  0
  8 40  1  0
  9 24  1  0
  9 10  1  1
  9 11  1  0
 10 41  1  0
 10 42  1  0
 10 43  1  0
 11 24  1  0
 11 12  1  6
 11 14  1  0
 12 13  1  0
 13 44  1  0
 13 45  1  0
 13 46  1  0
 14 27  1  0
 14 15  1  0
 14 47  1  1
 16 15  1  1
 15 48  1  0
 15 49  1  0
 16 24  1  0
 16 25  1  0
 16 17  1  0
 17 18  2  3
 17 20  1  0
 18 19  1  0
 18 50  1  0
 19 51  1  0
 19 52  1  0
 19 53  1  0
 20 21  1  0
 20 54  1  6
 21 22  1  0
 21 25  1  0
 21 65  1  6
 22 23  1  0
 22 55  1  0
 22 56  1  0
 24 23  1  6
 23 57  1  0
 23 58  1  0
 25 26  1  0
 25 59  1  6
 26 27  1  0
 26 60  1  0
 26 61  1  0
 27 28  1  0
 28 62  1  0
 28 63  1  0
 28 64  1  0
M  CHG  1  21   1
M  END
>  <i_m_ct_stereo_status>  (115) 
1

>  <s_m_source_file>  (115) 
/var/tmp/pbs.5076255.sched01/tmpuxvxg9lz/41q4u19exn.sdf

>  <i_m_source_file_index>  (115) 
6

>  <i_lp_mmshare_version>  (115) 
48012

>  <i_f3d_flags>  (115) 
0

>  <s_epik_input>  (115) 
W0NIM11bQ0BIXShbT0hdKVtDQEBIXTFbQ0gyXVxDKD1bQ0hdXFtDSDNdKVtDQEBIXShDXDI9W0NIXVxbQ0gzXSlOKFtDSDJdW0NIMl0zKVtDQEBIXTRbQ0gyXU4oW0NIM10pW0NAQEhdKFtDSDJdNSlbQ0BdNihbQ0BAXTEoW0NIM10pW0NAXTM2W0NAXTI0NSlPW0NIM10=

>  <s_epik_cmdline>  (115) 
J2VwaWtfcHl0aG9uJywgJy1waHQnLCAnMi4wJywgJy1waCcsICc3LjAnLCAnLXRuJywgJzgnLCAnLW1hJywgJzIwMCcsICctaW1hZScsICc8aW5maWxlLm1hZT4nLCAnLW9tYWUnLCAnPG91dGZpbGUubWFlPic=

>  <r_epik_Ionization_Penalty>  (115) 
0.0204399

>  <r_epik_Ionization_Penalty_Charging>  (115) 
0.0174143

>  <r_epik_Ionization_Penalty_Neutral>  (115) 
0.00302556

>  <r_epik_State_Penalty>  (115) 
0.382901

>  <r_epik_Charging_Adjusted_Penalty>  (115) 
0.400315

>  <i_epik_Tot_Q>  (115) 
1

>  <i_epik_Tot_abs_Q>  (115) 
1

>  <s_lp_Force_Field>  (115) 
OPLS3e

>  <r_lp_Energy>  (115) 
129.233

>  <b_lp_Chiralities_Consistent>  (115) 
1

>  <s_lp_Variant>  (115) 
30:0-4

>  <s_i_glide_gridfile>  (115) 
pfpi4k_grid

>  <i_i_glide_lignum>  (115) 
6

>  <i_i_glide_rotatable_bonds>  (115) 
3

>  <r_i_docking_score>  (115) 
-2.48319

>  <r_i_glide_ligand_efficiency>  (115) 
-0.0886854

>  <r_i_glide_ligand_efficiency_sa>  (115) 
-0.269301

>  <r_i_glide_ligand_efficiency_ln>  (115) 
-0.573193

>  <r_i_glide_gscore>  (115) 
-2.48319

>  <r_i_glide_lipo>  (115) 
-0.721154

>  <r_i_glide_hbond>  (115) 
0

>  <r_i_glide_metal>  (115) 
-0

>  <r_i_glide_rewards>  (115) 
-0.780254

>  <r_i_glide_evdw>  (115) 
-11.2867

>  <r_i_glide_ecoul>  (115) 
-3.38834

>  <r_i_glide_erotb>  (115) 
0.130866

>  <r_i_glide_esite>  (115) 
-0.0400628

>  <r_i_glide_emodel>  (115) 
-17.388

>  <r_i_glide_energy>  (115) 
-14.6751

>  <r_i_glide_einternal>  (115) 
1.04941

>  <r_i_glide_intrahb_reward>  (115) 
-0

>  <i_i_glide_confnum>  (115) 
1

>  <i_i_glide_posenum>  (115) 
22

>  <r_i_glide_eff_state_penalty>  (115) 
0

>  <ligand_id>  (115) 
30

>  <original_smiles>  (115) 
CC=C1CC(C(C)O)C2(C)C3(OC)C4CC56C(=CC)C1N(CCC523)C6CN4C

>  <smiles>  (115) 
[H]OC([H])(C([H])([H])[H])C1([H])C([H])([H])C(=C([H])C([H])([H])[H])C2([H])C(=C([H])C([H])([H])[H])C34C([H])([H])C5([H])N(C([H])([H])[H])C([H])([H])C3([H])[N+]2([H])C([H])([H])C([H])([H])C42C5(OC([H])([H])[H])C12C([H])([H])[H]

$$$$
30:4:0
     RDKit          3D

 65 70  0  0  1  0  0  0  0  0999 V2000
    3.1758   -7.2593    3.8160 C   0  0  0  0  0  0  0  0  0  0  0  0
    4.4323   -6.4492    3.5427 C   0  0  0  0  0  0  0  0  0  0  0  0
    4.5088   -5.2325    2.9606 C   0  0  0  0  0  0  0  0  0  0  0  0
    5.9064   -4.5375    2.8916 C   0  0  0  0  0  0  0  0  0  0  0  0
    6.7522   -4.2707    1.5596 C   0  0  1  0  0  0  0  0  0  0  0  0
    7.6187   -5.4206    0.9301 C   0  0  2  0  0  0  0  0  0  0  0  0
    8.3104   -6.3339    1.9416 C   0  0  0  0  0  0  0  0  0  0  0  0
    8.7032   -4.8814    0.2033 O   0  0  0  0  0  0  0  0  0  0  0  0
    6.1277   -3.2261    0.5869 C   0  0  1  0  0  0  0  0  0  0  0  0
    6.5272   -1.8176    1.0231 C   0  0  0  0  0  0  0  0  0  0  0  0
    5.3601   -3.1494   -0.8001 C   0  0  2  0  0  0  0  0  0  0  0  0
    5.9530   -3.8640   -1.8413 O   0  0  0  0  0  0  0  0  0  0  0  0
    7.2256   -3.3606   -2.2281 C   0  0  0  0  0  0  0  0  0  0  0  0
    4.1832   -2.3183   -1.2957 C   0  0  2  0  0  0  0  0  0  0  0  0
    3.6044   -1.6860   -0.0267 C   0  0  0  0  0  0  0  0  0  0  0  0
    3.5731   -2.9749    0.8129 C   0  0  2  0  0  0  0  0  0  0  0  0
    3.4859   -2.9886    2.3095 C   0  0  0  0  0  0  0  0  0  0  0  0
    3.4280   -1.9997    3.2273 C   0  0  0  0  0  0  0  0  0  0  0  0
    3.5015   -0.4971    3.0396 C   0  0  0  0  0  0  0  0  0  0  0  0
    3.2048   -4.4478    2.5705 C   0  0  1  0  0  0  0  0  0  0  0  0
    2.4396   -4.8867    1.3461 N   0  0  0  0  0  0  0  0  0  0  0  0
    3.1115   -5.8978    0.5583 C   0  0  0  0  0  0  0  0  0  0  0  0
    4.4517   -5.3493    0.0422 C   0  0  0  0  0  0  0  0  0  0  0  0
    4.7468   -3.8258    0.3155 C   0  0  2  0  0  0  0  0  0  0  0  0
    2.2941   -3.6750    0.5053 C   0  0  2  0  0  0  0  0  0  0  0  0
    2.0216   -3.7124   -1.0446 C   0  0  0  0  0  0  0  0  0  0  0  0
    3.1620   -3.2426   -1.9343 N   0  0  1  0  0  0  0  0  0  0  0  0
    2.6640   -2.7399   -3.2414 C   0  0  0  0  0  0  0  0  0  0  0  0
    3.2456   -8.2230    3.3106 H   0  0  0  0  0  0  0  0  0  0  0  0
    2.2644   -6.7695    3.4770 H   0  0  0  0  0  0  0  0  0  0  0  0
    3.0815   -7.4493    4.8858 H   0  0  0  0  0  0  0  0  0  0  0  0
    5.3436   -6.9288    3.8695 H   0  0  0  0  0  0  0  0  0  0  0  0
    5.7965   -3.5842    3.4114 H   0  0  0  0  0  0  0  0  0  0  0  0
    6.5541   -5.0833    3.5718 H   0  0  0  0  0  0  0  0  0  0  0  0
    7.5837   -3.7293    1.9955 H   0  0  0  0  0  0  0  0  0  0  0  0
    7.0904   -6.0386    0.2140 H   0  0  0  0  0  0  0  0  0  0  0  0
    7.6053   -6.9195    2.5272 H   0  0  0  0  0  0  0  0  0  0  0  0
    8.9633   -5.7737    2.6149 H   0  0  0  0  0  0  0  0  0  0  0  0
    8.9426   -7.0417    1.4073 H   0  0  0  0  0  0  0  0  0  0  0  0
    8.9443   -5.5385   -0.4347 H   0  0  0  0  0  0  0  0  0  0  0  0
    6.3619   -1.1059    0.2171 H   0  0  0  0  0  0  0  0  0  0  0  0
    7.5928   -1.7472    1.2447 H   0  0  0  0  0  0  0  0  0  0  0  0
    5.9617   -1.5092    1.8997 H   0  0  0  0  0  0  0  0  0  0  0  0
    7.6433   -4.1174   -2.8758 H   0  0  0  0  0  0  0  0  0  0  0  0
    7.9762   -3.2340   -1.4542 H   0  0  0  0  0  0  0  0  0  0  0  0
    7.1271   -2.4120   -2.7153 H   0  0  0  0  0  0  0  0  0  0  0  0
    4.5689   -1.5932   -2.0104 H   0  0  0  0  0  0  0  0  0  0  0  0
    4.2701   -0.9224    0.3419 H   0  0  0  0  0  0  0  0  0  0  0  0
    2.6294   -1.2218   -0.1833 H   0  0  0  0  0  0  0  0  0  0  0  0
    3.2945   -2.3042    4.2512 H   0  0  0  0  0  0  0  0  0  0  0  0
    2.8303   -0.0122    3.7470 H   0  0  0  0  0  0  0  0  0  0  0  0
    3.1926   -0.1600    2.0525 H   0  0  0  0  0  0  0  0  0  0  0  0
    4.5036   -0.1318    3.2530 H   0  0  0  0  0  0  0  0  0  0  0  0
    2.5220   -4.4946    3.4171 H   0  0  0  0  0  0  0  0  0  0  0  0
    3.2589   -6.8093    1.1441 H   0  0  0  0  0  0  0  0  0  0  0  0
    2.4823   -6.2175   -0.2704 H   0  0  0  0  0  0  0  0  0  0  0  0
    5.1422   -6.0005    0.5527 H   0  0  0  0  0  0  0  0  0  0  0  0
    4.5689   -5.5964   -1.0124 H   0  0  0  0  0  0  0  0  0  0  0  0
    1.5495   -3.0283    0.9673 H   0  0  0  0  0  0  0  0  0  0  0  0
    1.6446   -4.6698   -1.3970 H   0  0  0  0  0  0  0  0  0  0  0  0
    1.1899   -3.0598   -1.2428 H   0  0  0  0  0  0  0  0  0  0  0  0
    2.1686   -1.7885   -3.0925 H   0  0  0  0  0  0  0  0  0  0  0  0
    1.9582   -3.4410   -3.6864 H   0  0  0  0  0  0  0  0  0  0  0  0
    3.4857   -2.5900   -3.9377 H   0  0  0  0  0  0  0  0  0  0  0  0
    3.6619   -4.1001   -2.1623 H   0  0  0  0  0  0  0  0  0  0  0  0
  1  2  1  0
  1 29  1  0
  1 30  1  0
  1 31  1  0
  2  3  2  3
  2 32  1  0
  3 20  1  0
  3  4  1  0
  4  5  1  0
  4 33  1  0
  4 34  1  0
  5  6  1  0
  5  9  1  0
  5 35  1  1
  6  7  1  0
  6  8  1  0
  6 36  1  6
  7 37  1  0
  7 38  1  0
  7 39  1  0
  8 40  1  0
  9 24  1  0
  9 10  1  1
  9 11  1  0
 10 41  1  0
 10 42  1  0
 10 43  1  0
 11 24  1  0
 11 12  1  6
 11 14  1  0
 12 13  1  0
 13 44  1  0
 13 45  1  0
 13 46  1  0
 14 27  1  0
 14 15  1  0
 14 47  1  6
 16 15  1  6
 15 48  1  0
 15 49  1  0
 16 24  1  0
 16 25  1  0
 16 17  1  0
 17 18  2  3
 17 20  1  0
 18 19  1  0
 18 50  1  0
 19 51  1  0
 19 52  1  0
 19 53  1  0
 20 21  1  0
 20 54  1  1
 21 22  1  0
 21 25  1  0
 22 23  1  0
 22 55  1  0
 22 56  1  0
 24 23  1  6
 23 57  1  0
 23 58  1  0
 25 26  1  0
 25 59  1  1
 26 27  1  0
 26 60  1  0
 26 61  1  0
 27 28  1  0
 27 65  1  6
 28 62  1  0
 28 63  1  0
 28 64  1  0
M  CHG  1  27   1
M  END
>  <i_m_ct_stereo_status>  (116) 
1

>  <s_m_source_file>  (116) 
/var/tmp/pbs.5076255.sched01/tmpuxvxg9lz/41q4u19exn.sdf

>  <i_m_source_file_index>  (116) 
7

>  <i_lp_mmshare_version>  (116) 
48012

>  <i_f3d_flags>  (116) 
0

>  <s_epik_input>  (116) 
W0NIM11bQ0BIXShbT0hdKVtDQEBIXTFbQ0gyXVxDKD1bQ0hdXFtDSDNdKVtDQEBIXShDXDI9W0NIXVxbQ0gzXSlOKFtDSDJdW0NIMl0zKVtDQEBIXTRbQ0gyXU4oW0NIM10pW0NAQEhdKFtDSDJdNSlbQ0BdNihbQ0BAXTEoW0NIM10pW0NAXTM2W0NAXTI0NSlPW0NIM10=

>  <s_epik_cmdline>  (116) 
J2VwaWtfcHl0aG9uJywgJy1waHQnLCAnMi4wJywgJy1waCcsICc3LjAnLCAnLXRuJywgJzgnLCAnLW1hJywgJzIwMCcsICctaW1hZScsICc8aW5maWxlLm1hZT4nLCAnLW9tYWUnLCAnPG91dGZpbGUubWFlPic=

>  <r_epik_Ionization_Penalty>  (116) 
0.0375397

>  <r_epik_Ionization_Penalty_Charging>  (116) 
0.0356623

>  <r_epik_Ionization_Penalty_Neutral>  (116) 
0.00187741

>  <r_epik_State_Penalty>  (116) 
0.463209

>  <r_epik_Charging_Adjusted_Penalty>  (116) 
0.498871

>  <i_epik_Tot_Q>  (116) 
1

>  <i_epik_Tot_abs_Q>  (116) 
1

>  <s_lp_Force_Field>  (116) 
OPLS3e

>  <r_lp_Energy>  (116) 
138.8

>  <b_lp_Chiralities_Consistent>  (116) 
1

>  <s_lp_Variant>  (116) 
30:0-5

>  <s_i_glide_gridfile>  (116) 
pfpi4k_grid

>  <i_i_glide_lignum>  (116) 
7

>  <i_i_glide_rotatable_bonds>  (116) 
3

>  <r_i_docking_score>  (116) 
-2.5421

>  <r_i_glide_ligand_efficiency>  (116) 
-0.0907894

>  <r_i_glide_ligand_efficiency_sa>  (116) 
-0.27569

>  <r_i_glide_ligand_efficiency_ln>  (116) 
-0.586792

>  <r_i_glide_gscore>  (116) 
-2.5421

>  <r_i_glide_lipo>  (116) 
-0.570277

>  <r_i_glide_hbond>  (116) 
0

>  <r_i_glide_metal>  (116) 
-0

>  <r_i_glide_rewards>  (116) 
-0.780254

>  <r_i_glide_evdw>  (116) 
-9.5156

>  <r_i_glide_ecoul>  (116) 
-5.64438

>  <r_i_glide_erotb>  (116) 
0.130866

>  <r_i_glide_esite>  (116) 
0

>  <r_i_glide_emodel>  (116) 
-15.9629

>  <r_i_glide_energy>  (116) 
-15.16

>  <r_i_glide_einternal>  (116) 
0.850317

>  <r_i_glide_intrahb_reward>  (116) 
-0

>  <i_i_glide_confnum>  (116) 
1

>  <i_i_glide_posenum>  (116) 
6

>  <r_i_glide_eff_state_penalty>  (116) 
0

>  <ligand_id>  (116) 
30

>  <original_smiles>  (116) 
CC=C1CC(C(C)O)C2(C)C3(OC)C4CC56C(=CC)C1N(CCC523)C6CN4C

>  <smiles>  (116) 
[H]OC([H])(C([H])([H])[H])C1([H])C([H])([H])C(=C([H])C([H])([H])[H])C2([H])C(=C([H])C([H])([H])[H])C34C([H])([H])C5([H])C6(OC([H])([H])[H])C1(C([H])([H])[H])C63C([H])([H])C([H])([H])N2C4([H])C([H])([H])[N+]5([H])C([H])([H])[H]

$$$$
30:4:1
     RDKit          3D

 65 70  0  0  1  0  0  0  0  0999 V2000
    3.0743   -1.9960   -3.4242 C   0  0  0  0  0  0  0  0  0  0  0  0
    3.3860   -1.2789   -2.1192 C   0  0  0  0  0  0  0  0  0  0  0  0
    4.1802   -1.7029   -1.1092 C   0  0  0  0  0  0  0  0  0  0  0  0
    4.4492   -0.7579    0.1149 C   0  0  0  0  0  0  0  0  0  0  0  0
    3.8775   -0.9727    1.5981 C   0  0  1  0  0  0  0  0  0  0  0  0
    2.4163   -0.5707    1.9962 C   0  0  2  0  0  0  0  0  0  0  0  0
    2.0850    0.9077    1.8551 C   0  0  0  0  0  0  0  0  0  0  0  0
    2.2260   -0.7901    3.3760 O   0  0  0  0  0  0  0  0  0  0  0  0
    4.4647   -2.1994    2.3436 C   0  0  1  0  0  0  0  0  0  0  0  0
    5.7888   -1.7725    2.9385 C   0  0  0  0  0  0  0  0  0  0  0  0
    4.0754   -3.6604    2.8090 C   0  0  2  0  0  0  0  0  0  0  0  0
    2.8107   -3.7420    3.4492 O   0  0  0  0  0  0  0  0  0  0  0  0
    2.8931   -3.5055    4.8459 C   0  0  0  0  0  0  0  0  0  0  0  0
    4.8872   -4.9774    2.8317 C   0  0  2  0  0  0  0  0  0  0  0  0
    6.1271   -4.7277    1.9539 C   0  0  0  0  0  0  0  0  0  0  0  0
    5.3961   -4.0600    0.7870 C   0  0  2  0  0  0  0  0  0  0  0  0
    6.0727   -3.1841   -0.2317 C   0  0  0  0  0  0  0  0  0  0  0  0
    7.3434   -2.7896   -0.4170 C   0  0  0  0  0  0  0  0  0  0  0  0
    8.5701   -3.0149    0.4318 C   0  0  0  0  0  0  0  0  0  0  0  0
    4.9824   -3.0360   -1.2524 C   0  0  1  0  0  0  0  0  0  0  0  0
    4.2335   -4.3114   -1.1188 N   0  0  0  0  0  0  0  0  0  0  0  0
    2.8472   -4.1993   -0.7122 C   0  0  0  0  0  0  0  0  0  0  0  0
    2.7904   -3.5907    0.6782 C   0  0  0  0  0  0  0  0  0  0  0  0
    4.1619   -3.3585    1.4131 C   0  0  2  0  0  0  0  0  0  0  0  0
    4.9395   -5.1525   -0.1178 C   0  0  2  0  0  0  0  0  0  0  0  0
    4.2851   -6.3229    0.7068 C   0  0  0  0  0  0  0  0  0  0  0  0
    4.0572   -6.0703    2.1864 N   0  0  1  0  0  0  0  0  0  0  0  0
    4.0585   -7.3270    2.9777 C   0  0  0  0  0  0  0  0  0  0  0  0
    1.9984   -2.1582   -3.4963 H   0  0  0  0  0  0  0  0  0  0  0  0
    3.5553   -2.9691   -3.5202 H   0  0  0  0  0  0  0  0  0  0  0  0
    3.3688   -1.3699   -4.2673 H   0  0  0  0  0  0  0  0  0  0  0  0
    2.8654   -0.3405   -2.0524 H   0  0  0  0  0  0  0  0  0  0  0  0
    5.5319   -0.6487    0.1767 H   0  0  0  0  0  0  0  0  0  0  0  0
    4.1652    0.2369   -0.1836 H   0  0  0  0  0  0  0  0  0  0  0  0
    4.3734   -0.1349    2.0806 H   0  0  0  0  0  0  0  0  0  0  0  0
    1.6431   -1.0996    1.4499 H   0  0  0  0  0  0  0  0  0  0  0  0
    2.1209    1.1656    0.8163 H   0  0  0  0  0  0  0  0  0  0  0  0
    2.7771    1.5573    2.3967 H   0  0  0  0  0  0  0  0  0  0  0  0
    1.0675    1.1117    2.1913 H   0  0  0  0  0  0  0  0  0  0  0  0
    1.3021   -0.7006    3.5476 H   0  0  0  0  0  0  0  0  0  0  0  0
    6.0548   -2.4964    3.7022 H   0  0  0  0  0  0  0  0  0  0  0  0
    5.7293   -0.8058    3.4434 H   0  0  0  0  0  0  0  0  0  0  0  0
    6.5338   -1.7135    2.1453 H   0  0  0  0  0  0  0  0  0  0  0  0
    1.8855   -3.5098    5.2514 H   0  0  0  0  0  0  0  0  0  0  0  0
    3.3376   -2.5405    5.0999 H   0  0  0  0  0  0  0  0  0  0  0  0
    3.4591   -4.2860    5.3525 H   0  0  0  0  0  0  0  0  0  0  0  0
    5.1576   -5.2139    3.8585 H   0  0  0  0  0  0  0  0  0  0  0  0
    6.8022   -4.0617    2.4699 H   0  0  0  0  0  0  0  0  0  0  0  0
    6.6922   -5.6335    1.6915 H   0  0  0  0  0  0  0  0  0  0  0  0
    7.5417   -2.2321   -1.3177 H   0  0  0  0  0  0  0  0  0  0  0  0
    9.4252   -3.1710   -0.2211 H   0  0  0  0  0  0  0  0  0  0  0  0
    8.4955   -3.8679    1.1078 H   0  0  0  0  0  0  0  0  0  0  0  0
    8.7821   -2.0845    0.9451 H   0  0  0  0  0  0  0  0  0  0  0  0
    5.4571   -3.0378   -2.2385 H   0  0  0  0  0  0  0  0  0  0  0  0
    2.2772   -3.6123   -1.4303 H   0  0  0  0  0  0  0  0  0  0  0  0
    2.3705   -5.1754   -0.7170 H   0  0  0  0  0  0  0  0  0  0  0  0
    2.2955   -2.6571    0.4930 H   0  0  0  0  0  0  0  0  0  0  0  0
    2.1106   -4.1823    1.2930 H   0  0  0  0  0  0  0  0  0  0  0  0
    5.8076   -5.5699   -0.6270 H   0  0  0  0  0  0  0  0  0  0  0  0
    3.3864   -6.7133    0.2408 H   0  0  0  0  0  0  0  0  0  0  0  0
    5.0075   -7.1406    0.6515 H   0  0  0  0  0  0  0  0  0  0  0  0
    5.0657   -7.7557    3.0297 H   0  0  0  0  0  0  0  0  0  0  0  0
    3.3951   -8.0660    2.5170 H   0  0  0  0  0  0  0  0  0  0  0  0
    3.7053   -7.1398    3.9961 H   0  0  0  0  0  0  0  0  0  0  0  0
    3.1175   -5.7042    2.2504 H   0  0  0  0  0  0  0  0  0  0  0  0
  1  2  1  0
  1 29  1  0
  1 30  1  0
  1 31  1  0
  2  3  2  3
  2 32  1  0
  3 20  1  0
  3  4  1  0
  4  5  1  0
  4 33  1  0
  4 34  1  0
  5  6  1  0
  5  9  1  0
  5 35  1  1
  6  7  1  0
  6  8  1  0
  6 36  1  6
  7 37  1  0
  7 38  1  0
  7 39  1  0
  8 40  1  0
  9 24  1  0
  9 10  1  1
  9 11  1  0
 10 41  1  0
 10 42  1  0
 10 43  1  0
 11 24  1  0
 11 12  1  6
 11 14  1  0
 12 13  1  0
 13 44  1  0
 13 45  1  0
 13 46  1  0
 14 27  1  0
 14 15  1  0
 14 47  1  1
 16 15  1  1
 15 48  1  0
 15 49  1  0
 16 24  1  0
 16 25  1  0
 16 17  1  0
 17 18  2  3
 17 20  1  0
 18 19  1  0
 18 50  1  0
 19 51  1  0
 19 52  1  0
 19 53  1  0
 20 21  1  0
 20 54  1  6
 21 22  1  0
 21 25  1  0
 22 23  1  0
 22 55  1  0
 22 56  1  0
 24 23  1  6
 23 57  1  0
 23 58  1  0
 25 26  1  0
 25 59  1  6
 26 27  1  0
 26 60  1  0
 26 61  1  0
 27 28  1  0
 27 65  1  6
 28 62  1  0
 28 63  1  0
 28 64  1  0
M  CHG  1  27   1
M  END
>  <i_m_ct_stereo_status>  (117) 
1

>  <s_m_source_file>  (117) 
/var/tmp/pbs.5076255.sched01/tmpuxvxg9lz/41q4u19exn.sdf

>  <i_m_source_file_index>  (117) 
7

>  <i_lp_mmshare_version>  (117) 
48012

>  <i_f3d_flags>  (117) 
0

>  <s_epik_input>  (117) 
W0NIM11bQ0BIXShbT0hdKVtDQEBIXTFbQ0gyXVxDKD1bQ0hdXFtDSDNdKVtDQEBIXShDXDI9W0NIXVxbQ0gzXSlOKFtDSDJdW0NIMl0zKVtDQEBIXTRbQ0gyXU4oW0NIM10pW0NAQEhdKFtDSDJdNSlbQ0BdNihbQ0BAXTEoW0NIM10pW0NAXTM2W0NAXTI0NSlPW0NIM10=

>  <s_epik_cmdline>  (117) 
J2VwaWtfcHl0aG9uJywgJy1waHQnLCAnMi4wJywgJy1waCcsICc3LjAnLCAnLXRuJywgJzgnLCAnLW1hJywgJzIwMCcsICctaW1hZScsICc8aW5maWxlLm1hZT4nLCAnLW9tYWUnLCAnPG91dGZpbGUubWFlPic=

>  <r_epik_Ionization_Penalty>  (117) 
0.0375397

>  <r_epik_Ionization_Penalty_Charging>  (117) 
0.0356623

>  <r_epik_Ionization_Penalty_Neutral>  (117) 
0.00187741

>  <r_epik_State_Penalty>  (117) 
0.463209

>  <r_epik_Charging_Adjusted_Penalty>  (117) 
0.498871

>  <i_epik_Tot_Q>  (117) 
1

>  <i_epik_Tot_abs_Q>  (117) 
1

>  <s_lp_Force_Field>  (117) 
OPLS3e

>  <r_lp_Energy>  (117) 
138.8

>  <b_lp_Chiralities_Consistent>  (117) 
1

>  <s_lp_Variant>  (117) 
30:0-5

>  <s_i_glide_gridfile>  (117) 
pfpi4k_grid

>  <i_i_glide_lignum>  (117) 
7

>  <i_i_glide_rotatable_bonds>  (117) 
3

>  <r_i_docking_score>  (117) 
-2.07788

>  <r_i_glide_ligand_efficiency>  (117) 
-0.0742101

>  <r_i_glide_ligand_efficiency_sa>  (117) 
-0.225346

>  <r_i_glide_ligand_efficiency_ln>  (117) 
-0.479637

>  <r_i_glide_gscore>  (117) 
-2.07788

>  <r_i_glide_lipo>  (117) 
-0.772603

>  <r_i_glide_hbond>  (117) 
0

>  <r_i_glide_metal>  (117) 
-0

>  <r_i_glide_rewards>  (117) 
-0.780254

>  <r_i_glide_evdw>  (117) 
-14.5642

>  <r_i_glide_ecoul>  (117) 
0.48212

>  <r_i_glide_erotb>  (117) 
0.130866

>  <r_i_glide_esite>  (117) 
0

>  <r_i_glide_emodel>  (117) 
-14.5321

>  <r_i_glide_energy>  (117) 
-14.0821

>  <r_i_glide_einternal>  (117) 
1.58047

>  <r_i_glide_intrahb_reward>  (117) 
-0

>  <i_i_glide_confnum>  (117) 
4

>  <i_i_glide_posenum>  (117) 
16

>  <r_i_glide_eff_state_penalty>  (117) 
0

>  <ligand_id>  (117) 
30

>  <original_smiles>  (117) 
CC=C1CC(C(C)O)C2(C)C3(OC)C4CC56C(=CC)C1N(CCC523)C6CN4C

>  <smiles>  (117) 
[H]OC([H])(C([H])([H])[H])C1([H])C([H])([H])C(=C([H])C([H])([H])[H])C2([H])C(=C([H])C([H])([H])[H])C34C([H])([H])C5([H])C6(OC([H])([H])[H])C1(C([H])([H])[H])C63C([H])([H])C([H])([H])N2C4([H])C([H])([H])[N+]5([H])C([H])([H])[H]

$$$$
30:4:2
     RDKit          3D

 65 70  0  0  1  0  0  0  0  0999 V2000
    2.8658   -2.2623   -3.4100 C   0  0  0  0  0  0  0  0  0  0  0  0
    3.1724   -1.4957   -2.1320 C   0  0  0  0  0  0  0  0  0  0  0  0
    4.0158   -1.8369   -1.1351 C   0  0  0  0  0  0  0  0  0  0  0  0
    4.2437   -0.8337    0.0530 C   0  0  0  0  0  0  0  0  0  0  0  0
    3.7457   -1.0354    1.5624 C   0  0  1  0  0  0  0  0  0  0  0  0
    2.2615   -0.7331    1.9833 C   0  0  2  0  0  0  0  0  0  0  0  0
    1.7498    0.6459    1.5626 C   0  0  0  0  0  0  0  0  0  0  0  0
    2.1590   -0.7651    3.3966 O   0  0  0  0  0  0  0  0  0  0  0  0
    4.4456   -2.1923    2.3154 C   0  0  1  0  0  0  0  0  0  0  0  0
    5.7666   -1.6640    2.8619 C   0  0  0  0  0  0  0  0  0  0  0  0
    4.1554   -3.6603    2.8356 C   0  0  2  0  0  0  0  0  0  0  0  0
    2.9111   -3.7836    3.5061 O   0  0  0  0  0  0  0  0  0  0  0  0
    3.0024   -3.5253    4.8991 C   0  0  0  0  0  0  0  0  0  0  0  0
    5.0438   -4.9289    2.8739 C   0  0  2  0  0  0  0  0  0  0  0  0
    6.2367   -4.6259    1.9510 C   0  0  0  0  0  0  0  0  0  0  0  0
    5.4355   -4.0461    0.7916 C   0  0  2  0  0  0  0  0  0  0  0  0
    6.0238   -3.1581   -0.2713 C   0  0  0  0  0  0  0  0  0  0  0  0
    7.2579   -2.6823   -0.5067 C   0  0  0  0  0  0  0  0  0  0  0  0
    8.5219   -2.7878    0.3173 C   0  0  0  0  0  0  0  0  0  0  0  0
    4.8994   -3.1169   -1.2652 C   0  0  1  0  0  0  0  0  0  0  0  0
    4.2462   -4.4417   -1.0680 N   0  0  0  0  0  0  0  0  0  0  0  0
    2.8710   -4.3932   -0.6217 C   0  0  0  0  0  0  0  0  0  0  0  0
    2.8077   -3.7411    0.7474 C   0  0  0  0  0  0  0  0  0  0  0  0
    4.1842   -3.4008    1.4320 C   0  0  2  0  0  0  0  0  0  0  0  0
    5.0241   -5.1906   -0.0671 C   0  0  2  0  0  0  0  0  0  0  0  0
    4.4749   -6.3812    0.8148 C   0  0  0  0  0  0  0  0  0  0  0  0
    4.2684   -6.0928    2.2897 N   0  0  1  0  0  0  0  0  0  0  0  0
    4.3830   -7.3218    3.1104 C   0  0  0  0  0  0  0  0  0  0  0  0
    1.8003   -2.4884   -3.4515 H   0  0  0  0  0  0  0  0  0  0  0  0
    3.4008   -3.2091   -3.4946 H   0  0  0  0  0  0  0  0  0  0  0  0
    3.0983   -1.6488   -4.2812 H   0  0  0  0  0  0  0  0  0  0  0  0
    2.6100   -0.5857   -2.0484 H   0  0  0  0  0  0  0  0  0  0  0  0
    5.3138   -0.6333    0.0649 H   0  0  0  0  0  0  0  0  0  0  0  0
    3.8471    0.1195   -0.2549 H   0  0  0  0  0  0  0  0  0  0  0  0
    4.1980   -0.1417    1.9899 H   0  0  0  0  0  0  0  0  0  0  0  0
    1.5230   -1.4379    1.6210 H   0  0  0  0  0  0  0  0  0  0  0  0
    1.6781    0.6995    0.4812 H   0  0  0  0  0  0  0  0  0  0  0  0
    2.3793    1.4629    1.9247 H   0  0  0  0  0  0  0  0  0  0  0  0
    0.7424    0.8066    1.9482 H   0  0  0  0  0  0  0  0  0  0  0  0
    2.6980   -0.0784    3.7551 H   0  0  0  0  0  0  0  0  0  0  0  0
    6.0967   -2.3372    3.6457 H   0  0  0  0  0  0  0  0  0  0  0  0
    5.6604   -0.6888    3.3372 H   0  0  0  0  0  0  0  0  0  0  0  0
    6.5178   -1.5844    2.0737 H   0  0  0  0  0  0  0  0  0  0  0  0
    2.0097   -3.5933    5.3371 H   0  0  0  0  0  0  0  0  0  0  0  0
    3.3889   -2.5299    5.1252 H   0  0  0  0  0  0  0  0  0  0  0  0
    3.6333   -4.2598    5.3974 H   0  0  0  0  0  0  0  0  0  0  0  0
    5.3536   -5.1141    3.8995 H   0  0  0  0  0  0  0  0  0  0  0  0
    6.8734   -3.8814    2.3867 H   0  0  0  0  0  0  0  0  0  0  0  0
    6.8560   -5.4970    1.7056 H   0  0  0  0  0  0  0  0  0  0  0  0
    7.3879   -2.1375   -1.4276 H   0  0  0  0  0  0  0  0  0  0  0  0
    9.3783   -2.9064   -0.3490 H   0  0  0  0  0  0  0  0  0  0  0  0
    8.5209   -3.6301    1.0091 H   0  0  0  0  0  0  0  0  0  0  0  0
    8.6668   -1.8423    0.8321 H   0  0  0  0  0  0  0  0  0  0  0  0
    5.3427   -3.1216   -2.2638 H   0  0  0  0  0  0  0  0  0  0  0  0
    2.2448   -3.8758   -1.3479 H   0  0  0  0  0  0  0  0  0  0  0  0
    2.4536   -5.3995   -0.5728 H   0  0  0  0  0  0  0  0  0  0  0  0
    2.2457   -2.8550    0.5243 H   0  0  0  0  0  0  0  0  0  0  0  0
    2.1771   -4.3552    1.3913 H   0  0  0  0  0  0  0  0  0  0  0  0
    5.8976   -5.5740   -0.5876 H   0  0  0  0  0  0  0  0  0  0  0  0
    3.5973   -6.8548    0.3846 H   0  0  0  0  0  0  0  0  0  0  0  0
    5.2521   -7.1492    0.7580 H   0  0  0  0  0  0  0  0  0  0  0  0
    5.4162   -7.6800    3.1450 H   0  0  0  0  0  0  0  0  0  0  0  0
    3.7633   -8.1196    2.6921 H   0  0  0  0  0  0  0  0  0  0  0  0
    4.0466   -7.1327    4.1320 H   0  0  0  0  0  0  0  0  0  0  0  0
    3.3065   -5.7962    2.3630 H   0  0  0  0  0  0  0  0  0  0  0  0
  1  2  1  0
  1 29  1  0
  1 30  1  0
  1 31  1  0
  2  3  2  3
  2 32  1  0
  3 20  1  0
  3  4  1  0
  4  5  1  0
  4 33  1  0
  4 34  1  0
  5  6  1  0
  5  9  1  0
  5 35  1  1
  6  7  1  0
  6  8  1  0
  6 36  1  6
  7 37  1  0
  7 38  1  0
  7 39  1  0
  8 40  1  0
  9 24  1  0
  9 10  1  6
  9 11  1  0
 10 41  1  0
 10 42  1  0
 10 43  1  0
 11 24  1  0
 11 12  1  1
 11 14  1  0
 12 13  1  0
 13 44  1  0
 13 45  1  0
 13 46  1  0
 14 27  1  0
 14 15  1  0
 14 47  1  1
 16 15  1  1
 15 48  1  0
 15 49  1  0
 16 24  1  0
 16 25  1  0
 16 17  1  0
 17 18  2  3
 17 20  1  0
 18 19  1  0
 18 50  1  0
 19 51  1  0
 19 52  1  0
 19 53  1  0
 20 21  1  0
 20 54  1  6
 21 22  1  0
 21 25  1  0
 22 23  1  0
 22 55  1  0
 22 56  1  0
 24 23  1  6
 23 57  1  0
 23 58  1  0
 25 26  1  0
 25 59  1  6
 26 27  1  0
 26 60  1  0
 26 61  1  0
 27 28  1  0
 27 65  1  6
 28 62  1  0
 28 63  1  0
 28 64  1  0
M  CHG  1  27   1
M  END
>  <i_m_ct_stereo_status>  (118) 
1

>  <s_m_source_file>  (118) 
/var/tmp/pbs.5076255.sched01/tmpuxvxg9lz/41q4u19exn.sdf

>  <i_m_source_file_index>  (118) 
7

>  <i_lp_mmshare_version>  (118) 
48012

>  <i_f3d_flags>  (118) 
0

>  <s_epik_input>  (118) 
W0NIM11bQ0BIXShbT0hdKVtDQEBIXTFbQ0gyXVxDKD1bQ0hdXFtDSDNdKVtDQEBIXShDXDI9W0NIXVxbQ0gzXSlOKFtDSDJdW0NIMl0zKVtDQEBIXTRbQ0gyXU4oW0NIM10pW0NAQEhdKFtDSDJdNSlbQ0BdNihbQ0BAXTEoW0NIM10pW0NAXTM2W0NAXTI0NSlPW0NIM10=

>  <s_epik_cmdline>  (118) 
J2VwaWtfcHl0aG9uJywgJy1waHQnLCAnMi4wJywgJy1waCcsICc3LjAnLCAnLXRuJywgJzgnLCAnLW1hJywgJzIwMCcsICctaW1hZScsICc8aW5maWxlLm1hZT4nLCAnLW9tYWUnLCAnPG91dGZpbGUubWFlPic=

>  <r_epik_Ionization_Penalty>  (118) 
0.0375397

>  <r_epik_Ionization_Penalty_Charging>  (118) 
0.0356623

>  <r_epik_Ionization_Penalty_Neutral>  (118) 
0.00187741

>  <r_epik_State_Penalty>  (118) 
0.463209

>  <r_epik_Charging_Adjusted_Penalty>  (118) 
0.498871

>  <i_epik_Tot_Q>  (118) 
1

>  <i_epik_Tot_abs_Q>  (118) 
1

>  <s_lp_Force_Field>  (118) 
OPLS3e

>  <r_lp_Energy>  (118) 
138.8

>  <b_lp_Chiralities_Consistent>  (118) 
1

>  <s_lp_Variant>  (118) 
30:0-5

>  <s_i_glide_gridfile>  (118) 
pfpi4k_grid

>  <i_i_glide_lignum>  (118) 
7

>  <i_i_glide_rotatable_bonds>  (118) 
3

>  <r_i_docking_score>  (118) 
-1.81928

>  <r_i_glide_ligand_efficiency>  (118) 
-0.0649741

>  <r_i_glide_ligand_efficiency_sa>  (118) 
-0.1973

>  <r_i_glide_ligand_efficiency_ln>  (118) 
-0.419942

>  <r_i_glide_gscore>  (118) 
-1.81928

>  <r_i_glide_lipo>  (118) 
-0.716585

>  <r_i_glide_hbond>  (118) 
0

>  <r_i_glide_metal>  (118) 
-0

>  <r_i_glide_rewards>  (118) 
-0.780254

>  <r_i_glide_evdw>  (118) 
-13.1999

>  <r_i_glide_ecoul>  (118) 
1.37795

>  <r_i_glide_erotb>  (118) 
0.130866

>  <r_i_glide_esite>  (118) 
0

>  <r_i_glide_emodel>  (118) 
-12.9155

>  <r_i_glide_energy>  (118) 
-11.8219

>  <r_i_glide_einternal>  (118) 
0.341365

>  <r_i_glide_intrahb_reward>  (118) 
-0

>  <i_i_glide_confnum>  (118) 
5

>  <i_i_glide_posenum>  (118) 
22

>  <r_i_glide_eff_state_penalty>  (118) 
0

>  <ligand_id>  (118) 
30

>  <original_smiles>  (118) 
CC=C1CC(C(C)O)C2(C)C3(OC)C4CC56C(=CC)C1N(CCC523)C6CN4C

>  <smiles>  (118) 
[H]OC([H])(C([H])([H])[H])C1([H])C([H])([H])C(=C([H])C([H])([H])[H])C2([H])C(=C([H])C([H])([H])[H])C34C([H])([H])C5([H])C6(OC([H])([H])[H])C1(C([H])([H])[H])C63C([H])([H])C([H])([H])N2C4([H])C([H])([H])[N+]5([H])C([H])([H])[H]

$$$$
30:5:0
     RDKit          3D

 65 70  0  0  1  0  0  0  0  0999 V2000
    6.5177   -4.9055    0.8960 C   0  0  0  0  0  0  0  0  0  0  0  0
    6.3989   -6.2940    1.4752 C   0  0  0  0  0  0  0  0  0  0  0  0
    5.7590   -6.7099    2.6036 C   0  0  0  0  0  0  0  0  0  0  0  0
    5.0972   -5.7384    3.6222 C   0  0  0  0  0  0  0  0  0  0  0  0
    3.5230   -5.5996    3.7905 C   0  0  1  0  0  0  0  0  0  0  0  0
    2.7874   -4.8506    2.6307 C   0  0  2  0  0  0  0  0  0  0  0  0
    3.2335   -3.3854    2.4036 C   0  0  0  0  0  0  0  0  0  0  0  0
    1.4140   -4.7791    2.9384 O   0  0  0  0  0  0  0  0  0  0  0  0
    2.8238   -6.8285    4.5040 C   0  0  1  0  0  0  0  0  0  0  0  0
    3.0384   -6.6687    6.0144 C   0  0  0  0  0  0  0  0  0  0  0  0
    1.9272   -8.1074    4.2297 C   0  0  2  0  0  0  0  0  0  0  0  0
    0.7476   -7.8144    3.4879 O   0  0  0  0  0  0  0  0  0  0  0  0
   -0.4309   -7.7542    4.2849 C   0  0  0  0  0  0  0  0  0  0  0  0
    2.0205   -9.5831    4.7658 C   0  0  2  0  0  0  0  0  0  0  0  0
    3.4136   -9.7135    5.3830 C   0  0  0  0  0  0  0  0  0  0  0  0
    4.1746   -9.0577    4.2238 C   0  0  2  0  0  0  0  0  0  0  0  0
    5.5555   -8.5031    4.3972 C   0  0  0  0  0  0  0  0  0  0  0  0
    6.3994   -8.4495    5.4547 C   0  0  0  0  0  0  0  0  0  0  0  0
    6.1783   -8.8868    6.8921 C   0  0  0  0  0  0  0  0  0  0  0  0
    5.9354   -8.2110    2.9643 C   0  0  1  0  0  0  0  0  0  0  0  0
    5.1739   -9.2429    2.1789 N   0  0  0  0  0  0  0  0  0  0  0  0
    4.1953   -8.6711    1.2660 C   0  0  0  0  0  0  0  0  0  0  0  0
    3.0014   -8.1234    2.0552 C   0  0  0  0  0  0  0  0  0  0  0  0
    3.1959   -8.0126    3.6097 C   0  0  2  0  0  0  0  0  0  0  0  0
    4.4875  -10.1005    3.1843 C   0  0  2  0  0  0  0  0  0  0  0  0
    3.2036  -10.9663    2.9012 C   0  0  0  0  0  0  0  0  0  0  0  0
    1.9127  -10.5810    3.6230 N   0  0  1  0  0  0  0  0  0  0  0  0
    1.1200  -11.7826    4.0031 C   0  0  0  0  0  0  0  0  0  0  0  0
    6.2619   -4.9146   -0.1773 H   0  0  0  0  0  0  0  0  0  0  0  0
    7.5482   -4.5248    0.9741 H   0  0  0  0  0  0  0  0  0  0  0  0
    5.8724   -4.1823    1.3683 H   0  0  0  0  0  0  0  0  0  0  0  0
    6.9062   -7.0516    0.9042 H   0  0  0  0  0  0  0  0  0  0  0  0
    5.5067   -5.9430    4.6106 H   0  0  0  0  0  0  0  0  0  0  0  0
    5.4816   -4.7466    3.4468 H   0  0  0  0  0  0  0  0  0  0  0  0
    3.4521   -4.8217    4.5504 H   0  0  0  0  0  0  0  0  0  0  0  0
    2.9326   -5.3105    1.6664 H   0  0  0  0  0  0  0  0  0  0  0  0
    4.2889   -3.2970    2.2212 H   0  0  0  0  0  0  0  0  0  0  0  0
    3.0053   -2.7183    3.2431 H   0  0  0  0  0  0  0  0  0  0  0  0
    2.7416   -2.9870    1.5118 H   0  0  0  0  0  0  0  0  0  0  0  0
    1.3089   -4.1525    3.6429 H   0  0  0  0  0  0  0  0  0  0  0  0
    2.3706   -7.3260    6.5828 H   0  0  0  0  0  0  0  0  0  0  0  0
    2.8168   -5.6628    6.3603 H   0  0  0  0  0  0  0  0  0  0  0  0
    4.0692   -6.9017    6.2784 H   0  0  0  0  0  0  0  0  0  0  0  0
   -1.2703   -7.4903    3.6504 H   0  0  0  0  0  0  0  0  0  0  0  0
   -0.3614   -7.0065    5.0761 H   0  0  0  0  0  0  0  0  0  0  0  0
   -0.6608   -8.7213    4.7296 H   0  0  0  0  0  0  0  0  0  0  0  0
    1.2438   -9.7543    5.5111 H   0  0  0  0  0  0  0  0  0  0  0  0
    3.4607   -9.1749    6.3126 H   0  0  0  0  0  0  0  0  0  0  0  0
    3.7104  -10.7533    5.5843 H   0  0  0  0  0  0  0  0  0  0  0  0
    7.3805   -8.0400    5.2640 H   0  0  0  0  0  0  0  0  0  0  0  0
    7.1246   -9.2432    7.2968 H   0  0  0  0  0  0  0  0  0  0  0  0
    5.4716   -9.7129    6.9884 H   0  0  0  0  0  0  0  0  0  0  0  0
    5.8542   -8.0466    7.5033 H   0  0  0  0  0  0  0  0  0  0  0  0
    6.9962   -8.4446    2.8714 H   0  0  0  0  0  0  0  0  0  0  0  0
    4.6363   -7.9117    0.6246 H   0  0  0  0  0  0  0  0  0  0  0  0
    3.8609   -9.4474    0.5747 H   0  0  0  0  0  0  0  0  0  0  0  0
    2.6005   -7.2314    1.6048 H   0  0  0  0  0  0  0  0  0  0  0  0
    2.1908   -8.8267    1.8454 H   0  0  0  0  0  0  0  0  0  0  0  0
    5.2349  -10.7769    3.5909 H   0  0  0  0  0  0  0  0  0  0  0  0
    3.0007  -11.0269    1.8286 H   0  0  0  0  0  0  0  0  0  0  0  0
    3.4609  -11.9835    3.1940 H   0  0  0  0  0  0  0  0  0  0  0  0
    1.6184  -12.3402    4.7866 H   0  0  0  0  0  0  0  0  0  0  0  0
    0.9888  -12.4141    3.1212 H   0  0  0  0  0  0  0  0  0  0  0  0
    0.1334  -11.4846    4.3532 H   0  0  0  0  0  0  0  0  0  0  0  0
    1.3576  -10.1001    2.9348 H   0  0  0  0  0  0  0  0  0  0  0  0
  1  2  1  0
  1 29  1  0
  1 30  1  0
  1 31  1  0
  2  3  2  3
  2 32  1  0
  3 20  1  0
  3  4  1  0
  4  5  1  0
  4 33  1  0
  4 34  1  0
  5  6  1  0
  5  9  1  0
  5 35  1  1
  6  7  1  0
  6  8  1  0
  6 36  1  6
  7 37  1  0
  7 38  1  0
  7 39  1  0
  8 40  1  0
  9 24  1  0
  9 10  1  1
  9 11  1  0
 10 41  1  0
 10 42  1  0
 10 43  1  0
 11 24  1  0
 11 12  1  6
 11 14  1  0
 12 13  1  0
 13 44  1  0
 13 45  1  0
 13 46  1  0
 14 27  1  0
 14 15  1  0
 14 47  1  1
 16 15  1  1
 15 48  1  0
 15 49  1  0
 16 24  1  0
 16 25  1  0
 16 17  1  0
 17 18  2  3
 17 20  1  0
 18 19  1  0
 18 50  1  0
 19 51  1  0
 19 52  1  0
 19 53  1  0
 20 21  1  0
 20 54  1  1
 21 22  1  0
 21 25  1  0
 22 23  1  0
 22 55  1  0
 22 56  1  0
 24 23  1  6
 23 57  1  0
 23 58  1  0
 25 26  1  0
 25 59  1  1
 26 27  1  0
 26 60  1  0
 26 61  1  0
 27 28  1  0
 27 65  1  6
 28 62  1  0
 28 63  1  0
 28 64  1  0
M  CHG  1  27   1
M  END
>  <i_m_ct_stereo_status>  (119) 
1

>  <s_m_source_file>  (119) 
/var/tmp/pbs.5076255.sched01/tmpuxvxg9lz/41q4u19exn.sdf

>  <i_m_source_file_index>  (119) 
8

>  <i_lp_mmshare_version>  (119) 
48012

>  <i_f3d_flags>  (119) 
0

>  <s_epik_input>  (119) 
W0NIM11bQ0BIXShbT0hdKVtDQEBIXTFbQ0gyXVxDKD1bQ0hdXFtDSDNdKVtDQEBIXShDXDI9W0NIXVxbQ0gzXSlOKFtDSDJdW0NIMl0zKVtDQEBIXTRbQ0gyXU4oW0NIM10pW0NAQEhdKFtDSDJdNSlbQ0BdNihbQ0BAXTEoW0NIM10pW0NAXTM2W0NAXTI0NSlPW0NIM10=

>  <s_epik_cmdline>  (119) 
J2VwaWtfcHl0aG9uJywgJy1waHQnLCAnMi4wJywgJy1waCcsICc3LjAnLCAnLXRuJywgJzgnLCAnLW1hJywgJzIwMCcsICctaW1hZScsICc8aW5maWxlLm1hZT4nLCAnLW9tYWUnLCAnPG91dGZpbGUubWFlPic=

>  <r_epik_Ionization_Penalty>  (119) 
0.0375397

>  <r_epik_Ionization_Penalty_Charging>  (119) 
0.0356623

>  <r_epik_Ionization_Penalty_Neutral>  (119) 
0.00187741

>  <r_epik_State_Penalty>  (119) 
0.463209

>  <r_epik_Charging_Adjusted_Penalty>  (119) 
0.498871

>  <i_epik_Tot_Q>  (119) 
1

>  <i_epik_Tot_abs_Q>  (119) 
1

>  <s_lp_Force_Field>  (119) 
OPLS3e

>  <r_lp_Energy>  (119) 
137.843

>  <b_lp_Chiralities_Consistent>  (119) 
1

>  <s_lp_Variant>  (119) 
30:0-6

>  <s_i_glide_gridfile>  (119) 
pfpi4k_grid

>  <i_i_glide_lignum>  (119) 
8

>  <i_i_glide_rotatable_bonds>  (119) 
3

>  <r_i_docking_score>  (119) 
-2.28764

>  <r_i_glide_ligand_efficiency>  (119) 
-0.0817016

>  <r_i_glide_ligand_efficiency_sa>  (119) 
-0.248094

>  <r_i_glide_ligand_efficiency_ln>  (119) 
-0.528055

>  <r_i_glide_gscore>  (119) 
-2.28764

>  <r_i_glide_lipo>  (119) 
-0.266754

>  <r_i_glide_hbond>  (119) 
0

>  <r_i_glide_metal>  (119) 
-0

>  <r_i_glide_rewards>  (119) 
-0.780254

>  <r_i_glide_evdw>  (119) 
-15.8651

>  <r_i_glide_ecoul>  (119) 
-3.85496

>  <r_i_glide_erotb>  (119) 
0.130866

>  <r_i_glide_esite>  (119) 
0

>  <r_i_glide_emodel>  (119) 
-23.5595

>  <r_i_glide_energy>  (119) 
-19.7201

>  <r_i_glide_einternal>  (119) 
0.209567

>  <r_i_glide_intrahb_reward>  (119) 
-0

>  <i_i_glide_confnum>  (119) 
1

>  <i_i_glide_posenum>  (119) 
1

>  <r_i_glide_eff_state_penalty>  (119) 
0

>  <ligand_id>  (119) 
30

>  <original_smiles>  (119) 
CC=C1CC(C(C)O)C2(C)C3(OC)C4CC56C(=CC)C1N(CCC523)C6CN4C

>  <smiles>  (119) 
[H]OC([H])(C([H])([H])[H])C1([H])C([H])([H])C(=C([H])C([H])([H])[H])C2([H])C(=C([H])C([H])([H])[H])C34C([H])([H])C5([H])C6(OC([H])([H])[H])C1(C([H])([H])[H])C63C([H])([H])C([H])([H])N2C4([H])C([H])([H])[N+]5([H])C([H])([H])[H]

$$$$
30:5:1
     RDKit          3D

 65 70  0  0  1  0  0  0  0  0999 V2000
    3.9212   -0.9413   -2.7428 C   0  0  0  0  0  0  0  0  0  0  0  0
    4.3660   -2.3007   -2.2385 C   0  0  0  0  0  0  0  0  0  0  0  0
    4.8408   -2.6271   -1.0187 C   0  0  0  0  0  0  0  0  0  0  0  0
    5.1472   -1.5891    0.0978 C   0  0  0  0  0  0  0  0  0  0  0  0
    4.2459   -1.4310    1.3970 C   0  0  1  0  0  0  0  0  0  0  0  0
    2.8838   -0.6916    1.2109 C   0  0  2  0  0  0  0  0  0  0  0  0
    2.8440    0.7515    1.7025 C   0  0  0  0  0  0  0  0  0  0  0  0
    1.7501   -1.2353    1.8304 O   0  0  0  0  0  0  0  0  0  0  0  0
    4.3801   -2.5662    2.4636 C   0  0  1  0  0  0  0  0  0  0  0  0
    5.6937   -2.3047    3.1615 C   0  0  0  0  0  0  0  0  0  0  0  0
    3.6558   -3.8594    3.0360 C   0  0  2  0  0  0  0  0  0  0  0  0
    2.3224   -3.6044    3.4540 O   0  0  0  0  0  0  0  0  0  0  0  0
    2.2711   -3.1110    4.7840 C   0  0  0  0  0  0  0  0  0  0  0  0
    4.1825   -5.2675    3.3979 C   0  0  2  0  0  0  0  0  0  0  0  0
    5.5582   -5.4039    2.7285 C   0  0  0  0  0  0  0  0  0  0  0  0
    5.1504   -4.8133    1.3777 C   0  0  2  0  0  0  0  0  0  0  0  0
    6.1601   -4.2900    0.3905 C   0  0  0  0  0  0  0  0  0  0  0  0
    7.5018   -4.2440    0.3840 C   0  0  0  0  0  0  0  0  0  0  0  0
    8.4759   -4.6997    1.4531 C   0  0  0  0  0  0  0  0  0  0  0  0
    5.2943   -4.0996   -0.8223 C   0  0  1  0  0  0  0  0  0  0  0  0
    4.2847   -5.1437   -0.6330 N   0  0  0  0  0  0  0  0  0  0  0  0
    2.9001   -4.6520   -0.5492 C   0  0  0  0  0  0  0  0  0  0  0  0
    2.6995   -3.9922    0.7922 C   0  0  0  0  0  0  0  0  0  0  0  0
    3.9974   -3.7997    1.6564 C   0  0  2  0  0  0  0  0  0  0  0  0
    4.5939   -5.9383    0.5646 C   0  0  2  0  0  0  0  0  0  0  0  0
    3.5464   -6.7751    1.3991 C   0  0  0  0  0  0  0  0  0  0  0  0
    3.2714   -6.3198    2.8192 N   0  0  1  0  0  0  0  0  0  0  0  0
    3.0745   -7.4626    3.7384 C   0  0  0  0  0  0  0  0  0  0  0  0
    2.9398   -1.0050   -3.2151 H   0  0  0  0  0  0  0  0  0  0  0  0
    4.6231   -0.5427   -3.4770 H   0  0  0  0  0  0  0  0  0  0  0  0
    3.8207   -0.2583   -1.9091 H   0  0  0  0  0  0  0  0  0  0  0  0
    4.2592   -3.0885   -2.9740 H   0  0  0  0  0  0  0  0  0  0  0  0
    6.1895   -1.7331    0.3848 H   0  0  0  0  0  0  0  0  0  0  0  0
    5.2182   -0.6129   -0.3713 H   0  0  0  0  0  0  0  0  0  0  0  0
    4.8208   -0.6175    1.8237 H   0  0  0  0  0  0  0  0  0  0  0  0
    2.6681   -0.7224    0.1451 H   0  0  0  0  0  0  0  0  0  0  0  0
    3.6400    1.3419    1.2600 H   0  0  0  0  0  0  0  0  0  0  0  0
    2.9277    0.7560    2.7898 H   0  0  0  0  0  0  0  0  0  0  0  0
    1.8827    1.2012    1.4465 H   0  0  0  0  0  0  0  0  0  0  0  0
    1.1090   -1.2020    1.1218 H   0  0  0  0  0  0  0  0  0  0  0  0
    5.7385   -2.9003    4.0658 H   0  0  0  0  0  0  0  0  0  0  0  0
    5.7538   -1.2723    3.4995 H   0  0  0  0  0  0  0  0  0  0  0  0
    6.5301   -2.5313    2.4798 H   0  0  0  0  0  0  0  0  0  0  0  0
    1.2397   -2.8704    5.0161 H   0  0  0  0  0  0  0  0  0  0  0  0
    2.8531   -2.2027    4.9640 H   0  0  0  0  0  0  0  0  0  0  0  0
    2.5887   -3.8711    5.4950 H   0  0  0  0  0  0  0  0  0  0  0  0
    4.2532   -5.3355    4.4808 H   0  0  0  0  0  0  0  0  0  0  0  0
    6.2869   -4.7981    3.2567 H   0  0  0  0  0  0  0  0  0  0  0  0
    5.9361   -6.4424    2.6890 H   0  0  0  0  0  0  0  0  0  0  0  0
    7.9563   -3.8734   -0.5264 H   0  0  0  0  0  0  0  0  0  0  0  0
    9.3843   -5.0649    0.9838 H   0  0  0  0  0  0  0  0  0  0  0  0
    8.0868   -5.4519    2.1378 H   0  0  0  0  0  0  0  0  0  0  0  0
    8.8086   -3.8713    2.0410 H   0  0  0  0  0  0  0  0  0  0  0  0
    5.8196   -4.3835   -1.7348 H   0  0  0  0  0  0  0  0  0  0  0  0
    2.6917   -3.9598   -1.3429 H   0  0  0  0  0  0  0  0  0  0  0  0
    2.2012   -5.4649   -0.6951 H   0  0  0  0  0  0  0  0  0  0  0  0
    2.2035   -3.0507    0.5512 H   0  0  0  0  0  0  0  0  0  0  0  0
    1.9959   -4.6444    1.3390 H   0  0  0  0  0  0  0  0  0  0  0  0
    5.3955   -6.6340    0.2735 H   0  0  0  0  0  0  0  0  0  0  0  0
    2.6003   -6.9196    0.8800 H   0  0  0  0  0  0  0  0  0  0  0  0
    3.9614   -7.7780    1.4570 H   0  0  0  0  0  0  0  0  0  0  0  0
    4.0181   -7.9973    3.9014 H   0  0  0  0  0  0  0  0  0  0  0  0
    2.3516   -8.1762    3.3267 H   0  0  0  0  0  0  0  0  0  0  0  0
    2.6989   -7.1250    4.7100 H   0  0  0  0  0  0  0  0  0  0  0  0
    2.3768   -5.8506    2.7788 H   0  0  0  0  0  0  0  0  0  0  0  0
  1  2  1  0
  1 29  1  0
  1 30  1  0
  1 31  1  0
  2  3  2  3
  2 32  1  0
  3 20  1  0
  3  4  1  0
  4  5  1  0
  4 33  1  0
  4 34  1  0
  5  6  1  0
  5  9  1  0
  5 35  1  1
  6  7  1  0
  6  8  1  0
  6 36  1  6
  7 37  1  0
  7 38  1  0
  7 39  1  0
  8 40  1  0
  9 24  1  0
  9 10  1  1
  9 11  1  0
 10 41  1  0
 10 42  1  0
 10 43  1  0
 11 24  1  0
 11 12  1  6
 11 14  1  0
 12 13  1  0
 13 44  1  0
 13 45  1  0
 13 46  1  0
 14 27  1  0
 14 15  1  0
 14 47  1  1
 16 15  1  1
 15 48  1  0
 15 49  1  0
 16 24  1  0
 16 25  1  0
 16 17  1  0
 17 18  2  3
 17 20  1  0
 18 19  1  0
 18 50  1  0
 19 51  1  0
 19 52  1  0
 19 53  1  0
 20 21  1  0
 20 54  1  6
 21 22  1  0
 21 25  1  0
 22 23  1  0
 22 55  1  0
 22 56  1  0
 24 23  1  6
 23 57  1  0
 23 58  1  0
 25 26  1  0
 25 59  1  6
 26 27  1  0
 26 60  1  0
 26 61  1  0
 27 28  1  0
 27 65  1  6
 28 62  1  0
 28 63  1  0
 28 64  1  0
M  CHG  1  27   1
M  END
>  <i_m_ct_stereo_status>  (120) 
1

>  <s_m_source_file>  (120) 
/var/tmp/pbs.5076255.sched01/tmpuxvxg9lz/41q4u19exn.sdf

>  <i_m_source_file_index>  (120) 
8

>  <i_lp_mmshare_version>  (120) 
48012

>  <i_f3d_flags>  (120) 
0

>  <s_epik_input>  (120) 
W0NIM11bQ0BIXShbT0hdKVtDQEBIXTFbQ0gyXVxDKD1bQ0hdXFtDSDNdKVtDQEBIXShDXDI9W0NIXVxbQ0gzXSlOKFtDSDJdW0NIMl0zKVtDQEBIXTRbQ0gyXU4oW0NIM10pW0NAQEhdKFtDSDJdNSlbQ0BdNihbQ0BAXTEoW0NIM10pW0NAXTM2W0NAXTI0NSlPW0NIM10=

>  <s_epik_cmdline>  (120) 
J2VwaWtfcHl0aG9uJywgJy1waHQnLCAnMi4wJywgJy1waCcsICc3LjAnLCAnLXRuJywgJzgnLCAnLW1hJywgJzIwMCcsICctaW1hZScsICc8aW5maWxlLm1hZT4nLCAnLW9tYWUnLCAnPG91dGZpbGUubWFlPic=

>  <r_epik_Ionization_Penalty>  (120) 
0.0375397

>  <r_epik_Ionization_Penalty_Charging>  (120) 
0.0356623

>  <r_epik_Ionization_Penalty_Neutral>  (120) 
0.00187741

>  <r_epik_State_Penalty>  (120) 
0.463209

>  <r_epik_Charging_Adjusted_Penalty>  (120) 
0.498871

>  <i_epik_Tot_Q>  (120) 
1

>  <i_epik_Tot_abs_Q>  (120) 
1

>  <s_lp_Force_Field>  (120) 
OPLS3e

>  <r_lp_Energy>  (120) 
137.843

>  <b_lp_Chiralities_Consistent>  (120) 
1

>  <s_lp_Variant>  (120) 
30:0-6

>  <s_i_glide_gridfile>  (120) 
pfpi4k_grid

>  <i_i_glide_lignum>  (120) 
8

>  <i_i_glide_rotatable_bonds>  (120) 
3

>  <r_i_docking_score>  (120) 
-2.09016

>  <r_i_glide_ligand_efficiency>  (120) 
-0.0746487

>  <r_i_glide_ligand_efficiency_sa>  (120) 
-0.226678

>  <r_i_glide_ligand_efficiency_ln>  (120) 
-0.482471

>  <r_i_glide_gscore>  (120) 
-2.09016

>  <r_i_glide_lipo>  (120) 
-0.736612

>  <r_i_glide_hbond>  (120) 
0

>  <r_i_glide_metal>  (120) 
-0

>  <r_i_glide_rewards>  (120) 
-0.780254

>  <r_i_glide_evdw>  (120) 
-11.8977

>  <r_i_glide_ecoul>  (120) 
-0.72854

>  <r_i_glide_erotb>  (120) 
0.130866

>  <r_i_glide_esite>  (120) 
0

>  <r_i_glide_emodel>  (120) 
-11.3529

>  <r_i_glide_energy>  (120) 
-12.6262

>  <r_i_glide_einternal>  (120) 
5.88986

>  <r_i_glide_intrahb_reward>  (120) 
-0

>  <i_i_glide_confnum>  (120) 
1

>  <i_i_glide_posenum>  (120) 
6

>  <r_i_glide_eff_state_penalty>  (120) 
0

>  <ligand_id>  (120) 
30

>  <original_smiles>  (120) 
CC=C1CC(C(C)O)C2(C)C3(OC)C4CC56C(=CC)C1N(CCC523)C6CN4C

>  <smiles>  (120) 
[H]OC([H])(C([H])([H])[H])C1([H])C([H])([H])C(=C([H])C([H])([H])[H])C2([H])C(=C([H])C([H])([H])[H])C34C([H])([H])C5([H])C6(OC([H])([H])[H])C1(C([H])([H])[H])C63C([H])([H])C([H])([H])N2C4([H])C([H])([H])[N+]5([H])C([H])([H])[H]

$$$$
30:5:2
     RDKit          3D

 65 70  0  0  1  0  0  0  0  0999 V2000
    3.1471   -3.7876    1.3522 C   0  0  0  0  0  0  0  0  0  0  0  0
    3.4674   -5.2705    1.3176 C   0  0  0  0  0  0  0  0  0  0  0  0
    3.7631   -6.1008    2.3498 C   0  0  0  0  0  0  0  0  0  0  0  0
    3.9380   -5.5738    3.8027 C   0  0  0  0  0  0  0  0  0  0  0  0
    2.8450   -5.8344    4.9158 C   0  0  1  0  0  0  0  0  0  0  0  0
    1.5500   -4.9550    4.8188 C   0  0  2  0  0  0  0  0  0  0  0  0
    0.4119   -5.3398    5.7772 C   0  0  0  0  0  0  0  0  0  0  0  0
    1.0506   -4.8474    3.5076 O   0  0  0  0  0  0  0  0  0  0  0  0
    2.8223   -7.3063    5.4952 C   0  0  1  0  0  0  0  0  0  0  0  0
    4.0037   -7.4597    6.4757 C   0  0  0  0  0  0  0  0  0  0  0  0
    1.9711   -8.6518    5.4755 C   0  0  2  0  0  0  0  0  0  0  0  0
    0.5842   -8.4679    5.7615 O   0  0  0  0  0  0  0  0  0  0  0  0
    0.0849   -9.2956    6.7980 C   0  0  0  0  0  0  0  0  0  0  0  0
    2.4067  -10.1374    5.3079 C   0  0  2  0  0  0  0  0  0  0  0  0
    3.8548  -10.1176    4.8130 C   0  0  0  0  0  0  0  0  0  0  0  0
    3.6460   -9.0519    3.7275 C   0  0  2  0  0  0  0  0  0  0  0  0
    4.8002   -8.2829    3.1510 C   0  0  0  0  0  0  0  0  0  0  0  0
    6.1342   -8.3059    3.3847 C   0  0  0  0  0  0  0  0  0  0  0  0
    6.9163   -9.1181    4.3988 C   0  0  0  0  0  0  0  0  0  0  0  0
    4.1269   -7.5769    2.0026 C   0  0  1  0  0  0  0  0  0  0  0  0
    3.0131   -8.5079    1.6046 N   0  0  0  0  0  0  0  0  0  0  0  0
    1.6817   -7.9429    1.7831 C   0  0  0  0  0  0  0  0  0  0  0  0
    1.3161   -7.8733    3.2634 C   0  0  0  0  0  0  0  0  0  0  0  0
    2.5008   -8.1246    4.2560 C   0  0  2  0  0  0  0  0  0  0  0  0
    3.1753   -9.7164    2.4620 C   0  0  2  0  0  0  0  0  0  0  0  0
    2.0199  -10.7362    2.7856 C   0  0  0  0  0  0  0  0  0  0  0  0
    1.5548  -10.8198    4.2399 N   0  0  1  0  0  0  0  0  0  0  0  0
    1.1756  -12.2045    4.6152 C   0  0  0  0  0  0  0  0  0  0  0  0
    2.2676   -3.5927    0.7334 H   0  0  0  0  0  0  0  0  0  0  0  0
    3.9784   -3.2186    0.9327 H   0  0  0  0  0  0  0  0  0  0  0  0
    2.9379   -3.3955    2.3463 H   0  0  0  0  0  0  0  0  0  0  0  0
    3.4566   -5.6977    0.3268 H   0  0  0  0  0  0  0  0  0  0  0  0
    4.9103   -5.9055    4.1684 H   0  0  0  0  0  0  0  0  0  0  0  0
    4.0977   -4.5007    3.7643 H   0  0  0  0  0  0  0  0  0  0  0  0
    3.2983   -5.2930    5.7425 H   0  0  0  0  0  0  0  0  0  0  0  0
    1.8541   -3.9334    5.0688 H   0  0  0  0  0  0  0  0  0  0  0  0
    0.7635   -5.3369    6.8111 H   0  0  0  0  0  0  0  0  0  0  0  0
    0.0142   -6.3230    5.5534 H   0  0  0  0  0  0  0  0  0  0  0  0
   -0.4198   -4.6374    5.7048 H   0  0  0  0  0  0  0  0  0  0  0  0
    1.7704   -4.7476    2.9160 H   0  0  0  0  0  0  0  0  0  0  0  0
    3.8891   -8.3491    7.0970 H   0  0  0  0  0  0  0  0  0  0  0  0
    4.0766   -6.6270    7.1772 H   0  0  0  0  0  0  0  0  0  0  0  0
    4.9484   -7.5268    5.9399 H   0  0  0  0  0  0  0  0  0  0  0  0
   -0.9448   -9.0500    7.0093 H   0  0  0  0  0  0  0  0  0  0  0  0
    0.6432   -9.2066    7.7288 H   0  0  0  0  0  0  0  0  0  0  0  0
    0.0329  -10.3397    6.5093 H   0  0  0  0  0  0  0  0  0  0  0  0
    2.3382  -10.6622    6.2617 H   0  0  0  0  0  0  0  0  0  0  0  0
    4.5104   -9.8105    5.6197 H   0  0  0  0  0  0  0  0  0  0  0  0
    4.2073  -11.0914    4.4409 H   0  0  0  0  0  0  0  0  0  0  0  0
    6.7431   -7.6723    2.7597 H   0  0  0  0  0  0  0  0  0  0  0  0
    7.8910   -9.3607    3.9770 H   0  0  0  0  0  0  0  0  0  0  0  0
    6.4467  -10.0662    4.6518 H   0  0  0  0  0  0  0  0  0  0  0  0
    7.0861   -8.5368    5.3033 H   0  0  0  0  0  0  0  0  0  0  0  0
    4.8378   -7.5517    1.1772 H   0  0  0  0  0  0  0  0  0  0  0  0
    1.5873   -6.9876    1.2812 H   0  0  0  0  0  0  0  0  0  0  0  0
    0.9728   -8.5929    1.2721 H   0  0  0  0  0  0  0  0  0  0  0  0
    0.7327   -7.0117    3.5079 H   0  0  0  0  0  0  0  0  0  0  0  0
    0.5858   -8.6784    3.3778 H   0  0  0  0  0  0  0  0  0  0  0  0
    3.9974  -10.3044    2.0468 H   0  0  0  0  0  0  0  0  0  0  0  0
    1.1477  -10.5924    2.1470 H   0  0  0  0  0  0  0  0  0  0  0  0
    2.4112  -11.7218    2.5236 H   0  0  0  0  0  0  0  0  0  0  0  0
    2.0957  -12.7776    4.7531 H   0  0  0  0  0  0  0  0  0  0  0  0
    0.5317  -12.6539    3.8531 H   0  0  0  0  0  0  0  0  0  0  0  0
    0.6107  -12.1825    5.5420 H   0  0  0  0  0  0  0  0  0  0  0  0
    0.6781  -10.3018    4.2758 H   0  0  0  0  0  0  0  0  0  0  0  0
  1  2  1  0
  1 29  1  0
  1 30  1  0
  1 31  1  0
  2  3  2  3
  2 32  1  0
  3 20  1  0
  3  4  1  0
  4  5  1  0
  4 33  1  0
  4 34  1  0
  5  6  1  0
  5  9  1  0
  5 35  1  1
  6  7  1  0
  6  8  1  0
  6 36  1  1
  7 37  1  0
  7 38  1  0
  7 39  1  0
  8 40  1  0
  9 24  1  0
  9 10  1  1
  9 11  1  0
 10 41  1  0
 10 42  1  0
 10 43  1  0
 11 24  1  0
 11 12  1  6
 11 14  1  0
 12 13  1  0
 13 44  1  0
 13 45  1  0
 13 46  1  0
 14 27  1  0
 14 15  1  0
 14 47  1  1
 16 15  1  1
 15 48  1  0
 15 49  1  0
 16 24  1  0
 16 25  1  0
 16 17  1  0
 17 18  2  3
 17 20  1  0
 18 19  1  0
 18 50  1  0
 19 51  1  0
 19 52  1  0
 19 53  1  0
 20 21  1  0
 20 54  1  6
 21 22  1  0
 21 25  1  0
 22 23  1  0
 22 55  1  0
 22 56  1  0
 24 23  1  6
 23 57  1  0
 23 58  1  0
 25 26  1  0
 25 59  1  6
 26 27  1  0
 26 60  1  0
 26 61  1  0
 27 28  1  0
 27 65  1  6
 28 62  1  0
 28 63  1  0
 28 64  1  0
M  CHG  1  27   1
M  END
>  <i_m_ct_stereo_status>  (121) 
1

>  <s_m_source_file>  (121) 
/var/tmp/pbs.5076255.sched01/tmpuxvxg9lz/41q4u19exn.sdf

>  <i_m_source_file_index>  (121) 
8

>  <i_lp_mmshare_version>  (121) 
48012

>  <i_f3d_flags>  (121) 
0

>  <s_epik_input>  (121) 
W0NIM11bQ0BIXShbT0hdKVtDQEBIXTFbQ0gyXVxDKD1bQ0hdXFtDSDNdKVtDQEBIXShDXDI9W0NIXVxbQ0gzXSlOKFtDSDJdW0NIMl0zKVtDQEBIXTRbQ0gyXU4oW0NIM10pW0NAQEhdKFtDSDJdNSlbQ0BdNihbQ0BAXTEoW0NIM10pW0NAXTM2W0NAXTI0NSlPW0NIM10=

>  <s_epik_cmdline>  (121) 
J2VwaWtfcHl0aG9uJywgJy1waHQnLCAnMi4wJywgJy1waCcsICc3LjAnLCAnLXRuJywgJzgnLCAnLW1hJywgJzIwMCcsICctaW1hZScsICc8aW5maWxlLm1hZT4nLCAnLW9tYWUnLCAnPG91dGZpbGUubWFlPic=

>  <r_epik_Ionization_Penalty>  (121) 
0.0375397

>  <r_epik_Ionization_Penalty_Charging>  (121) 
0.0356623

>  <r_epik_Ionization_Penalty_Neutral>  (121) 
0.00187741

>  <r_epik_State_Penalty>  (121) 
0.463209

>  <r_epik_Charging_Adjusted_Penalty>  (121) 
0.498871

>  <i_epik_Tot_Q>  (121) 
1

>  <i_epik_Tot_abs_Q>  (121) 
1

>  <s_lp_Force_Field>  (121) 
OPLS3e

>  <r_lp_Energy>  (121) 
137.843

>  <b_lp_Chiralities_Consistent>  (121) 
1

>  <s_lp_Variant>  (121) 
30:0-6

>  <s_i_glide_gridfile>  (121) 
pfpi4k_grid

>  <i_i_glide_lignum>  (121) 
8

>  <i_i_glide_rotatable_bonds>  (121) 
3

>  <r_i_docking_score>  (121) 
-2.08161

>  <r_i_glide_ligand_efficiency>  (121) 
-0.0743433

>  <r_i_glide_ligand_efficiency_sa>  (121) 
-0.22575

>  <r_i_glide_ligand_efficiency_ln>  (121) 
-0.480497

>  <r_i_glide_gscore>  (121) 
-2.08161

>  <r_i_glide_lipo>  (121) 
-0.0980715

>  <r_i_glide_hbond>  (121) 
0

>  <r_i_glide_metal>  (121) 
-0

>  <r_i_glide_rewards>  (121) 
-0.780254

>  <r_i_glide_evdw>  (121) 
-14.5245

>  <r_i_glide_ecoul>  (121) 
-4.04746

>  <r_i_glide_erotb>  (121) 
0.130866

>  <r_i_glide_esite>  (121) 
-0.000808724

>  <r_i_glide_emodel>  (121) 
-19.6326

>  <r_i_glide_energy>  (121) 
-18.5719

>  <r_i_glide_einternal>  (121) 
4.8121

>  <r_i_glide_intrahb_reward>  (121) 
-0

>  <i_i_glide_confnum>  (121) 
1

>  <i_i_glide_posenum>  (121) 
38

>  <r_i_glide_eff_state_penalty>  (121) 
0

>  <ligand_id>  (121) 
30

>  <original_smiles>  (121) 
CC=C1CC(C(C)O)C2(C)C3(OC)C4CC56C(=CC)C1N(CCC523)C6CN4C

>  <smiles>  (121) 
[H]OC([H])(C([H])([H])[H])C1([H])C([H])([H])C(=C([H])C([H])([H])[H])C2([H])C(=C([H])C([H])([H])[H])C34C([H])([H])C5([H])C6(OC([H])([H])[H])C1(C([H])([H])[H])C63C([H])([H])C([H])([H])N2C4([H])C([H])([H])[N+]5([H])C([H])([H])[H]

$$$$
30:6:0
     RDKit          3D

 65 70  0  0  1  0  0  0  0  0999 V2000
   -1.1840    0.0384    4.4876 C   0  0  0  0  0  0  0  0  0  0  0  0
   -0.3724    1.3235    4.5636 C   0  0  0  0  0  0  0  0  0  0  0  0
    0.1841    1.8749    5.6617 C   0  0  0  0  0  0  0  0  0  0  0  0
    1.0883    3.1440    5.4735 C   0  0  0  0  0  0  0  0  0  0  0  0
    0.7537    4.6255    5.9851 C   0  0  1  0  0  0  0  0  0  0  0  0
   -0.2032    5.5564    5.1626 C   0  0  2  0  0  0  0  0  0  0  0  0
    0.0979    5.6302    3.6589 C   0  0  0  0  0  0  0  0  0  0  0  0
   -0.1268    6.8794    5.6628 O   0  0  0  0  0  0  0  0  0  0  0  0
    0.6886    4.7905    7.5334 C   0  0  1  0  0  0  0  0  0  0  0  0
    2.1156    5.0331    8.0449 C   0  0  0  0  0  0  0  0  0  0  0  0
   -0.3689    4.9688    8.6959 C   0  0  2  0  0  0  0  0  0  0  0  0
   -1.3619    5.9447    8.4033 O   0  0  0  0  0  0  0  0  0  0  0  0
   -1.0372    7.2471    8.8758 C   0  0  0  0  0  0  0  0  0  0  0  0
   -0.3952    4.3978   10.1346 C   0  0  2  0  0  0  0  0  0  0  0  0
    0.6562    3.2671   10.1433 C   0  0  0  0  0  0  0  0  0  0  0  0
    0.2000    2.6047    8.8331 C   0  0  2  0  0  0  0  0  0  0  0  0
    1.0892    1.7134    8.0316 C   0  0  0  0  0  0  0  0  0  0  0  0
    2.3771    1.3796    8.2502 C   0  0  0  0  0  0  0  0  0  0  0  0
    3.1926    0.3875    7.4405 C   0  0  0  0  0  0  0  0  0  0  0  0
    0.1113    1.1314    7.0446 C   0  0  1  0  0  0  0  0  0  0  0  0
   -1.1998    1.1387    7.7980 N   0  0  0  0  0  0  0  0  0  0  0  0
   -2.2063    2.0088    7.2244 C   0  0  0  0  0  0  0  0  0  0  0  0
   -1.7154    3.4543    7.2375 C   0  0  0  0  0  0  0  0  0  0  0  0
   -0.3445    3.7436    7.9559 C   0  0  2  0  0  0  0  0  0  0  0  0
   -0.8964    1.6382    9.1638 C   0  0  2  0  0  0  0  0  0  0  0  0
   -1.9364    2.3179   10.1358 C   0  0  0  0  0  0  0  0  0  0  0  0
   -1.7592    3.7979   10.4055 N   0  0  1  0  0  0  0  0  0  0  0  0
   -2.2921    4.1677   11.7344 C   0  0  0  0  0  0  0  0  0  0  0  0
   -2.1785    0.2567    4.0972 H   0  0  0  0  0  0  0  0  0  0  0  0
   -1.3041   -0.4562    5.4507 H   0  0  0  0  0  0  0  0  0  0  0  0
   -0.7026   -0.6638    3.8060 H   0  0  0  0  0  0  0  0  0  0  0  0
   -0.2455    1.8144    3.6083 H   0  0  0  0  0  0  0  0  0  0  0  0
    2.0675    2.8741    5.8658 H   0  0  0  0  0  0  0  0  0  0  0  0
    1.2884    3.2243    4.4072 H   0  0  0  0  0  0  0  0  0  0  0  0
    1.6930    5.1054    5.7111 H   0  0  0  0  0  0  0  0  0  0  0  0
   -1.2480    5.2984    5.2368 H   0  0  0  0  0  0  0  0  0  0  0  0
   -0.0551    4.6665    3.1734 H   0  0  0  0  0  0  0  0  0  0  0  0
    1.1182    5.9571    3.4527 H   0  0  0  0  0  0  0  0  0  0  0  0
   -0.5706    6.3353    3.1639 H   0  0  0  0  0  0  0  0  0  0  0  0
    0.7352    7.2248    5.4785 H   0  0  0  0  0  0  0  0  0  0  0  0
    2.1049    5.4532    9.0504 H   0  0  0  0  0  0  0  0  0  0  0  0
    2.6485    5.7655    7.4384 H   0  0  0  0  0  0  0  0  0  0  0  0
    2.6949    4.1117    8.0426 H   0  0  0  0  0  0  0  0  0  0  0  0
   -1.8273    7.9440    8.5990 H   0  0  0  0  0  0  0  0  0  0  0  0
   -0.1061    7.6297    8.4527 H   0  0  0  0  0  0  0  0  0  0  0  0
   -0.9586    7.2657    9.9624 H   0  0  0  0  0  0  0  0  0  0  0  0
   -0.1493    5.1900   10.8391 H   0  0  0  0  0  0  0  0  0  0  0  0
    1.6732    3.6454   10.1168 H   0  0  0  0  0  0  0  0  0  0  0  0
    0.5886    2.6211   11.0260 H   0  0  0  0  0  0  0  0  0  0  0  0
    2.9036    1.8417    9.0718 H   0  0  0  0  0  0  0  0  0  0  0  0
    4.0732    0.8812    7.0300 H   0  0  0  0  0  0  0  0  0  0  0  0
    2.6252   -0.0384    6.6125 H   0  0  0  0  0  0  0  0  0  0  0  0
    3.5365   -0.4277    8.0774 H   0  0  0  0  0  0  0  0  0  0  0  0
    0.3941    0.0912    6.8909 H   0  0  0  0  0  0  0  0  0  0  0  0
   -2.4548    1.6929    6.2128 H   0  0  0  0  0  0  0  0  0  0  0  0
   -3.1439    1.9275    7.7712 H   0  0  0  0  0  0  0  0  0  0  0  0
   -1.6586    3.6635    6.1871 H   0  0  0  0  0  0  0  0  0  0  0  0
   -2.5180    4.0840    7.6218 H   0  0  0  0  0  0  0  0  0  0  0  0
   -0.4602    0.7988    9.7082 H   0  0  0  0  0  0  0  0  0  0  0  0
   -2.9712    2.1271    9.8602 H   0  0  0  0  0  0  0  0  0  0  0  0
   -1.8017    1.8031   11.0883 H   0  0  0  0  0  0  0  0  0  0  0  0
   -1.6744    3.7605   12.5350 H   0  0  0  0  0  0  0  0  0  0  0  0
   -3.3058    3.7792   11.8606 H   0  0  0  0  0  0  0  0  0  0  0  0
   -2.3272    5.2516   11.8437 H   0  0  0  0  0  0  0  0  0  0  0  0
   -2.3604    4.2586    9.7382 H   0  0  0  0  0  0  0  0  0  0  0  0
  1  2  1  0
  1 29  1  0
  1 30  1  0
  1 31  1  0
  2  3  2  3
  2 32  1  0
  3 20  1  0
  3  4  1  0
  4  5  1  0
  4 33  1  0
  4 34  1  0
  5  6  1  0
  5  9  1  0
  5 35  1  6
  6  7  1  0
  6  8  1  0
  6 36  1  6
  7 37  1  0
  7 38  1  0
  7 39  1  0
  8 40  1  0
  9 24  1  0
  9 10  1  1
  9 11  1  0
 10 41  1  0
 10 42  1  0
 10 43  1  0
 11 24  1  0
 11 12  1  6
 11 14  1  0
 12 13  1  0
 13 44  1  0
 13 45  1  0
 13 46  1  0
 14 27  1  0
 14 15  1  0
 14 47  1  1
 16 15  1  1
 15 48  1  0
 15 49  1  0
 16 24  1  0
 16 25  1  0
 16 17  1  0
 17 18  2  3
 17 20  1  0
 18 19  1  0
 18 50  1  0
 19 51  1  0
 19 52  1  0
 19 53  1  0
 20 21  1  0
 20 54  1  6
 21 22  1  0
 21 25  1  0
 22 23  1  0
 22 55  1  0
 22 56  1  0
 24 23  1  6
 23 57  1  0
 23 58  1  0
 25 26  1  0
 25 59  1  1
 26 27  1  0
 26 60  1  0
 26 61  1  0
 27 28  1  0
 27 65  1  6
 28 62  1  0
 28 63  1  0
 28 64  1  0
M  CHG  1  27   1
M  END
>  <i_m_ct_stereo_status>  (122) 
1

>  <s_m_source_file>  (122) 
/var/tmp/pbs.5076255.sched01/tmpuxvxg9lz/41q4u19exn.sdf

>  <i_m_source_file_index>  (122) 
9

>  <i_lp_mmshare_version>  (122) 
48012

>  <i_f3d_flags>  (122) 
0

>  <s_epik_input>  (122) 
W0NIM11bQ0BIXShbT0hdKVtDQEBIXTFbQ0gyXVxDKD1bQ0hdXFtDSDNdKVtDQEBIXShDXDI9W0NIXVxbQ0gzXSlOKFtDSDJdW0NIMl0zKVtDQEBIXTRbQ0gyXU4oW0NIM10pW0NAQEhdKFtDSDJdNSlbQ0BdNihbQ0BAXTEoW0NIM10pW0NAXTM2W0NAXTI0NSlPW0NIM10=

>  <s_epik_cmdline>  (122) 
J2VwaWtfcHl0aG9uJywgJy1waHQnLCAnMi4wJywgJy1waCcsICc3LjAnLCAnLXRuJywgJzgnLCAnLW1hJywgJzIwMCcsICctaW1hZScsICc8aW5maWxlLm1hZT4nLCAnLW9tYWUnLCAnPG91dGZpbGUubWFlPic=

>  <r_epik_Ionization_Penalty>  (122) 
0.0375397

>  <r_epik_Ionization_Penalty_Charging>  (122) 
0.0356623

>  <r_epik_Ionization_Penalty_Neutral>  (122) 
0.00187741

>  <r_epik_State_Penalty>  (122) 
0.463209

>  <r_epik_Charging_Adjusted_Penalty>  (122) 
0.498871

>  <i_epik_Tot_Q>  (122) 
1

>  <i_epik_Tot_abs_Q>  (122) 
1

>  <s_lp_Force_Field>  (122) 
OPLS3e

>  <r_lp_Energy>  (122) 
135.634

>  <b_lp_Chiralities_Consistent>  (122) 
1

>  <s_lp_Variant>  (122) 
30:0-7

>  <s_i_glide_gridfile>  (122) 
pfpi4k_grid

>  <i_i_glide_lignum>  (122) 
9

>  <i_i_glide_rotatable_bonds>  (122) 
3

>  <r_i_docking_score>  (122) 
-2.57838

>  <r_i_glide_ligand_efficiency>  (122) 
-0.0920852

>  <r_i_glide_ligand_efficiency_sa>  (122) 
-0.279625

>  <r_i_glide_ligand_efficiency_ln>  (122) 
-0.595167

>  <r_i_glide_gscore>  (122) 
-2.57838

>  <r_i_glide_lipo>  (122) 
-0.0457384

>  <r_i_glide_hbond>  (122) 
-0.0587634

>  <r_i_glide_metal>  (122) 
-0

>  <r_i_glide_rewards>  (122) 
-0.780254

>  <r_i_glide_evdw>  (122) 
-13.4933

>  <r_i_glide_ecoul>  (122) 
-7.40289

>  <r_i_glide_erotb>  (122) 
0.130866

>  <r_i_glide_esite>  (122) 
-0.039395

>  <r_i_glide_emodel>  (122) 
-25.1991

>  <r_i_glide_energy>  (122) 
-20.8962

>  <r_i_glide_einternal>  (122) 
0.167077

>  <r_i_glide_intrahb_reward>  (122) 
-0

>  <i_i_glide_confnum>  (122) 
2

>  <i_i_glide_posenum>  (122) 
11

>  <r_i_glide_eff_state_penalty>  (122) 
0

>  <ligand_id>  (122) 
30

>  <original_smiles>  (122) 
CC=C1CC(C(C)O)C2(C)C3(OC)C4CC56C(=CC)C1N(CCC523)C6CN4C

>  <smiles>  (122) 
[H]OC([H])(C([H])([H])[H])C1([H])C([H])([H])C(=C([H])C([H])([H])[H])C2([H])C(=C([H])C([H])([H])[H])C34C([H])([H])C5([H])C6(OC([H])([H])[H])C1(C([H])([H])[H])C63C([H])([H])C([H])([H])N2C4([H])C([H])([H])[N+]5([H])C([H])([H])[H]

$$$$
30:6:1
     RDKit          3D

 65 70  0  0  1  0  0  0  0  0999 V2000
    5.4941   -0.7650    1.3900 C   0  0  0  0  0  0  0  0  0  0  0  0
    5.2232   -0.6307    2.8823 C   0  0  0  0  0  0  0  0  0  0  0  0
    4.0297   -0.6960    3.5040 C   0  0  0  0  0  0  0  0  0  0  0  0
    4.0056   -0.6531    5.0719 C   0  0  0  0  0  0  0  0  0  0  0  0
    3.4228    0.5365    5.9737 C   0  0  1  0  0  0  0  0  0  0  0  0
    4.2727    1.8279    6.2411 C   0  0  2  0  0  0  0  0  0  0  0  0
    5.7697    1.5774    6.4789 C   0  0  0  0  0  0  0  0  0  0  0  0
    3.7875    2.4470    7.4136 O   0  0  0  0  0  0  0  0  0  0  0  0
    1.8847    0.7526    5.8683 C   0  0  1  0  0  0  0  0  0  0  0  0
    1.1923   -0.2146    6.8387 C   0  0  0  0  0  0  0  0  0  0  0  0
    0.8427    1.7535    5.2229 C   0  0  2  0  0  0  0  0  0  0  0  0
    1.1713    3.1170    5.4522 O   0  0  0  0  0  0  0  0  0  0  0  0
    0.6171    3.6415    6.6517 C   0  0  0  0  0  0  0  0  0  0  0  0
   -0.5303    1.4956    4.5571 C   0  0  2  0  0  0  0  0  0  0  0  0
   -0.5762   -0.0253    4.2914 C   0  0  0  0  0  0  0  0  0  0  0  0
    0.8259   -0.1255    3.6707 C   0  0  2  0  0  0  0  0  0  0  0  0
    1.5864   -1.4097    3.6007 C   0  0  0  0  0  0  0  0  0  0  0  0
    1.2451   -2.6268    4.0680 C   0  0  0  0  0  0  0  0  0  0  0  0
    2.0352   -3.9096    3.8748 C   0  0  0  0  0  0  0  0  0  0  0  0
    2.7266   -1.0279    2.6921 C   0  0  1  0  0  0  0  0  0  0  0  0
    2.1332    0.0533    1.8279 N   0  0  0  0  0  0  0  0  0  0  0  0
    2.7366    1.3534    1.9866 C   0  0  0  0  0  0  0  0  0  0  0  0
    2.5653    1.8408    3.4210 C   0  0  0  0  0  0  0  0  0  0  0  0
    1.6694    0.9581    4.3671 C   0  0  2  0  0  0  0  0  0  0  0  0
    0.7079    0.1747    2.2070 C   0  0  2  0  0  0  0  0  0  0  0  0
   -0.1855    1.4569    1.9872 C   0  0  0  0  0  0  0  0  0  0  0  0
   -0.5923    2.2270    3.2315 N   0  0  1  0  0  0  0  0  0  0  0  0
   -1.8757    2.9348    3.0338 C   0  0  0  0  0  0  0  0  0  0  0  0
    5.9713    0.1391    1.0130 H   0  0  0  0  0  0  0  0  0  0  0  0
    4.5919   -0.9265    0.8006 H   0  0  0  0  0  0  0  0  0  0  0  0
    6.1703   -1.6009    1.2081 H   0  0  0  0  0  0  0  0  0  0  0  0
    6.1152   -0.4727    3.4721 H   0  0  0  0  0  0  0  0  0  0  0  0
    3.5216   -1.5744    5.3891 H   0  0  0  0  0  0  0  0  0  0  0  0
    5.0307   -0.8155    5.3999 H   0  0  0  0  0  0  0  0  0  0  0  0
    3.5565    0.0681    6.9492 H   0  0  0  0  0  0  0  0  0  0  0  0
    4.1860    2.5971    5.4822 H   0  0  0  0  0  0  0  0  0  0  0  0
    6.2543    1.1755    5.5894 H   0  0  0  0  0  0  0  0  0  0  0  0
    5.9373    0.8842    7.3030 H   0  0  0  0  0  0  0  0  0  0  0  0
    6.2835    2.5067    6.7237 H   0  0  0  0  0  0  0  0  0  0  0  0
    4.2090    3.2885    7.4973 H   0  0  0  0  0  0  0  0  0  0  0  0
    0.1649    0.0933    7.0285 H   0  0  0  0  0  0  0  0  0  0  0  0
    1.6733   -0.2209    7.8165 H   0  0  0  0  0  0  0  0  0  0  0  0
    1.2018   -1.2321    6.4520 H   0  0  0  0  0  0  0  0  0  0  0  0
    0.9211    4.6808    6.7680 H   0  0  0  0  0  0  0  0  0  0  0  0
    0.9533    3.1036    7.5394 H   0  0  0  0  0  0  0  0  0  0  0  0
   -0.4720    3.6236    6.6267 H   0  0  0  0  0  0  0  0  0  0  0  0
   -1.3207    1.8110    5.2366 H   0  0  0  0  0  0  0  0  0  0  0  0
   -0.6970   -0.6094    5.1986 H   0  0  0  0  0  0  0  0  0  0  0  0
   -1.3932   -0.3174    3.6257 H   0  0  0  0  0  0  0  0  0  0  0  0
    0.3338   -2.7308    4.6371 H   0  0  0  0  0  0  0  0  0  0  0  0
    2.3037   -4.3279    4.8447 H   0  0  0  0  0  0  0  0  0  0  0  0
    2.9532   -3.7505    3.3078 H   0  0  0  0  0  0  0  0  0  0  0  0
    1.4300   -4.6498    3.3503 H   0  0  0  0  0  0  0  0  0  0  0  0
    2.9274   -1.8803    2.0440 H   0  0  0  0  0  0  0  0  0  0  0  0
    3.7862    1.3153    1.7016 H   0  0  0  0  0  0  0  0  0  0  0  0
    2.2758    2.0553    1.2931 H   0  0  0  0  0  0  0  0  0  0  0  0
    3.5861    1.8813    3.7596 H   0  0  0  0  0  0  0  0  0  0  0  0
    2.2244    2.8751    3.3845 H   0  0  0  0  0  0  0  0  0  0  0  0
    0.2113   -0.6530    1.7067 H   0  0  0  0  0  0  0  0  0  0  0  0
    0.2208    2.1355    1.2417 H   0  0  0  0  0  0  0  0  0  0  0  0
   -1.1044    1.0880    1.5309 H   0  0  0  0  0  0  0  0  0  0  0  0
   -2.7079    2.2313    2.9782 H   0  0  0  0  0  0  0  0  0  0  0  0
   -1.8556    3.5114    2.1078 H   0  0  0  0  0  0  0  0  0  0  0  0
   -2.0653    3.6287    3.8541 H   0  0  0  0  0  0  0  0  0  0  0  0
    0.1063    2.9536    3.3084 H   0  0  0  0  0  0  0  0  0  0  0  0
  1  2  1  0
  1 29  1  0
  1 30  1  0
  1 31  1  0
  2  3  2  3
  2 32  1  0
  3 20  1  0
  3  4  1  0
  4  5  1  0
  4 33  1  0
  4 34  1  0
  5  6  1  0
  5  9  1  0
  5 35  1  1
  6  7  1  0
  6  8  1  0
  6 36  1  6
  7 37  1  0
  7 38  1  0
  7 39  1  0
  8 40  1  0
  9 24  1  0
  9 10  1  1
  9 11  1  0
 10 41  1  0
 10 42  1  0
 10 43  1  0
 11 24  1  0
 11 12  1  6
 11 14  1  0
 12 13  1  0
 13 44  1  0
 13 45  1  0
 13 46  1  0
 14 27  1  0
 14 15  1  0
 14 47  1  1
 16 15  1  1
 15 48  1  0
 15 49  1  0
 16 24  1  0
 16 25  1  0
 16 17  1  0
 17 18  2  3
 17 20  1  0
 18 19  1  0
 18 50  1  0
 19 51  1  0
 19 52  1  0
 19 53  1  0
 20 21  1  0
 20 54  1  6
 21 22  1  0
 21 25  1  0
 22 23  1  0
 22 55  1  0
 22 56  1  0
 24 23  1  6
 23 57  1  0
 23 58  1  0
 25 26  1  0
 25 59  1  6
 26 27  1  0
 26 60  1  0
 26 61  1  0
 27 28  1  0
 27 65  1  1
 28 62  1  0
 28 63  1  0
 28 64  1  0
M  CHG  1  27   1
M  END
>  <i_m_ct_stereo_status>  (123) 
1

>  <s_m_source_file>  (123) 
/var/tmp/pbs.5076255.sched01/tmpuxvxg9lz/41q4u19exn.sdf

>  <i_m_source_file_index>  (123) 
9

>  <i_lp_mmshare_version>  (123) 
48012

>  <i_f3d_flags>  (123) 
0

>  <s_epik_input>  (123) 
W0NIM11bQ0BIXShbT0hdKVtDQEBIXTFbQ0gyXVxDKD1bQ0hdXFtDSDNdKVtDQEBIXShDXDI9W0NIXVxbQ0gzXSlOKFtDSDJdW0NIMl0zKVtDQEBIXTRbQ0gyXU4oW0NIM10pW0NAQEhdKFtDSDJdNSlbQ0BdNihbQ0BAXTEoW0NIM10pW0NAXTM2W0NAXTI0NSlPW0NIM10=

>  <s_epik_cmdline>  (123) 
J2VwaWtfcHl0aG9uJywgJy1waHQnLCAnMi4wJywgJy1waCcsICc3LjAnLCAnLXRuJywgJzgnLCAnLW1hJywgJzIwMCcsICctaW1hZScsICc8aW5maWxlLm1hZT4nLCAnLW9tYWUnLCAnPG91dGZpbGUubWFlPic=

>  <r_epik_Ionization_Penalty>  (123) 
0.0375397

>  <r_epik_Ionization_Penalty_Charging>  (123) 
0.0356623

>  <r_epik_Ionization_Penalty_Neutral>  (123) 
0.00187741

>  <r_epik_State_Penalty>  (123) 
0.463209

>  <r_epik_Charging_Adjusted_Penalty>  (123) 
0.498871

>  <i_epik_Tot_Q>  (123) 
1

>  <i_epik_Tot_abs_Q>  (123) 
1

>  <s_lp_Force_Field>  (123) 
OPLS3e

>  <r_lp_Energy>  (123) 
135.634

>  <b_lp_Chiralities_Consistent>  (123) 
1

>  <s_lp_Variant>  (123) 
30:0-7

>  <s_i_glide_gridfile>  (123) 
pfpi4k_grid

>  <i_i_glide_lignum>  (123) 
9

>  <i_i_glide_rotatable_bonds>  (123) 
3

>  <r_i_docking_score>  (123) 
-2.16973

>  <r_i_glide_ligand_efficiency>  (123) 
-0.0774905

>  <r_i_glide_ligand_efficiency_sa>  (123) 
-0.235307

>  <r_i_glide_ligand_efficiency_ln>  (123) 
-0.500838

>  <r_i_glide_gscore>  (123) 
-2.16973

>  <r_i_glide_lipo>  (123) 
-0.326726

>  <r_i_glide_hbond>  (123) 
0

>  <r_i_glide_metal>  (123) 
-0

>  <r_i_glide_rewards>  (123) 
-0.780254

>  <r_i_glide_evdw>  (123) 
-17.8239

>  <r_i_glide_ecoul>  (123) 
-1.63856

>  <r_i_glide_erotb>  (123) 
0.130866

>  <r_i_glide_esite>  (123) 
-0.0566413

>  <r_i_glide_emodel>  (123) 
-22.9742

>  <r_i_glide_energy>  (123) 
-19.4624

>  <r_i_glide_einternal>  (123) 
0.343596

>  <r_i_glide_intrahb_reward>  (123) 
-0

>  <i_i_glide_confnum>  (123) 
4

>  <i_i_glide_posenum>  (123) 
2

>  <r_i_glide_eff_state_penalty>  (123) 
0

>  <ligand_id>  (123) 
30

>  <original_smiles>  (123) 
CC=C1CC(C(C)O)C2(C)C3(OC)C4CC56C(=CC)C1N(CCC523)C6CN4C

>  <smiles>  (123) 
[H]OC([H])(C([H])([H])[H])C1([H])C([H])([H])C(=C([H])C([H])([H])[H])C2([H])C(=C([H])C([H])([H])[H])C34C([H])([H])C5([H])C6(OC([H])([H])[H])C1(C([H])([H])[H])C63C([H])([H])C([H])([H])N2C4([H])C([H])([H])[N+]5([H])C([H])([H])[H]

$$$$
30:6:2
     RDKit          3D

 65 70  0  0  1  0  0  0  0  0999 V2000
    5.4915   -0.7612    1.3841 C   0  0  0  0  0  0  0  0  0  0  0  0
    5.2263   -0.6241    2.8762 C   0  0  0  0  0  0  0  0  0  0  0  0
    4.0330   -0.6904    3.5028 C   0  0  0  0  0  0  0  0  0  0  0  0
    4.0157   -0.6477    5.0698 C   0  0  0  0  0  0  0  0  0  0  0  0
    3.4331    0.5411    5.9735 C   0  0  1  0  0  0  0  0  0  0  0  0
    4.2807    1.8356    6.2433 C   0  0  2  0  0  0  0  0  0  0  0  0
    5.7759    1.5816    6.4981 C   0  0  0  0  0  0  0  0  0  0  0  0
    3.7680    2.4807    7.3939 O   0  0  0  0  0  0  0  0  0  0  0  0
    1.8933    0.7576    5.8710 C   0  0  1  0  0  0  0  0  0  0  0  0
    1.2052   -0.2092    6.8455 C   0  0  0  0  0  0  0  0  0  0  0  0
    0.8501    1.7566    5.2293 C   0  0  2  0  0  0  0  0  0  0  0  0
    1.1769    3.1211    5.4553 O   0  0  0  0  0  0  0  0  0  0  0  0
    0.6143    3.6541    6.6473 C   0  0  0  0  0  0  0  0  0  0  0  0
   -0.5249    1.4979    4.5683 C   0  0  2  0  0  0  0  0  0  0  0  0
   -0.5708   -0.0228    4.3034 C   0  0  0  0  0  0  0  0  0  0  0  0
    0.8301   -0.1211    3.6787 C   0  0  2  0  0  0  0  0  0  0  0  0
    1.5908   -1.4044    3.6070 C   0  0  0  0  0  0  0  0  0  0  0  0
    1.2521   -2.6215    4.0776 C   0  0  0  0  0  0  0  0  0  0  0  0
    2.0419   -3.9034    3.8830 C   0  0  0  0  0  0  0  0  0  0  0  0
    2.7284   -1.0235    2.6945 C   0  0  1  0  0  0  0  0  0  0  0  0
    2.1318    0.0579    1.8321 N   0  0  0  0  0  0  0  0  0  0  0  0
    2.7349    1.3577    1.9870 C   0  0  0  0  0  0  0  0  0  0  0  0
    2.5679    1.8447    3.4222 C   0  0  0  0  0  0  0  0  0  0  0  0
    1.6742    0.9629    4.3721 C   0  0  2  0  0  0  0  0  0  0  0  0
    0.7083    0.1808    2.2149 C   0  0  2  0  0  0  0  0  0  0  0  0
   -0.1872    1.4598    1.9970 C   0  0  0  0  0  0  0  0  0  0  0  0
   -0.5907    2.2298    3.2409 N   0  0  1  0  0  0  0  0  0  0  0  0
   -1.8770    2.9363    3.0489 C   0  0  0  0  0  0  0  0  0  0  0  0
    5.9686    0.1418    1.0033 H   0  0  0  0  0  0  0  0  0  0  0  0
    4.5875   -0.9239    0.7983 H   0  0  0  0  0  0  0  0  0  0  0  0
    6.1652   -1.5993    1.2027 H   0  0  0  0  0  0  0  0  0  0  0  0
    6.1186   -0.4647    3.4636 H   0  0  0  0  0  0  0  0  0  0  0  0
    3.5326   -1.5703    5.3891 H   0  0  0  0  0  0  0  0  0  0  0  0
    5.0414   -0.8086    5.3932 H   0  0  0  0  0  0  0  0  0  0  0  0
    3.5682    0.0670    6.9461 H   0  0  0  0  0  0  0  0  0  0  0  0
    4.2136    2.5938    5.4733 H   0  0  0  0  0  0  0  0  0  0  0  0
    6.2712    1.1736    5.6170 H   0  0  0  0  0  0  0  0  0  0  0  0
    5.9415    0.8952    7.3299 H   0  0  0  0  0  0  0  0  0  0  0  0
    6.2841    2.5158    6.7383 H   0  0  0  0  0  0  0  0  0  0  0  0
    3.8291    1.8958    8.1327 H   0  0  0  0  0  0  0  0  0  0  0  0
    0.1784    0.0987    7.0391 H   0  0  0  0  0  0  0  0  0  0  0  0
    1.6887   -0.2158    7.8221 H   0  0  0  0  0  0  0  0  0  0  0  0
    1.2140   -1.2265    6.4593 H   0  0  0  0  0  0  0  0  0  0  0  0
    0.9201    4.6934    6.7599 H   0  0  0  0  0  0  0  0  0  0  0  0
    0.9427    3.1219    7.5419 H   0  0  0  0  0  0  0  0  0  0  0  0
   -0.4746    3.6399    6.6123 H   0  0  0  0  0  0  0  0  0  0  0  0
   -1.3132    1.8134    5.2494 H   0  0  0  0  0  0  0  0  0  0  0  0
   -0.6878   -0.6056    5.2103 H   0  0  0  0  0  0  0  0  0  0  0  0
   -1.3900   -0.3164    3.6398 H   0  0  0  0  0  0  0  0  0  0  0  0
    0.3422   -2.7249    4.6484 H   0  0  0  0  0  0  0  0  0  0  0  0
    2.3119   -4.3211    4.8529 H   0  0  0  0  0  0  0  0  0  0  0  0
    2.9597   -3.7430    3.3159 H   0  0  0  0  0  0  0  0  0  0  0  0
    1.4378   -4.6430    3.3578 H   0  0  0  0  0  0  0  0  0  0  0  0
    2.9272   -1.8761    2.0472 H   0  0  0  0  0  0  0  0  0  0  0  0
    3.7822    1.3204    1.6989 H   0  0  0  0  0  0  0  0  0  0  0  0
    2.2708    2.0595    1.2964 H   0  0  0  0  0  0  0  0  0  0  0  0
    3.5889    1.8857    3.7585 H   0  0  0  0  0  0  0  0  0  0  0  0
    2.2280    2.8805    3.3874 H   0  0  0  0  0  0  0  0  0  0  0  0
    0.2138   -0.6506    1.7158 H   0  0  0  0  0  0  0  0  0  0  0  0
    0.2182    2.1383    1.2505 H   0  0  0  0  0  0  0  0  0  0  0  0
   -1.1062    1.0914    1.5428 H   0  0  0  0  0  0  0  0  0  0  0  0
   -2.7063    2.2324    2.9969 H   0  0  0  0  0  0  0  0  0  0  0  0
   -1.8581    3.5127    2.1229 H   0  0  0  0  0  0  0  0  0  0  0  0
   -2.0635    3.6293    3.8692 H   0  0  0  0  0  0  0  0  0  0  0  0
    0.1080    2.9571    3.3169 H   0  0  0  0  0  0  0  0  0  0  0  0
  1  2  1  0
  1 29  1  0
  1 30  1  0
  1 31  1  0
  2  3  2  3
  2 32  1  0
  3 20  1  0
  3  4  1  0
  4  5  1  0
  4 33  1  0
  4 34  1  0
  5  6  1  0
  5  9  1  0
  5 35  1  1
  6  7  1  0
  6  8  1  0
  6 36  1  6
  7 37  1  0
  7 38  1  0
  7 39  1  0
  8 40  1  0
  9 24  1  0
  9 10  1  1
  9 11  1  0
 10 41  1  0
 10 42  1  0
 10 43  1  0
 11 24  1  0
 11 12  1  6
 11 14  1  0
 12 13  1  0
 13 44  1  0
 13 45  1  0
 13 46  1  0
 14 27  1  0
 14 15  1  0
 14 47  1  1
 16 15  1  1
 15 48  1  0
 15 49  1  0
 16 24  1  0
 16 25  1  0
 16 17  1  0
 17 18  2  3
 17 20  1  0
 18 19  1  0
 18 50  1  0
 19 51  1  0
 19 52  1  0
 19 53  1  0
 20 21  1  0
 20 54  1  6
 21 22  1  0
 21 25  1  0
 22 23  1  0
 22 55  1  0
 22 56  1  0
 24 23  1  6
 23 57  1  0
 23 58  1  0
 25 26  1  0
 25 59  1  6
 26 27  1  0
 26 60  1  0
 26 61  1  0
 27 28  1  0
 27 65  1  1
 28 62  1  0
 28 63  1  0
 28 64  1  0
M  CHG  1  27   1
M  END
>  <i_m_ct_stereo_status>  (124) 
1

>  <s_m_source_file>  (124) 
/var/tmp/pbs.5076255.sched01/tmpuxvxg9lz/41q4u19exn.sdf

>  <i_m_source_file_index>  (124) 
9

>  <i_lp_mmshare_version>  (124) 
48012

>  <i_f3d_flags>  (124) 
0

>  <s_epik_input>  (124) 
W0NIM11bQ0BIXShbT0hdKVtDQEBIXTFbQ0gyXVxDKD1bQ0hdXFtDSDNdKVtDQEBIXShDXDI9W0NIXVxbQ0gzXSlOKFtDSDJdW0NIMl0zKVtDQEBIXTRbQ0gyXU4oW0NIM10pW0NAQEhdKFtDSDJdNSlbQ0BdNihbQ0BAXTEoW0NIM10pW0NAXTM2W0NAXTI0NSlPW0NIM10=

>  <s_epik_cmdline>  (124) 
J2VwaWtfcHl0aG9uJywgJy1waHQnLCAnMi4wJywgJy1waCcsICc3LjAnLCAnLXRuJywgJzgnLCAnLW1hJywgJzIwMCcsICctaW1hZScsICc8aW5maWxlLm1hZT4nLCAnLW9tYWUnLCAnPG91dGZpbGUubWFlPic=

>  <r_epik_Ionization_Penalty>  (124) 
0.0375397

>  <r_epik_Ionization_Penalty_Charging>  (124) 
0.0356623

>  <r_epik_Ionization_Penalty_Neutral>  (124) 
0.00187741

>  <r_epik_State_Penalty>  (124) 
0.463209

>  <r_epik_Charging_Adjusted_Penalty>  (124) 
0.498871

>  <i_epik_Tot_Q>  (124) 
1

>  <i_epik_Tot_abs_Q>  (124) 
1

>  <s_lp_Force_Field>  (124) 
OPLS3e

>  <r_lp_Energy>  (124) 
135.634

>  <b_lp_Chiralities_Consistent>  (124) 
1

>  <s_lp_Variant>  (124) 
30:0-7

>  <s_i_glide_gridfile>  (124) 
pfpi4k_grid

>  <i_i_glide_lignum>  (124) 
9

>  <i_i_glide_rotatable_bonds>  (124) 
3

>  <r_i_docking_score>  (124) 
-2.16278

>  <r_i_glide_ligand_efficiency>  (124) 
-0.0772422

>  <r_i_glide_ligand_efficiency_sa>  (124) 
-0.234553

>  <r_i_glide_ligand_efficiency_ln>  (124) 
-0.499233

>  <r_i_glide_gscore>  (124) 
-2.16278

>  <r_i_glide_lipo>  (124) 
-0.325639

>  <r_i_glide_hbond>  (124) 
0

>  <r_i_glide_metal>  (124) 
-0

>  <r_i_glide_rewards>  (124) 
-0.780254

>  <r_i_glide_evdw>  (124) 
-17.861

>  <r_i_glide_ecoul>  (124) 
-1.58978

>  <r_i_glide_erotb>  (124) 
0.130866

>  <r_i_glide_esite>  (124) 
-0.0562344

>  <r_i_glide_emodel>  (124) 
-23.1294

>  <r_i_glide_energy>  (124) 
-19.4508

>  <r_i_glide_einternal>  (124) 
0.0122507

>  <r_i_glide_intrahb_reward>  (124) 
-0

>  <i_i_glide_confnum>  (124) 
2

>  <i_i_glide_posenum>  (124) 
39

>  <r_i_glide_eff_state_penalty>  (124) 
0

>  <ligand_id>  (124) 
30

>  <original_smiles>  (124) 
CC=C1CC(C(C)O)C2(C)C3(OC)C4CC56C(=CC)C1N(CCC523)C6CN4C

>  <smiles>  (124) 
[H]OC([H])(C([H])([H])[H])C1([H])C([H])([H])C(=C([H])C([H])([H])[H])C2([H])C(=C([H])C([H])([H])[H])C34C([H])([H])C5([H])C6(OC([H])([H])[H])C1(C([H])([H])[H])C63C([H])([H])C([H])([H])N2C4([H])C([H])([H])[N+]5([H])C([H])([H])[H]

$$$$
30:7:0
     RDKit          3D

 65 70  0  0  1  0  0  0  0  0999 V2000
    4.5592   -3.3039    1.4187 C   0  0  0  0  0  0  0  0  0  0  0  0
    5.1064   -4.6866    1.7300 C   0  0  0  0  0  0  0  0  0  0  0  0
    4.9364   -5.4517    2.8295 C   0  0  0  0  0  0  0  0  0  0  0  0
    4.1968   -4.9635    4.1172 C   0  0  0  0  0  0  0  0  0  0  0  0
    2.7605   -5.4843    4.5488 C   0  0  1  0  0  0  0  0  0  0  0  0
    1.5723   -4.9656    3.6769 C   0  0  2  0  0  0  0  0  0  0  0  0
    1.3540   -3.4370    3.7190 C   0  0  0  0  0  0  0  0  0  0  0  0
    0.3699   -5.5492    4.1454 O   0  0  0  0  0  0  0  0  0  0  0  0
    2.7505   -6.9631    5.1150 C   0  0  1  0  0  0  0  0  0  0  0  0
    3.2199   -6.9014    6.5762 C   0  0  0  0  0  0  0  0  0  0  0  0
    2.3574   -8.4617    4.7574 C   0  0  2  0  0  0  0  0  0  0  0  0
    1.0222   -8.5862    4.2834 O   0  0  0  0  0  0  0  0  0  0  0  0
    0.1033   -8.9806    5.2923 C   0  0  0  0  0  0  0  0  0  0  0  0
    3.1083   -9.8142    4.9780 C   0  0  2  0  0  0  0  0  0  0  0  0
    4.5596   -9.4407    5.3101 C   0  0  0  0  0  0  0  0  0  0  0  0
    4.7216   -8.4061    4.1890 C   0  0  2  0  0  0  0  0  0  0  0  0
    5.7876   -7.3628    4.2592 C   0  0  0  0  0  0  0  0  0  0  0  0
    6.6794   -7.1286    5.2367 C   0  0  0  0  0  0  0  0  0  0  0  0
    7.8069   -6.1139    5.1916 C   0  0  0  0  0  0  0  0  0  0  0  0
    5.7331   -6.7955    2.8677 C   0  0  1  0  0  0  0  0  0  0  0  0
    5.2484   -7.9399    2.0226 N   0  0  0  0  0  0  0  0  0  0  0  0
    3.9451   -7.7031    1.4116 C   0  0  0  0  0  0  0  0  0  0  0  0
    2.8355   -7.7864    2.4671 C   0  0  0  0  0  0  0  0  0  0  0  0
    3.3208   -7.7849    3.9625 C   0  0  2  0  0  0  0  0  0  0  0  0
    5.1598   -9.1100    2.9427 C   0  0  2  0  0  0  0  0  0  0  0  0
    4.2495  -10.3770    2.6971 C   0  0  0  0  0  0  0  0  0  0  0  0
    3.1278  -10.6394    3.7002 N   0  0  1  0  0  0  0  0  0  0  0  0
    2.9686  -12.0884    3.9673 C   0  0  0  0  0  0  0  0  0  0  0  0
    4.1169   -3.2997    0.4190 H   0  0  0  0  0  0  0  0  0  0  0  0
    5.3594   -2.5601    1.4357 H   0  0  0  0  0  0  0  0  0  0  0  0
    3.7921   -2.9919    2.1165 H   0  0  0  0  0  0  0  0  0  0  0  0
    5.7282   -5.1016    0.9436 H   0  0  0  0  0  0  0  0  0  0  0  0
    4.8664   -5.0794    4.9711 H   0  0  0  0  0  0  0  0  0  0  0  0
    4.1332   -3.8831    4.0656 H   0  0  0  0  0  0  0  0  0  0  0  0
    2.5780   -4.8955    5.4478 H   0  0  0  0  0  0  0  0  0  0  0  0
    1.7102   -5.1845    2.6240 H   0  0  0  0  0  0  0  0  0  0  0  0
    2.2323   -2.8815    3.4074 H   0  0  0  0  0  0  0  0  0  0  0  0
    1.0764   -3.0616    4.7095 H   0  0  0  0  0  0  0  0  0  0  0  0
    0.5714   -3.1627    3.0123 H   0  0  0  0  0  0  0  0  0  0  0  0
    0.2489   -5.2764    5.0444 H   0  0  0  0  0  0  0  0  0  0  0  0
    3.0009   -7.8355    7.0985 H   0  0  0  0  0  0  0  0  0  0  0  0
    2.7099   -6.1208    7.1390 H   0  0  0  0  0  0  0  0  0  0  0  0
    4.2900   -6.7122    6.6182 H   0  0  0  0  0  0  0  0  0  0  0  0
   -0.8946   -9.0263    4.8631 H   0  0  0  0  0  0  0  0  0  0  0  0
    0.0669   -8.2797    6.1296 H   0  0  0  0  0  0  0  0  0  0  0  0
    0.3266   -9.9758    5.6775 H   0  0  0  0  0  0  0  0  0  0  0  0
    2.6370  -10.3586    5.7943 H   0  0  0  0  0  0  0  0  0  0  0  0
    4.6380   -9.0227    6.3107 H   0  0  0  0  0  0  0  0  0  0  0  0
    5.2614  -10.2830    5.2531 H   0  0  0  0  0  0  0  0  0  0  0  0
    6.6177   -7.7160    6.1416 H   0  0  0  0  0  0  0  0  0  0  0  0
    7.7064   -5.4171    6.0215 H   0  0  0  0  0  0  0  0  0  0  0  0
    7.8178   -5.5434    4.2625 H   0  0  0  0  0  0  0  0  0  0  0  0
    8.7668   -6.6180    5.2949 H   0  0  0  0  0  0  0  0  0  0  0  0
    6.7575   -6.5811    2.5736 H   0  0  0  0  0  0  0  0  0  0  0  0
    3.9218   -6.7607    0.8737 H   0  0  0  0  0  0  0  0  0  0  0  0
    3.7818   -8.4611    0.6416 H   0  0  0  0  0  0  0  0  0  0  0  0
    2.0400   -7.0840    2.2799 H   0  0  0  0  0  0  0  0  0  0  0  0
    2.3258   -8.7288    2.2605 H   0  0  0  0  0  0  0  0  0  0  0  0
    6.1764   -9.4784    3.0932 H   0  0  0  0  0  0  0  0  0  0  0  0
    3.8441  -10.3789    1.6867 H   0  0  0  0  0  0  0  0  0  0  0  0
    4.9277  -11.2289    2.7342 H   0  0  0  0  0  0  0  0  0  0  0  0
    3.8097  -12.4776    4.5496 H   0  0  0  0  0  0  0  0  0  0  0  0
    2.9231  -12.6415    3.0226 H   0  0  0  0  0  0  0  0  0  0  0  0
    2.0469  -12.2738    4.5288 H   0  0  0  0  0  0  0  0  0  0  0  0
    2.2812  -10.3651    3.2239 H   0  0  0  0  0  0  0  0  0  0  0  0
  1  2  1  0
  1 29  1  0
  1 30  1  0
  1 31  1  0
  2  3  2  3
  2 32  1  0
  3 20  1  0
  3  4  1  0
  4  5  1  0
  4 33  1  0
  4 34  1  0
  5  6  1  0
  5  9  1  0
  5 35  1  1
  6  7  1  0
  6  8  1  0
  6 36  1  6
  7 37  1  0
  7 38  1  0
  7 39  1  0
  8 40  1  0
  9 24  1  0
  9 10  1  1
  9 11  1  0
 10 41  1  0
 10 42  1  0
 10 43  1  0
 11 24  1  0
 11 12  1  6
 11 14  1  0
 12 13  1  0
 13 44  1  0
 13 45  1  0
 13 46  1  0
 14 27  1  0
 14 15  1  0
 14 47  1  1
 16 15  1  1
 15 48  1  0
 15 49  1  0
 16 24  1  0
 16 25  1  0
 16 17  1  0
 17 18  2  3
 17 20  1  0
 18 19  1  0
 18 50  1  0
 19 51  1  0
 19 52  1  0
 19 53  1  0
 20 21  1  0
 20 54  1  6
 21 22  1  0
 21 25  1  0
 22 23  1  0
 22 55  1  0
 22 56  1  0
 24 23  1  6
 23 57  1  0
 23 58  1  0
 25 26  1  0
 25 59  1  1
 26 27  1  0
 26 60  1  0
 26 61  1  0
 27 28  1  0
 27 65  1  6
 28 62  1  0
 28 63  1  0
 28 64  1  0
M  CHG  1  27   1
M  END
>  <i_m_ct_stereo_status>  (125) 
1

>  <s_m_source_file>  (125) 
/var/tmp/pbs.5076255.sched01/tmpuxvxg9lz/41q4u19exn.sdf

>  <i_m_source_file_index>  (125) 
10

>  <i_lp_mmshare_version>  (125) 
48012

>  <i_f3d_flags>  (125) 
0

>  <s_epik_input>  (125) 
W0NIM11bQ0BIXShbT0hdKVtDQEBIXTFbQ0gyXVxDKD1bQ0hdXFtDSDNdKVtDQEBIXShDXDI9W0NIXVxbQ0gzXSlOKFtDSDJdW0NIMl0zKVtDQEBIXTRbQ0gyXU4oW0NIM10pW0NAQEhdKFtDSDJdNSlbQ0BdNihbQ0BAXTEoW0NIM10pW0NAXTM2W0NAXTI0NSlPW0NIM10=

>  <s_epik_cmdline>  (125) 
J2VwaWtfcHl0aG9uJywgJy1waHQnLCAnMi4wJywgJy1waCcsICc3LjAnLCAnLXRuJywgJzgnLCAnLW1hJywgJzIwMCcsICctaW1hZScsICc8aW5maWxlLm1hZT4nLCAnLW9tYWUnLCAnPG91dGZpbGUubWFlPic=

>  <r_epik_Ionization_Penalty>  (125) 
0.0375397

>  <r_epik_Ionization_Penalty_Charging>  (125) 
0.0356623

>  <r_epik_Ionization_Penalty_Neutral>  (125) 
0.00187741

>  <r_epik_State_Penalty>  (125) 
0.463209

>  <r_epik_Charging_Adjusted_Penalty>  (125) 
0.498871

>  <i_epik_Tot_Q>  (125) 
1

>  <i_epik_Tot_abs_Q>  (125) 
1

>  <s_lp_Force_Field>  (125) 
OPLS3e

>  <r_lp_Energy>  (125) 
134.709

>  <b_lp_Chiralities_Consistent>  (125) 
1

>  <s_lp_Variant>  (125) 
30:0-8

>  <s_i_glide_gridfile>  (125) 
pfpi4k_grid

>  <i_i_glide_lignum>  (125) 
10

>  <i_i_glide_rotatable_bonds>  (125) 
3

>  <r_i_docking_score>  (125) 
-2.19172

>  <r_i_glide_ligand_efficiency>  (125) 
-0.0782757

>  <r_i_glide_ligand_efficiency_sa>  (125) 
-0.237691

>  <r_i_glide_ligand_efficiency_ln>  (125) 
-0.505913

>  <r_i_glide_gscore>  (125) 
-2.19172

>  <r_i_glide_lipo>  (125) 
-0.136668

>  <r_i_glide_hbond>  (125) 
0

>  <r_i_glide_metal>  (125) 
-0

>  <r_i_glide_rewards>  (125) 
-0.780254

>  <r_i_glide_evdw>  (125) 
-13.5976

>  <r_i_glide_ecoul>  (125) 
-4.7181

>  <r_i_glide_erotb>  (125) 
0.130866

>  <r_i_glide_esite>  (125) 
-0.0180653

>  <r_i_glide_emodel>  (125) 
-21.7733

>  <r_i_glide_energy>  (125) 
-18.3157

>  <r_i_glide_einternal>  (125) 
0.196794

>  <r_i_glide_intrahb_reward>  (125) 
-0

>  <i_i_glide_confnum>  (125) 
3

>  <i_i_glide_posenum>  (125) 
2

>  <r_i_glide_eff_state_penalty>  (125) 
0

>  <ligand_id>  (125) 
30

>  <original_smiles>  (125) 
CC=C1CC(C(C)O)C2(C)C3(OC)C4CC56C(=CC)C1N(CCC523)C6CN4C

>  <smiles>  (125) 
[H]OC([H])(C([H])([H])[H])C1([H])C([H])([H])C(=C([H])C([H])([H])[H])C2([H])C(=C([H])C([H])([H])[H])C34C([H])([H])C5([H])C6(OC([H])([H])[H])C1(C([H])([H])[H])C63C([H])([H])C([H])([H])N2C4([H])C([H])([H])[N+]5([H])C([H])([H])[H]

$$$$
30:7:1
     RDKit          3D

 65 70  0  0  1  0  0  0  0  0999 V2000
    4.6919   -1.7874   -1.4578 C   0  0  0  0  0  0  0  0  0  0  0  0
    4.9051   -3.2129   -0.9735 C   0  0  0  0  0  0  0  0  0  0  0  0
    5.0796   -3.6705    0.2918 C   0  0  0  0  0  0  0  0  0  0  0  0
    5.2184   -2.7481    1.5502 C   0  0  0  0  0  0  0  0  0  0  0  0
    4.0884   -2.5952    2.6621 C   0  0  1  0  0  0  0  0  0  0  0  0
    2.8187   -1.7807    2.2379 C   0  0  2  0  0  0  0  0  0  0  0  0
    3.0907   -0.3154    1.8334 C   0  0  0  0  0  0  0  0  0  0  0  0
    1.9432   -1.7293    3.3445 O   0  0  0  0  0  0  0  0  0  0  0  0
    3.9541   -3.8551    3.6196 C   0  0  1  0  0  0  0  0  0  0  0  0
    5.0601   -3.7722    4.6749 C   0  0  0  0  0  0  0  0  0  0  0  0
    3.0413   -5.1244    3.9370 C   0  0  2  0  0  0  0  0  0  0  0  0
    1.6691   -4.8094    4.0973 O   0  0  0  0  0  0  0  0  0  0  0  0
    1.3596   -4.4212    5.4264 C   0  0  0  0  0  0  0  0  0  0  0  0
    3.4057   -6.6110    4.2448 C   0  0  2  0  0  0  0  0  0  0  0  0
    4.8730   -6.7925    3.8362 C   0  0  0  0  0  0  0  0  0  0  0  0
    4.7459   -6.0734    2.4858 C   0  0  2  0  0  0  0  0  0  0  0  0
    5.9531   -5.5293    1.7922 C   0  0  0  0  0  0  0  0  0  0  0  0
    7.2315   -5.5174    2.2007 C   0  0  0  0  0  0  0  0  0  0  0  0
    8.4215   -5.0510    1.3870 C   0  0  0  0  0  0  0  0  0  0  0  0
    5.3833   -5.1965    0.4385 C   0  0  1  0  0  0  0  0  0  0  0  0
    4.2558   -6.1785    0.2642 N   0  0  0  0  0  0  0  0  0  0  0  0
    2.9486   -5.5353    0.1869 C   0  0  0  0  0  0  0  0  0  0  0  0
    2.5111   -5.0356    1.5713 C   0  0  0  0  0  0  0  0  0  0  0  0
    3.6414   -5.0012    2.6513 C   0  0  2  0  0  0  0  0  0  0  0  0
    4.3087   -7.0736    1.4533 C   0  0  2  0  0  0  0  0  0  0  0  0
    3.0934   -7.9158    1.9958 C   0  0  0  0  0  0  0  0  0  0  0  0
    2.5722   -7.5649    3.3966 N   0  0  1  0  0  0  0  0  0  0  0  0
    2.1634   -8.7929    4.1457 C   0  0  0  0  0  0  0  0  0  0  0  0
    3.8357   -1.7723   -2.1370 H   0  0  0  0  0  0  0  0  0  0  0  0
    5.5551   -1.4564   -2.0437 H   0  0  0  0  0  0  0  0  0  0  0  0
    4.5080   -1.0861   -0.6491 H   0  0  0  0  0  0  0  0  0  0  0  0
    4.9174   -3.9770   -1.7425 H   0  0  0  0  0  0  0  0  0  0  0  0
    6.1577   -2.9893    2.0581 H   0  0  0  0  0  0  0  0  0  0  0  0
    5.4406   -1.7548    1.2014 H   0  0  0  0  0  0  0  0  0  0  0  0
    4.5448   -1.8622    3.3324 H   0  0  0  0  0  0  0  0  0  0  0  0
    2.3216   -2.2198    1.3776 H   0  0  0  0  0  0  0  0  0  0  0  0
    3.7934   -0.2450    1.0087 H   0  0  0  0  0  0  0  0  0  0  0  0
    3.4413    0.3094    2.6670 H   0  0  0  0  0  0  0  0  0  0  0  0
    2.1537    0.1111    1.4728 H   0  0  0  0  0  0  0  0  0  0  0  0
    2.2543   -1.0475    3.9239 H   0  0  0  0  0  0  0  0  0  0  0  0
    4.8677   -4.4596    5.5011 H   0  0  0  0  0  0  0  0  0  0  0  0
    5.1370   -2.7741    5.1144 H   0  0  0  0  0  0  0  0  0  0  0  0
    6.0131   -4.0330    4.2243 H   0  0  0  0  0  0  0  0  0  0  0  0
    0.3076   -4.1558    5.4777 H   0  0  0  0  0  0  0  0  0  0  0  0
    1.9244   -3.5543    5.7755 H   0  0  0  0  0  0  0  0  0  0  0  0
    1.5190   -5.2376    6.1282 H   0  0  0  0  0  0  0  0  0  0  0  0
    3.2487   -6.7953    5.3055 H   0  0  0  0  0  0  0  0  0  0  0  0
    5.5322   -6.2921    4.5338 H   0  0  0  0  0  0  0  0  0  0  0  0
    5.1969   -7.8456    3.7592 H   0  0  0  0  0  0  0  0  0  0  0  0
    7.4570   -5.9013    3.1829 H   0  0  0  0  0  0  0  0  0  0  0  0
    8.9447   -4.2682    1.9297 H   0  0  0  0  0  0  0  0  0  0  0  0
    8.1359   -4.6665    0.4059 H   0  0  0  0  0  0  0  0  0  0  0  0
    9.1210   -5.8738    1.2551 H   0  0  0  0  0  0  0  0  0  0  0  0
    6.1534   -5.4504   -0.2843 H   0  0  0  0  0  0  0  0  0  0  0  0
    2.9436   -4.7381   -0.5466 H   0  0  0  0  0  0  0  0  0  0  0  0
    2.2166   -6.2531   -0.1852 H   0  0  0  0  0  0  0  0  0  0  0  0
    1.9567   -4.1106    1.5215 H   0  0  0  0  0  0  0  0  0  0  0  0
    1.7463   -5.7524    1.8875 H   0  0  0  0  0  0  0  0  0  0  0  0
    5.1261   -7.7793    1.2945 H   0  0  0  0  0  0  0  0  0  0  0  0
    2.2598   -7.9370    1.2928 H   0  0  0  0  0  0  0  0  0  0  0  0
    3.4520   -8.9403    2.0369 H   0  0  0  0  0  0  0  0  0  0  0  0
    3.0416   -9.3841    4.4168 H   0  0  0  0  0  0  0  0  0  0  0  0
    1.5068   -9.4114    3.5262 H   0  0  0  0  0  0  0  0  0  0  0  0
    1.6223   -8.5157    5.0538 H   0  0  0  0  0  0  0  0  0  0  0  0
    1.7152   -7.0489    3.2363 H   0  0  0  0  0  0  0  0  0  0  0  0
  1  2  1  0
  1 29  1  0
  1 30  1  0
  1 31  1  0
  2  3  2  3
  2 32  1  0
  3 20  1  0
  3  4  1  0
  4  5  1  0
  4 33  1  0
  4 34  1  0
  5  6  1  0
  5  9  1  0
  5 35  1  1
  6  7  1  0
  6  8  1  0
  6 36  1  6
  7 37  1  0
  7 38  1  0
  7 39  1  0
  8 40  1  0
  9 24  1  0
  9 10  1  1
  9 11  1  0
 10 41  1  0
 10 42  1  0
 10 43  1  0
 11 24  1  0
 11 12  1  6
 11 14  1  0
 12 13  1  0
 13 44  1  0
 13 45  1  0
 13 46  1  0
 14 27  1  0
 14 15  1  0
 14 47  1  1
 16 15  1  1
 15 48  1  0
 15 49  1  0
 16 24  1  0
 16 25  1  0
 16 17  1  0
 17 18  2  3
 17 20  1  0
 18 19  1  0
 18 50  1  0
 19 51  1  0
 19 52  1  0
 19 53  1  0
 20 21  1  0
 20 54  1  6
 21 22  1  0
 21 25  1  0
 22 23  1  0
 22 55  1  0
 22 56  1  0
 24 23  1  6
 23 57  1  0
 23 58  1  0
 25 26  1  0
 25 59  1  6
 26 27  1  0
 26 60  1  0
 26 61  1  0
 27 28  1  0
 27 65  1  6
 28 62  1  0
 28 63  1  0
 28 64  1  0
M  CHG  1  27   1
M  END
>  <i_m_ct_stereo_status>  (126) 
1

>  <s_m_source_file>  (126) 
/var/tmp/pbs.5076255.sched01/tmpuxvxg9lz/41q4u19exn.sdf

>  <i_m_source_file_index>  (126) 
10

>  <i_lp_mmshare_version>  (126) 
48012

>  <i_f3d_flags>  (126) 
0

>  <s_epik_input>  (126) 
W0NIM11bQ0BIXShbT0hdKVtDQEBIXTFbQ0gyXVxDKD1bQ0hdXFtDSDNdKVtDQEBIXShDXDI9W0NIXVxbQ0gzXSlOKFtDSDJdW0NIMl0zKVtDQEBIXTRbQ0gyXU4oW0NIM10pW0NAQEhdKFtDSDJdNSlbQ0BdNihbQ0BAXTEoW0NIM10pW0NAXTM2W0NAXTI0NSlPW0NIM10=

>  <s_epik_cmdline>  (126) 
J2VwaWtfcHl0aG9uJywgJy1waHQnLCAnMi4wJywgJy1waCcsICc3LjAnLCAnLXRuJywgJzgnLCAnLW1hJywgJzIwMCcsICctaW1hZScsICc8aW5maWxlLm1hZT4nLCAnLW9tYWUnLCAnPG91dGZpbGUubWFlPic=

>  <r_epik_Ionization_Penalty>  (126) 
0.0375397

>  <r_epik_Ionization_Penalty_Charging>  (126) 
0.0356623

>  <r_epik_Ionization_Penalty_Neutral>  (126) 
0.00187741

>  <r_epik_State_Penalty>  (126) 
0.463209

>  <r_epik_Charging_Adjusted_Penalty>  (126) 
0.498871

>  <i_epik_Tot_Q>  (126) 
1

>  <i_epik_Tot_abs_Q>  (126) 
1

>  <s_lp_Force_Field>  (126) 
OPLS3e

>  <r_lp_Energy>  (126) 
134.709

>  <b_lp_Chiralities_Consistent>  (126) 
1

>  <s_lp_Variant>  (126) 
30:0-8

>  <s_i_glide_gridfile>  (126) 
pfpi4k_grid

>  <i_i_glide_lignum>  (126) 
10

>  <i_i_glide_rotatable_bonds>  (126) 
3

>  <r_i_docking_score>  (126) 
-2.02061

>  <r_i_glide_ligand_efficiency>  (126) 
-0.0721647

>  <r_i_glide_ligand_efficiency_sa>  (126) 
-0.219134

>  <r_i_glide_ligand_efficiency_ln>  (126) 
-0.466416

>  <r_i_glide_gscore>  (126) 
-2.02061

>  <r_i_glide_lipo>  (126) 
-0.447727

>  <r_i_glide_hbond>  (126) 
0

>  <r_i_glide_metal>  (126) 
-0

>  <r_i_glide_rewards>  (126) 
-0.780254

>  <r_i_glide_evdw>  (126) 
-17.7034

>  <r_i_glide_ecoul>  (126) 
-0.240656

>  <r_i_glide_erotb>  (126) 
0.130866

>  <r_i_glide_esite>  (126) 
-0.00222645

>  <r_i_glide_emodel>  (126) 
-20.7962

>  <r_i_glide_energy>  (126) 
-17.9441

>  <r_i_glide_einternal>  (126) 
0.097941

>  <r_i_glide_intrahb_reward>  (126) 
-0

>  <i_i_glide_confnum>  (126) 
6

>  <i_i_glide_posenum>  (126) 
6

>  <r_i_glide_eff_state_penalty>  (126) 
0

>  <ligand_id>  (126) 
30

>  <original_smiles>  (126) 
CC=C1CC(C(C)O)C2(C)C3(OC)C4CC56C(=CC)C1N(CCC523)C6CN4C

>  <smiles>  (126) 
[H]OC([H])(C([H])([H])[H])C1([H])C([H])([H])C(=C([H])C([H])([H])[H])C2([H])C(=C([H])C([H])([H])[H])C34C([H])([H])C5([H])C6(OC([H])([H])[H])C1(C([H])([H])[H])C63C([H])([H])C([H])([H])N2C4([H])C([H])([H])[N+]5([H])C([H])([H])[H]

$$$$
30:7:2
     RDKit          3D

 65 70  0  0  1  0  0  0  0  0999 V2000
    3.3304   -1.3420   -2.0260 C   0  0  0  0  0  0  0  0  0  0  0  0
    3.9995   -2.6299   -1.5879 C   0  0  0  0  0  0  0  0  0  0  0  0
    4.5060   -2.9558   -0.3836 C   0  0  0  0  0  0  0  0  0  0  0  0
    4.6105   -1.9348    0.7958 C   0  0  0  0  0  0  0  0  0  0  0  0
    3.6839   -2.0078    2.0800 C   0  0  1  0  0  0  0  0  0  0  0  0
    2.2021   -1.5913    1.8328 C   0  0  2  0  0  0  0  0  0  0  0  0
    2.0067   -0.0903    1.5521 C   0  0  0  0  0  0  0  0  0  0  0  0
    1.4115   -1.8872    2.9647 O   0  0  0  0  0  0  0  0  0  0  0  0
    4.0196   -3.1816    3.0818 C   0  0  1  0  0  0  0  0  0  0  0  0
    5.2327   -2.7386    3.8978 C   0  0  0  0  0  0  0  0  0  0  0  0
    3.5270   -4.6151    3.5764 C   0  0  2  0  0  0  0  0  0  0  0  0
    2.1616   -4.6240    3.9733 O   0  0  0  0  0  0  0  0  0  0  0  0
    1.9786   -4.3569    5.3570 C   0  0  0  0  0  0  0  0  0  0  0  0
    4.3015   -5.9354    3.8575 C   0  0  2  0  0  0  0  0  0  0  0  0
    5.6818   -5.7582    3.2078 C   0  0  0  0  0  0  0  0  0  0  0  0
    5.1627   -5.2023    1.8792 C   0  0  2  0  0  0  0  0  0  0  0  0
    6.0591   -4.4266    0.9684 C   0  0  0  0  0  0  0  0  0  0  0  0
    7.3500   -4.0787    1.1365 C   0  0  0  0  0  0  0  0  0  0  0  0
    8.2251   -3.3699    0.1156 C   0  0  0  0  0  0  0  0  0  0  0  0
    5.2156   -4.3384   -0.2693 C   0  0  1  0  0  0  0  0  0  0  0  0
    4.3649   -5.5732   -0.1973 N   0  0  0  0  0  0  0  0  0  0  0  0
    2.9429   -5.2895   -0.0753 C   0  0  0  0  0  0  0  0  0  0  0  0
    2.6252   -4.8027    1.3336 C   0  0  0  0  0  0  0  0  0  0  0  0
    3.8641   -4.4267    2.2084 C   0  0  2  0  0  0  0  0  0  0  0  0
    4.8381   -6.3527    0.9738 C   0  0  2  0  0  0  0  0  0  0  0  0
    3.9805   -7.4271    1.7445 C   0  0  0  0  0  0  0  0  0  0  0  0
    3.6208   -7.1177    3.1935 N   0  0  1  0  0  0  0  0  0  0  0  0
    3.6684   -8.3379    4.0319 C   0  0  0  0  0  0  0  0  0  0  0  0
    2.4075   -1.5769   -2.5598 H   0  0  0  0  0  0  0  0  0  0  0  0
    3.9734   -0.7651   -2.6913 H   0  0  0  0  0  0  0  0  0  0  0  0
    3.0481   -0.7157   -1.1889 H   0  0  0  0  0  0  0  0  0  0  0  0
    4.0610   -3.3697   -2.3753 H   0  0  0  0  0  0  0  0  0  0  0  0
    5.6469   -1.8963    1.1207 H   0  0  0  0  0  0  0  0  0  0  0  0
    4.4908   -0.9408    0.3786 H   0  0  0  0  0  0  0  0  0  0  0  0
    4.0144   -1.1267    2.6307 H   0  0  0  0  0  0  0  0  0  0  0  0
    1.8126   -2.0892    0.9513 H   0  0  0  0  0  0  0  0  0  0  0  0
    2.5697    0.2212    0.6790 H   0  0  0  0  0  0  0  0  0  0  0  0
    2.3108    0.5464    2.3817 H   0  0  0  0  0  0  0  0  0  0  0  0
    0.9632    0.1269    1.3204 H   0  0  0  0  0  0  0  0  0  0  0  0
    1.7186   -1.3560    3.6831 H   0  0  0  0  0  0  0  0  0  0  0  0
    5.3846   -3.3898    4.7585 H   0  0  0  0  0  0  0  0  0  0  0  0
    5.1146   -1.7344    4.3023 H   0  0  0  0  0  0  0  0  0  0  0  0
    6.1161   -2.7463    3.2658 H   0  0  0  0  0  0  0  0  0  0  0  0
    0.9140   -4.3487    5.5858 H   0  0  0  0  0  0  0  0  0  0  0  0
    2.3849   -3.3892    5.6571 H   0  0  0  0  0  0  0  0  0  0  0  0
    2.4359   -5.1312    5.9721 H   0  0  0  0  0  0  0  0  0  0  0  0
    4.3792   -6.0733    4.9339 H   0  0  0  0  0  0  0  0  0  0  0  0
    6.3071   -5.0625    3.7585 H   0  0  0  0  0  0  0  0  0  0  0  0
    6.2458   -6.6937    3.1129 H   0  0  0  0  0  0  0  0  0  0  0  0
    7.8352   -4.3203    2.0702 H   0  0  0  0  0  0  0  0  0  0  0  0
    8.5948   -2.4309    0.5281 H   0  0  0  0  0  0  0  0  0  0  0  0
    7.6921   -3.1508   -0.8106 H   0  0  0  0  0  0  0  0  0  0  0  0
    9.0888   -3.9888   -0.1257 H   0  0  0  0  0  0  0  0  0  0  0  0
    5.8636   -4.4496   -1.1355 H   0  0  0  0  0  0  0  0  0  0  0  0
    2.5943   -4.5949   -0.8353 H   0  0  0  0  0  0  0  0  0  0  0  0
    2.3848   -6.2053   -0.2755 H   0  0  0  0  0  0  0  0  0  0  0  0
    1.8650   -4.0421    1.3270 H   0  0  0  0  0  0  0  0  0  0  0  0
    2.0792   -5.6223    1.7993 H   0  0  0  0  0  0  0  0  0  0  0  0
    5.7673   -6.8383    0.6709 H   0  0  0  0  0  0  0  0  0  0  0  0
    3.0843   -7.7066    1.1933 H   0  0  0  0  0  0  0  0  0  0  0  0
    4.5882   -8.3315    1.7388 H   0  0  0  0  0  0  0  0  0  0  0  0
    4.6967   -8.6755    4.1689 H   0  0  0  0  0  0  0  0  0  0  0  0
    3.1074   -9.1509    3.5664 H   0  0  0  0  0  0  0  0  0  0  0  0
    3.2327   -8.1532    5.0145 H   0  0  0  0  0  0  0  0  0  0  0  0
    2.6479   -6.8484    3.1688 H   0  0  0  0  0  0  0  0  0  0  0  0
  1  2  1  0
  1 29  1  0
  1 30  1  0
  1 31  1  0
  2  3  2  3
  2 32  1  0
  3 20  1  0
  3  4  1  0
  4  5  1  0
  4 33  1  0
  4 34  1  0
  5  6  1  0
  5  9  1  0
  5 35  1  1
  6  7  1  0
  6  8  1  0
  6 36  1  6
  7 37  1  0
  7 38  1  0
  7 39  1  0
  8 40  1  0
  9 24  1  0
  9 10  1  1
  9 11  1  0
 10 41  1  0
 10 42  1  0
 10 43  1  0
 11 24  1  0
 11 12  1  6
 11 14  1  0
 12 13  1  0
 13 44  1  0
 13 45  1  0
 13 46  1  0
 14 27  1  0
 14 15  1  0
 14 47  1  1
 16 15  1  1
 15 48  1  0
 15 49  1  0
 16 24  1  0
 16 25  1  0
 16 17  1  0
 17 18  2  3
 17 20  1  0
 18 19  1  0
 18 50  1  0
 19 51  1  0
 19 52  1  0
 19 53  1  0
 20 21  1  0
 20 54  1  6
 21 22  1  0
 21 25  1  0
 22 23  1  0
 22 55  1  0
 22 56  1  0
 24 23  1  6
 23 57  1  0
 23 58  1  0
 25 26  1  0
 25 59  1  6
 26 27  1  0
 26 60  1  0
 26 61  1  0
 27 28  1  0
 27 65  1  6
 28 62  1  0
 28 63  1  0
 28 64  1  0
M  CHG  1  27   1
M  END
>  <i_m_ct_stereo_status>  (127) 
1

>  <s_m_source_file>  (127) 
/var/tmp/pbs.5076255.sched01/tmpuxvxg9lz/41q4u19exn.sdf

>  <i_m_source_file_index>  (127) 
10

>  <i_lp_mmshare_version>  (127) 
48012

>  <i_f3d_flags>  (127) 
0

>  <s_epik_input>  (127) 
W0NIM11bQ0BIXShbT0hdKVtDQEBIXTFbQ0gyXVxDKD1bQ0hdXFtDSDNdKVtDQEBIXShDXDI9W0NIXVxbQ0gzXSlOKFtDSDJdW0NIMl0zKVtDQEBIXTRbQ0gyXU4oW0NIM10pW0NAQEhdKFtDSDJdNSlbQ0BdNihbQ0BAXTEoW0NIM10pW0NAXTM2W0NAXTI0NSlPW0NIM10=

>  <s_epik_cmdline>  (127) 
J2VwaWtfcHl0aG9uJywgJy1waHQnLCAnMi4wJywgJy1waCcsICc3LjAnLCAnLXRuJywgJzgnLCAnLW1hJywgJzIwMCcsICctaW1hZScsICc8aW5maWxlLm1hZT4nLCAnLW9tYWUnLCAnPG91dGZpbGUubWFlPic=

>  <r_epik_Ionization_Penalty>  (127) 
0.0375397

>  <r_epik_Ionization_Penalty_Charging>  (127) 
0.0356623

>  <r_epik_Ionization_Penalty_Neutral>  (127) 
0.00187741

>  <r_epik_State_Penalty>  (127) 
0.463209

>  <r_epik_Charging_Adjusted_Penalty>  (127) 
0.498871

>  <i_epik_Tot_Q>  (127) 
1

>  <i_epik_Tot_abs_Q>  (127) 
1

>  <s_lp_Force_Field>  (127) 
OPLS3e

>  <r_lp_Energy>  (127) 
134.709

>  <b_lp_Chiralities_Consistent>  (127) 
1

>  <s_lp_Variant>  (127) 
30:0-8

>  <s_i_glide_gridfile>  (127) 
pfpi4k_grid

>  <i_i_glide_lignum>  (127) 
10

>  <i_i_glide_rotatable_bonds>  (127) 
3

>  <r_i_docking_score>  (127) 
-1.96217

>  <r_i_glide_ligand_efficiency>  (127) 
-0.0700775

>  <r_i_glide_ligand_efficiency_sa>  (127) 
-0.212796

>  <r_i_glide_ligand_efficiency_ln>  (127) 
-0.452926

>  <r_i_glide_gscore>  (127) 
-1.96217

>  <r_i_glide_lipo>  (127) 
-0.736387

>  <r_i_glide_hbond>  (127) 
0

>  <r_i_glide_metal>  (127) 
-0

>  <r_i_glide_rewards>  (127) 
-0.780254

>  <r_i_glide_evdw>  (127) 
-16.1641

>  <r_i_glide_ecoul>  (127) 
1.54539

>  <r_i_glide_erotb>  (127) 
0.130866

>  <r_i_glide_esite>  (127) 
0

>  <r_i_glide_emodel>  (127) 
-17.7044

>  <r_i_glide_energy>  (127) 
-14.6187

>  <r_i_glide_einternal>  (127) 
0.610903

>  <r_i_glide_intrahb_reward>  (127) 
-0

>  <i_i_glide_confnum>  (127) 
4

>  <i_i_glide_posenum>  (127) 
10

>  <r_i_glide_eff_state_penalty>  (127) 
0

>  <ligand_id>  (127) 
30

>  <original_smiles>  (127) 
CC=C1CC(C(C)O)C2(C)C3(OC)C4CC56C(=CC)C1N(CCC523)C6CN4C

>  <smiles>  (127) 
[H]OC([H])(C([H])([H])[H])C1([H])C([H])([H])C(=C([H])C([H])([H])[H])C2([H])C(=C([H])C([H])([H])[H])C34C([H])([H])C5([H])C6(OC([H])([H])[H])C1(C([H])([H])[H])C63C([H])([H])C([H])([H])N2C4([H])C([H])([H])[N+]5([H])C([H])([H])[H]

$$$$
30:8:0
     RDKit          3D

 64 69  0  0  1  0  0  0  0  0999 V2000
    0.1297    1.1856    1.9313 C   0  0  0  0  0  0  0  0  0  0  0  0
    1.0993    2.2249    2.4690 C   0  0  0  0  0  0  0  0  0  0  0  0
    1.3362    2.5262    3.7601 C   0  0  0  0  0  0  0  0  0  0  0  0
    2.4616    3.5780    4.0712 C   0  0  0  0  0  0  0  0  0  0  0  0
    2.2399    5.0482    4.6700 C   0  0  1  0  0  0  0  0  0  0  0  0
    1.8276    6.2308    3.7312 C   0  0  2  0  0  0  0  0  0  0  0  0
    2.6745    7.5085    3.8952 C   0  0  0  0  0  0  0  0  0  0  0  0
    0.5371    6.7242    3.9642 O   0  0  0  0  0  0  0  0  0  0  0  0
    1.7126    5.1141    6.1280 C   0  0  1  0  0  0  0  0  0  0  0  0
    2.9126    4.9966    7.0705 C   0  0  0  0  0  0  0  0  0  0  0  0
    0.3733    5.4134    6.9265 C   0  0  2  0  0  0  0  0  0  0  0  0
   -0.2864    6.6102    6.5394 O   0  0  0  0  0  0  0  0  0  0  0  0
    0.1787    7.7628    7.2253 C   0  0  0  0  0  0  0  0  0  0  0  0
   -0.2479    4.7441    8.1645 C   0  0  2  0  0  0  0  0  0  0  0  0
    0.5304    3.4234    8.3395 C   0  0  0  0  0  0  0  0  0  0  0  0
    0.4414    2.9798    6.8715 C   0  0  2  0  0  0  0  0  0  0  0  0
    1.3240    1.9402    6.2448 C   0  0  0  0  0  0  0  0  0  0  0  0
    2.3566    1.2085    6.7345 C   0  0  0  0  0  0  0  0  0  0  0  0
    2.9889    1.2459    8.1044 C   0  0  0  0  0  0  0  0  0  0  0  0
    0.6548    1.6890    4.9152 C   0  0  1  0  0  0  0  0  0  0  0  0
   -0.8189    1.9421    5.2340 N   0  0  0  0  0  0  0  0  0  0  0  0
   -1.3649    3.0650    4.5115 C   0  0  0  0  0  0  0  0  0  0  0  0
   -0.6269    4.3529    4.8641 C   0  0  0  0  0  0  0  0  0  0  0  0
    0.4305    4.2808    6.0416 C   0  0  2  0  0  0  0  0  0  0  0  0
   -0.8674    2.2882    6.6769 C   0  0  2  0  0  0  0  0  0  0  0  0
   -2.0333    3.1143    7.3495 C   0  0  0  0  0  0  0  0  0  0  0  0
   -1.6960    4.4613    7.9239 N   0  0  0  0  0  0  0  0  0  0  0  0
   -2.5553    4.8155    9.0441 C   0  0  0  0  0  0  0  0  0  0  0  0
   -0.5934    1.6788    1.2833 H   0  0  0  0  0  0  0  0  0  0  0  0
   -0.4193    0.6620    2.7120 H   0  0  0  0  0  0  0  0  0  0  0  0
    0.6606    0.4514    1.3263 H   0  0  0  0  0  0  0  0  0  0  0  0
    1.6236    2.7705    1.6960 H   0  0  0  0  0  0  0  0  0  0  0  0
    3.1814    3.0700    4.7098 H   0  0  0  0  0  0  0  0  0  0  0  0
    3.0258    3.7124    3.1503 H   0  0  0  0  0  0  0  0  0  0  0  0
    3.2929    5.3074    4.7491 H   0  0  0  0  0  0  0  0  0  0  0  0
    1.8900    5.8915    2.6911 H   0  0  0  0  0  0  0  0  0  0  0  0
    3.7132    7.3634    3.6134 H   0  0  0  0  0  0  0  0  0  0  0  0
    2.6392    7.8476    4.9255 H   0  0  0  0  0  0  0  0  0  0  0  0
    2.2813    8.3215    3.2848 H   0  0  0  0  0  0  0  0  0  0  0  0
    0.3652    7.3253    3.2418 H   0  0  0  0  0  0  0  0  0  0  0  0
    2.6441    5.3449    8.0662 H   0  0  0  0  0  0  0  0  0  0  0  0
    3.7523    5.6238    6.7628 H   0  0  0  0  0  0  0  0  0  0  0  0
    3.2546    3.9659    7.1241 H   0  0  0  0  0  0  0  0  0  0  0  0
   -0.3080    8.6449    6.8117 H   0  0  0  0  0  0  0  0  0  0  0  0
    1.2550    7.9229    7.1303 H   0  0  0  0  0  0  0  0  0  0  0  0
   -0.0804    7.7147    8.2824 H   0  0  0  0  0  0  0  0  0  0  0  0
   -0.1165    5.4138    9.0185 H   0  0  0  0  0  0  0  0  0  0  0  0
    1.5361    3.6113    8.6863 H   0  0  0  0  0  0  0  0  0  0  0  0
    0.0619    2.7372    9.0496 H   0  0  0  0  0  0  0  0  0  0  0  0
    2.7818    0.4819    6.0672 H   0  0  0  0  0  0  0  0  0  0  0  0
    3.2639    0.2317    8.3992 H   0  0  0  0  0  0  0  0  0  0  0  0
    2.3304    1.6178    8.8890 H   0  0  0  0  0  0  0  0  0  0  0  0
    3.9069    1.8337    8.0908 H   0  0  0  0  0  0  0  0  0  0  0  0
    0.7889    0.6371    4.6702 H   0  0  0  0  0  0  0  0  0  0  0  0
   -1.3334    2.8834    3.4383 H   0  0  0  0  0  0  0  0  0  0  0  0
   -2.4391    3.1628    4.7189 H   0  0  0  0  0  0  0  0  0  0  0  0
   -0.1555    4.6131    3.9244 H   0  0  0  0  0  0  0  0  0  0  0  0
   -1.3759    5.1143    5.0590 H   0  0  0  0  0  0  0  0  0  0  0  0
   -0.8167    1.3491    7.2290 H   0  0  0  0  0  0  0  0  0  0  0  0
   -2.9041    3.1814    6.6978 H   0  0  0  0  0  0  0  0  0  0  0  0
   -2.3806    2.5001    8.1764 H   0  0  0  0  0  0  0  0  0  0  0  0
   -3.6066    4.6902    8.7762 H   0  0  0  0  0  0  0  0  0  0  0  0
   -2.4162    5.8597    9.3323 H   0  0  0  0  0  0  0  0  0  0  0  0
   -2.3483    4.1874    9.9099 H   0  0  0  0  0  0  0  0  0  0  0  0
  1  2  1  0
  1 29  1  0
  1 30  1  0
  1 31  1  0
  2  3  2  3
  2 32  1  0
  3 20  1  0
  3  4  1  0
  4  5  1  0
  4 33  1  0
  4 34  1  0
  5  6  1  0
  5  9  1  0
  5 35  1  1
  6  7  1  0
  6  8  1  0
  6 36  1  6
  7 37  1  0
  7 38  1  0
  7 39  1  0
  8 40  1  0
  9 24  1  0
  9 10  1  1
  9 11  1  0
 10 41  1  0
 10 42  1  0
 10 43  1  0
 11 24  1  0
 11 12  1  6
 11 14  1  0
 12 13  1  0
 13 44  1  0
 13 45  1  0
 13 46  1  0
 14 27  1  0
 14 15  1  0
 14 47  1  1
 16 15  1  1
 15 48  1  0
 15 49  1  0
 16 24  1  0
 16 25  1  0
 16 17  1  0
 17 18  2  3
 17 20  1  0
 18 19  1  0
 18 50  1  0
 19 51  1  0
 19 52  1  0
 19 53  1  0
 20 21  1  0
 20 54  1  6
 21 22  1  0
 21 25  1  0
 22 23  1  0
 22 55  1  0
 22 56  1  0
 24 23  1  6
 23 57  1  0
 23 58  1  0
 25 26  1  0
 25 59  1  1
 26 27  1  0
 26 60  1  0
 26 61  1  0
 27 28  1  0
 28 62  1  0
 28 63  1  0
 28 64  1  0
M  END
>  <i_m_ct_stereo_status>  (128) 
1

>  <s_m_source_file>  (128) 
/var/tmp/pbs.5076255.sched01/tmpuxvxg9lz/41q4u19exn.sdf

>  <i_m_source_file_index>  (128) 
11

>  <i_lp_mmshare_version>  (128) 
48012

>  <i_f3d_flags>  (128) 
0

>  <s_epik_input>  (128) 
W0NIM11bQ0BIXShbT0hdKVtDQEBIXTFbQ0gyXVxDKD1bQ0hdXFtDSDNdKVtDQEBIXShDXDI9W0NIXVxbQ0gzXSlOKFtDSDJdW0NIMl0zKVtDQEBIXTRbQ0gyXU4oW0NIM10pW0NAQEhdKFtDSDJdNSlbQ0BdNihbQ0BAXTEoW0NIM10pW0NAXTM2W0NAXTI0NSlPW0NIM10=

>  <s_epik_cmdline>  (128) 
J2VwaWtfcHl0aG9uJywgJy1waHQnLCAnMi4wJywgJy1waCcsICc3LjAnLCAnLXRuJywgJzgnLCAnLW1hJywgJzIwMCcsICctaW1hZScsICc8aW5maWxlLm1hZT4nLCAnLW9tYWUnLCAnPG91dGZpbGUubWFlPic=

>  <r_epik_Ionization_Penalty>  (128) 
3.78117

>  <r_epik_Ionization_Penalty_Charging>  (128) 
0

>  <r_epik_Ionization_Penalty_Neutral>  (128) 
3.78117

>  <r_epik_State_Penalty>  (128) 
2.41214

>  <r_epik_Charging_Adjusted_Penalty>  (128) 
2.41214

>  <i_epik_Tot_Q>  (128) 
0

>  <i_epik_Tot_abs_Q>  (128) 
0

>  <s_lp_Force_Field>  (128) 
OPLS3e

>  <r_lp_Energy>  (128) 
142.294

>  <b_lp_Chiralities_Consistent>  (128) 
1

>  <s_lp_Variant>  (128) 
30:0-9

>  <s_i_glide_gridfile>  (128) 
pfpi4k_grid

>  <i_i_glide_lignum>  (128) 
11

>  <i_i_glide_rotatable_bonds>  (128) 
3

>  <r_i_docking_score>  (128) 
-2.52186

>  <r_i_glide_ligand_efficiency>  (128) 
-0.0900665

>  <r_i_glide_ligand_efficiency_sa>  (128) 
-0.273495

>  <r_i_glide_ligand_efficiency_ln>  (128) 
-0.58212

>  <r_i_glide_gscore>  (128) 
-2.52186

>  <r_i_glide_lipo>  (128) 
-0.109217

>  <r_i_glide_hbond>  (128) 
0

>  <r_i_glide_metal>  (128) 
-0

>  <r_i_glide_rewards>  (128) 
-0.787126

>  <r_i_glide_evdw>  (128) 
-13.2015

>  <r_i_glide_ecoul>  (128) 
-7.31283

>  <r_i_glide_erotb>  (128) 
0.131482

>  <r_i_glide_esite>  (128) 
0

>  <r_i_glide_emodel>  (128) 
-20.5943

>  <r_i_glide_energy>  (128) 
-20.5144

>  <r_i_glide_einternal>  (128) 
7.37346

>  <r_i_glide_intrahb_reward>  (128) 
-0

>  <i_i_glide_confnum>  (128) 
2

>  <i_i_glide_posenum>  (128) 
8

>  <r_i_glide_eff_state_penalty>  (128) 
0

>  <ligand_id>  (128) 
30

>  <original_smiles>  (128) 
CC=C1CC(C(C)O)C2(C)C3(OC)C4CC56C(=CC)C1N(CCC523)C6CN4C

>  <smiles>  (128) 
[H]OC([H])(C([H])([H])[H])C1([H])C([H])([H])C(=C([H])C([H])([H])[H])C2([H])C(=C([H])C([H])([H])[H])C34C([H])([H])C5([H])N(C([H])([H])[H])C([H])([H])C3([H])N2C([H])([H])C([H])([H])C42C5(OC([H])([H])[H])C12C([H])([H])[H]

$$$$
30:8:1
     RDKit          3D

 64 69  0  0  1  0  0  0  0  0999 V2000
   -0.6599    0.7144    2.0810 C   0  0  0  0  0  0  0  0  0  0  0  0
    0.3541    1.7362    2.5698 C   0  0  0  0  0  0  0  0  0  0  0  0
    0.7101    1.9752    3.8408 C   0  0  0  0  0  0  0  0  0  0  0  0
    1.8637    3.0153    4.0884 C   0  0  0  0  0  0  0  0  0  0  0  0
    1.6594    4.4679    4.7271 C   0  0  1  0  0  0  0  0  0  0  0  0
    1.2676    5.7029    3.7960 C   0  0  2  0  0  0  0  0  0  0  0  0
    1.1040    7.0222    4.6133 C   0  0  0  0  0  0  0  0  0  0  0  0
    0.0630    5.5869    3.0698 O   0  0  0  0  0  0  0  0  0  0  0  0
    1.2884    4.4663    6.2530 C   0  0  1  0  0  0  0  0  0  0  0  0
    2.5787    4.3132    7.0771 C   0  0  0  0  0  0  0  0  0  0  0  0
    0.0612    4.7083    7.2299 C   0  0  2  0  0  0  0  0  0  0  0  0
   -0.6334    5.9106    6.9749 O   0  0  0  0  0  0  0  0  0  0  0  0
   -0.1739    7.0278    7.7437 C   0  0  0  0  0  0  0  0  0  0  0  0
   -0.4499    3.9785    8.4871 C   0  0  2  0  0  0  0  0  0  0  0  0
    0.3408    2.6494    8.5249 C   0  0  0  0  0  0  0  0  0  0  0  0
    0.1059    2.2837    7.0501 C   0  0  2  0  0  0  0  0  0  0  0  0
    0.9432    1.2784    6.2934 C   0  0  0  0  0  0  0  0  0  0  0  0
    2.0008    0.5393    6.6487 C   0  0  0  0  0  0  0  0  0  0  0  0
    2.7691    0.5118    7.9627 C   0  0  0  0  0  0  0  0  0  0  0  0
    0.1370    1.0886    5.0169 C   0  0  1  0  0  0  0  0  0  0  0  0
   -1.2971    1.3253    5.4922 N   0  0  0  0  0  0  0  0  0  0  0  0
   -1.9209    2.4672    4.8850 C   0  0  0  0  0  0  0  0  0  0  0  0
   -1.1561    3.7461    5.2326 C   0  0  0  0  0  0  0  0  0  0  0  0
    0.0107    3.6255    6.2862 C   0  0  2  0  0  0  0  0  0  0  0  0
   -1.2100    1.5905    6.9392 C   0  0  2  0  0  0  0  0  0  0  0  0
   -2.3074    2.3829    7.7479 C   0  0  0  0  0  0  0  0  0  0  0  0
   -1.9152    3.7050    8.3554 N   0  0  0  0  0  0  0  0  0  0  0  0
   -2.6790    4.0217    9.5495 C   0  0  0  0  0  0  0  0  0  0  0  0
   -1.4513    1.2202    1.5327 H   0  0  0  0  0  0  0  0  0  0  0  0
   -1.1220    0.1493    2.8926 H   0  0  0  0  0  0  0  0  0  0  0  0
   -0.1684    0.0181    1.4038 H   0  0  0  0  0  0  0  0  0  0  0  0
    0.8183    2.3006    1.7618 H   0  0  0  0  0  0  0  0  0  0  0  0
    2.6409    2.4834    4.6409 H   0  0  0  0  0  0  0  0  0  0  0  0
    2.3523    3.1748    3.1276 H   0  0  0  0  0  0  0  0  0  0  0  0
    2.6954    4.7475    4.7664 H   0  0  0  0  0  0  0  0  0  0  0  0
    2.0577    5.8182    3.0498 H   0  0  0  0  0  0  0  0  0  0  0  0
    2.0608    7.3511    5.0671 H   0  0  0  0  0  0  0  0  0  0  0  0
    0.3158    6.8569    5.2935 H   0  0  0  0  0  0  0  0  0  0  0  0
    0.7136    7.8502    4.0719 H   0  0  0  0  0  0  0  0  0  0  0  0
    0.1729    5.0272    2.2939 H   0  0  0  0  0  0  0  0  0  0  0  0
    2.4138    4.6135    8.1162 H   0  0  0  0  0  0  0  0  0  0  0  0
    3.3952    4.9522    6.7313 H   0  0  0  0  0  0  0  0  0  0  0  0
    2.9323    3.2788    7.0704 H   0  0  0  0  0  0  0  0  0  0  0  0
   -0.6885    7.9074    7.3648 H   0  0  0  0  0  0  0  0  0  0  0  0
    0.8800    7.1787    7.5338 H   0  0  0  0  0  0  0  0  0  0  0  0
   -0.3280    6.9763    8.8146 H   0  0  0  0  0  0  0  0  0  0  0  0
   -0.2441    4.6046    9.3583 H   0  0  0  0  0  0  0  0  0  0  0  0
    1.3816    2.8396    8.7739 H   0  0  0  0  0  0  0  0  0  0  0  0
   -0.0591    1.9260    9.2482 H   0  0  0  0  0  0  0  0  0  0  0  0
    2.3732   -0.1698    5.9146 H   0  0  0  0  0  0  0  0  0  0  0  0
    3.0651   -0.5075    8.1853 H   0  0  0  0  0  0  0  0  0  0  0  0
    2.1854    0.8494    8.8119 H   0  0  0  0  0  0  0  0  0  0  0  0
    3.6757    1.0998    7.8844 H   0  0  0  0  0  0  0  0  0  0  0  0
    0.2569    0.0461    4.7157 H   0  0  0  0  0  0  0  0  0  0  0  0
   -1.9644    2.3521    3.8093 H   0  0  0  0  0  0  0  0  0  0  0  0
   -2.9722    2.5352    5.1743 H   0  0  0  0  0  0  0  0  0  0  0  0
   -0.7637    4.0023    4.2843 H   0  0  0  0  0  0  0  0  0  0  0  0
   -1.8876    4.4953    5.5348 H   0  0  0  0  0  0  0  0  0  0  0  0
   -1.1029    0.6274    7.4453 H   0  0  0  0  0  0  0  0  0  0  0  0
   -3.2345    2.4872    7.1833 H   0  0  0  0  0  0  0  0  0  0  0  0
   -2.5810    1.7457    8.5830 H   0  0  0  0  0  0  0  0  0  0  0  0
   -3.7494    3.9069    9.3643 H   0  0  0  0  0  0  0  0  0  0  0  0
   -2.5072    5.0556    9.8593 H   0  0  0  0  0  0  0  0  0  0  0  0
   -2.3949    3.3619   10.3712 H   0  0  0  0  0  0  0  0  0  0  0  0
  1  2  1  0
  1 29  1  0
  1 30  1  0
  1 31  1  0
  2  3  2  3
  2 32  1  0
  3 20  1  0
  3  4  1  0
  4  5  1  0
  4 33  1  0
  4 34  1  0
  5  6  1  0
  5  9  1  0
  5 35  1  1
  6  7  1  0
  6  8  1  0
  6 36  1  6
  7 37  1  0
  7 38  1  0
  7 39  1  0
  8 40  1  0
  9 24  1  0
  9 10  1  1
  9 11  1  0
 10 41  1  0
 10 42  1  0
 10 43  1  0
 11 24  1  0
 11 12  1  6
 11 14  1  0
 12 13  1  0
 13 44  1  0
 13 45  1  0
 13 46  1  0
 14 27  1  0
 14 15  1  0
 14 47  1  1
 16 15  1  1
 15 48  1  0
 15 49  1  0
 16 24  1  0
 16 25  1  0
 16 17  1  0
 17 18  2  3
 17 20  1  0
 18 19  1  0
 18 50  1  0
 19 51  1  0
 19 52  1  0
 19 53  1  0
 20 21  1  0
 20 54  1  6
 21 22  1  0
 21 25  1  0
 22 23  1  0
 22 55  1  0
 22 56  1  0
 24 23  1  6
 23 57  1  0
 23 58  1  0
 25 26  1  0
 25 59  1  1
 26 27  1  0
 26 60  1  0
 26 61  1  0
 27 28  1  0
 28 62  1  0
 28 63  1  0
 28 64  1  0
M  END
>  <i_m_ct_stereo_status>  (129) 
1

>  <s_m_source_file>  (129) 
/var/tmp/pbs.5076255.sched01/tmpuxvxg9lz/41q4u19exn.sdf

>  <i_m_source_file_index>  (129) 
11

>  <i_lp_mmshare_version>  (129) 
48012

>  <i_f3d_flags>  (129) 
0

>  <s_epik_input>  (129) 
W0NIM11bQ0BIXShbT0hdKVtDQEBIXTFbQ0gyXVxDKD1bQ0hdXFtDSDNdKVtDQEBIXShDXDI9W0NIXVxbQ0gzXSlOKFtDSDJdW0NIMl0zKVtDQEBIXTRbQ0gyXU4oW0NIM10pW0NAQEhdKFtDSDJdNSlbQ0BdNihbQ0BAXTEoW0NIM10pW0NAXTM2W0NAXTI0NSlPW0NIM10=

>  <s_epik_cmdline>  (129) 
J2VwaWtfcHl0aG9uJywgJy1waHQnLCAnMi4wJywgJy1waCcsICc3LjAnLCAnLXRuJywgJzgnLCAnLW1hJywgJzIwMCcsICctaW1hZScsICc8aW5maWxlLm1hZT4nLCAnLW9tYWUnLCAnPG91dGZpbGUubWFlPic=

>  <r_epik_Ionization_Penalty>  (129) 
3.78117

>  <r_epik_Ionization_Penalty_Charging>  (129) 
0

>  <r_epik_Ionization_Penalty_Neutral>  (129) 
3.78117

>  <r_epik_State_Penalty>  (129) 
2.41214

>  <r_epik_Charging_Adjusted_Penalty>  (129) 
2.41214

>  <i_epik_Tot_Q>  (129) 
0

>  <i_epik_Tot_abs_Q>  (129) 
0

>  <s_lp_Force_Field>  (129) 
OPLS3e

>  <r_lp_Energy>  (129) 
142.294

>  <b_lp_Chiralities_Consistent>  (129) 
1

>  <s_lp_Variant>  (129) 
30:0-9

>  <s_i_glide_gridfile>  (129) 
pfpi4k_grid

>  <i_i_glide_lignum>  (129) 
11

>  <i_i_glide_rotatable_bonds>  (129) 
3

>  <r_i_docking_score>  (129) 
-2.50662

>  <r_i_glide_ligand_efficiency>  (129) 
-0.089522

>  <r_i_glide_ligand_efficiency_sa>  (129) 
-0.271841

>  <r_i_glide_ligand_efficiency_ln>  (129) 
-0.5786

>  <r_i_glide_gscore>  (129) 
-2.50662

>  <r_i_glide_lipo>  (129) 
-0.00886019

>  <r_i_glide_hbond>  (129) 
-0.16

>  <r_i_glide_metal>  (129) 
-0

>  <r_i_glide_rewards>  (129) 
-0.787126

>  <r_i_glide_evdw>  (129) 
-14.3486

>  <r_i_glide_ecoul>  (129) 
-6.4312

>  <r_i_glide_erotb>  (129) 
0.131482

>  <r_i_glide_esite>  (129) 
0

>  <r_i_glide_emodel>  (129) 
-20.6936

>  <r_i_glide_energy>  (129) 
-20.7798

>  <r_i_glide_einternal>  (129) 
4.669

>  <r_i_glide_intrahb_reward>  (129) 
-0

>  <i_i_glide_confnum>  (129) 
6

>  <i_i_glide_posenum>  (129) 
27

>  <r_i_glide_eff_state_penalty>  (129) 
0

>  <ligand_id>  (129) 
30

>  <original_smiles>  (129) 
CC=C1CC(C(C)O)C2(C)C3(OC)C4CC56C(=CC)C1N(CCC523)C6CN4C

>  <smiles>  (129) 
[H]OC([H])(C([H])([H])[H])C1([H])C([H])([H])C(=C([H])C([H])([H])[H])C2([H])C(=C([H])C([H])([H])[H])C34C([H])([H])C5([H])N(C([H])([H])[H])C([H])([H])C3([H])N2C([H])([H])C([H])([H])C42C5(OC([H])([H])[H])C12C([H])([H])[H]

$$$$
30:8:2
     RDKit          3D

 64 69  0  0  1  0  0  0  0  0999 V2000
    2.0546    0.2504    1.8343 C   0  0  0  0  0  0  0  0  0  0  0  0
    2.6584    1.3605    2.6778 C   0  0  0  0  0  0  0  0  0  0  0  0
    2.4336    1.6160    3.9876 C   0  0  0  0  0  0  0  0  0  0  0  0
    3.2649    2.7505    4.6764 C   0  0  0  0  0  0  0  0  0  0  0  0
    2.7064    4.1663    5.1801 C   0  0  1  0  0  0  0  0  0  0  0  0
    2.4606    5.3443    4.1639 C   0  0  2  0  0  0  0  0  0  0  0  0
    3.6445    5.6367    3.2322 C   0  0  0  0  0  0  0  0  0  0  0  0
    2.2873    6.5595    4.8584 O   0  0  0  0  0  0  0  0  0  0  0  0
    1.7195    4.0849    6.3731 C   0  0  1  0  0  0  0  0  0  0  0  0
    2.5378    4.0393    7.6694 C   0  0  0  0  0  0  0  0  0  0  0  0
    0.1752    4.1866    6.6894 C   0  0  2  0  0  0  0  0  0  0  0  0
   -0.3978    5.3570    6.0808 O   0  0  0  0  0  0  0  0  0  0  0  0
   -0.2282    6.5268    6.8751 C   0  0  0  0  0  0  0  0  0  0  0  0
   -0.7463    3.4061    7.6367 C   0  0  2  0  0  0  0  0  0  0  0  0
    0.0851    2.1620    8.0505 C   0  0  0  0  0  0  0  0  0  0  0  0
    0.5281    1.7928    6.6281 C   0  0  2  0  0  0  0  0  0  0  0  0
    1.6954    0.9006    6.3124 C   0  0  0  0  0  0  0  0  0  0  0  0
    2.5767    0.2391    7.1032 C   0  0  0  0  0  0  0  0  0  0  0  0
    2.7376    0.2737    8.6085 C   0  0  0  0  0  0  0  0  0  0  0  0
    1.5242    0.6411    4.8305 C   0  0  1  0  0  0  0  0  0  0  0  0
    0.0041    0.7400    4.6537 N   0  0  0  0  0  0  0  0  0  0  0  0
   -0.3948    1.8241    3.8072 C   0  0  0  0  0  0  0  0  0  0  0  0
   -0.0033    3.1621    4.4178 C   0  0  0  0  0  0  0  0  0  0  0  0
    0.6397    3.1272    5.8502 C   0  0  2  0  0  0  0  0  0  0  0  0
   -0.5507    0.9736    6.0008 C   0  0  2  0  0  0  0  0  0  0  0  0
   -1.9486    1.6233    6.2655 C   0  0  0  0  0  0  0  0  0  0  0  0
   -1.9950    2.9701    6.9360 N   0  0  0  0  0  0  0  0  0  0  0  0
   -3.1994    3.1475    7.7378 C   0  0  0  0  0  0  0  0  0  0  0  0
    1.5090    0.6795    0.9910 H   0  0  0  0  0  0  0  0  0  0  0  0
    1.3586   -0.3794    2.3846 H   0  0  0  0  0  0  0  0  0  0  0  0
    2.8387   -0.3889    1.4289 H   0  0  0  0  0  0  0  0  0  0  0  0
    3.3465    1.9948    2.1355 H   0  0  0  0  0  0  0  0  0  0  0  0
    3.7856    2.2826    5.5105 H   0  0  0  0  0  0  0  0  0  0  0  0
    4.0915    2.9838    4.0073 H   0  0  0  0  0  0  0  0  0  0  0  0
    3.6201    4.5588    5.6242 H   0  0  0  0  0  0  0  0  0  0  0  0
    1.5976    5.2546    3.5262 H   0  0  0  0  0  0  0  0  0  0  0  0
    3.8151    4.8059    2.5491 H   0  0  0  0  0  0  0  0  0  0  0  0
    4.5475    5.8503    3.7924 H   0  0  0  0  0  0  0  0  0  0  0  0
    3.4319    6.5046    2.6179 H   0  0  0  0  0  0  0  0  0  0  0  0
    1.8459    7.1545    4.2896 H   0  0  0  0  0  0  0  0  0  0  0  0
    1.9115    4.3026    8.5258 H   0  0  0  0  0  0  0  0  0  0  0  0
    3.3395    4.7751    7.6741 H   0  0  0  0  0  0  0  0  0  0  0  0
    2.9728    3.0524    7.8256 H   0  0  0  0  0  0  0  0  0  0  0  0
   -0.6756    7.3734    6.3530 H   0  0  0  0  0  0  0  0  0  0  0  0
    0.8200    6.7683    7.0411 H   0  0  0  0  0  0  0  0  0  0  0  0
   -0.7177    6.4312    7.8441 H   0  0  0  0  0  0  0  0  0  0  0  0
   -0.9799    4.0295    8.5079 H   0  0  0  0  0  0  0  0  0  0  0  0
    0.8917    2.4282    8.7155 H   0  0  0  0  0  0  0  0  0  0  0  0
   -0.4990    1.3885    8.5526 H   0  0  0  0  0  0  0  0  0  0  0  0
    3.3010   -0.3973    6.5996 H   0  0  0  0  0  0  0  0  0  0  0  0
    3.0237   -0.7255    8.9579 H   0  0  0  0  0  0  0  0  0  0  0  0
    1.8180    0.5262    9.1393 H   0  0  0  0  0  0  0  0  0  0  0  0
    3.5335    0.9582    8.9077 H   0  0  0  0  0  0  0  0  0  0  0  0
    1.8538   -0.3737    4.6324 H   0  0  0  0  0  0  0  0  0  0  0  0
    0.0031    1.7190    2.8029 H   0  0  0  0  0  0  0  0  0  0  0  0
   -1.4808    1.7937    3.6497 H   0  0  0  0  0  0  0  0  0  0  0  0
    0.6790    3.5283    3.6779 H   0  0  0  0  0  0  0  0  0  0  0  0
   -0.8685    3.8263    4.3789 H   0  0  0  0  0  0  0  0  0  0  0  0
   -0.5573    0.0072    6.5153 H   0  0  0  0  0  0  0  0  0  0  0  0
   -2.5653    1.6385    5.3645 H   0  0  0  0  0  0  0  0  0  0  0  0
   -2.4761    0.9301    6.9148 H   0  0  0  0  0  0  0  0  0  0  0  0
   -4.0854    2.9217    7.1357 H   0  0  0  0  0  0  0  0  0  0  0  0
   -3.2944    4.1792    8.0795 H   0  0  0  0  0  0  0  0  0  0  0  0
   -3.2070    2.4993    8.6113 H   0  0  0  0  0  0  0  0  0  0  0  0
  1  2  1  0
  1 29  1  0
  1 30  1  0
  1 31  1  0
  2  3  2  3
  2 32  1  0
  3 20  1  0
  3  4  1  0
  4  5  1  0
  4 33  1  0
  4 34  1  0
  5  6  1  0
  5  9  1  0
  5 35  1  1
  6  7  1  0
  6  8  1  0
  6 36  1  6
  7 37  1  0
  7 38  1  0
  7 39  1  0
  8 40  1  0
  9 24  1  0
  9 10  1  1
  9 11  1  0
 10 41  1  0
 10 42  1  0
 10 43  1  0
 11 24  1  0
 11 12  1  6
 11 14  1  0
 12 13  1  0
 13 44  1  0
 13 45  1  0
 13 46  1  0
 14 27  1  0
 14 15  1  0
 14 47  1  1
 16 15  1  1
 15 48  1  0
 15 49  1  0
 16 24  1  0
 16 25  1  0
 16 17  1  0
 17 18  2  3
 17 20  1  0
 18 19  1  0
 18 50  1  0
 19 51  1  0
 19 52  1  0
 19 53  1  0
 20 21  1  0
 20 54  1  1
 21 22  1  0
 21 25  1  0
 22 23  1  0
 22 55  1  0
 22 56  1  0
 24 23  1  6
 23 57  1  0
 23 58  1  0
 25 26  1  0
 25 59  1  1
 26 27  1  0
 26 60  1  0
 26 61  1  0
 27 28  1  0
 28 62  1  0
 28 63  1  0
 28 64  1  0
M  END
>  <i_m_ct_stereo_status>  (130) 
1

>  <s_m_source_file>  (130) 
/var/tmp/pbs.5076255.sched01/tmpuxvxg9lz/41q4u19exn.sdf

>  <i_m_source_file_index>  (130) 
11

>  <i_lp_mmshare_version>  (130) 
48012

>  <i_f3d_flags>  (130) 
0

>  <s_epik_input>  (130) 
W0NIM11bQ0BIXShbT0hdKVtDQEBIXTFbQ0gyXVxDKD1bQ0hdXFtDSDNdKVtDQEBIXShDXDI9W0NIXVxbQ0gzXSlOKFtDSDJdW0NIMl0zKVtDQEBIXTRbQ0gyXU4oW0NIM10pW0NAQEhdKFtDSDJdNSlbQ0BdNihbQ0BAXTEoW0NIM10pW0NAXTM2W0NAXTI0NSlPW0NIM10=

>  <s_epik_cmdline>  (130) 
J2VwaWtfcHl0aG9uJywgJy1waHQnLCAnMi4wJywgJy1waCcsICc3LjAnLCAnLXRuJywgJzgnLCAnLW1hJywgJzIwMCcsICctaW1hZScsICc8aW5maWxlLm1hZT4nLCAnLW9tYWUnLCAnPG91dGZpbGUubWFlPic=

>  <r_epik_Ionization_Penalty>  (130) 
3.78117

>  <r_epik_Ionization_Penalty_Charging>  (130) 
0

>  <r_epik_Ionization_Penalty_Neutral>  (130) 
3.78117

>  <r_epik_State_Penalty>  (130) 
2.41214

>  <r_epik_Charging_Adjusted_Penalty>  (130) 
2.41214

>  <i_epik_Tot_Q>  (130) 
0

>  <i_epik_Tot_abs_Q>  (130) 
0

>  <s_lp_Force_Field>  (130) 
OPLS3e

>  <r_lp_Energy>  (130) 
142.294

>  <b_lp_Chiralities_Consistent>  (130) 
1

>  <s_lp_Variant>  (130) 
30:0-9

>  <s_i_glide_gridfile>  (130) 
pfpi4k_grid

>  <i_i_glide_lignum>  (130) 
11

>  <i_i_glide_rotatable_bonds>  (130) 
3

>  <r_i_docking_score>  (130) 
-1.78249

>  <r_i_glide_ligand_efficiency>  (130) 
-0.0636604

>  <r_i_glide_ligand_efficiency_sa>  (130) 
-0.19331

>  <r_i_glide_ligand_efficiency_ln>  (130) 
-0.411451

>  <r_i_glide_gscore>  (130) 
-1.78249

>  <r_i_glide_lipo>  (130) 
-0.136908

>  <r_i_glide_hbond>  (130) 
0

>  <r_i_glide_metal>  (130) 
-0

>  <r_i_glide_rewards>  (130) 
-0.787126

>  <r_i_glide_evdw>  (130) 
-15.9933

>  <r_i_glide_ecoul>  (130) 
-1.26847

>  <r_i_glide_erotb>  (130) 
0.131482

>  <r_i_glide_esite>  (130) 
0

>  <r_i_glide_emodel>  (130) 
-19.6587

>  <r_i_glide_energy>  (130) 
-17.2618

>  <r_i_glide_einternal>  (130) 
0.640434

>  <r_i_glide_intrahb_reward>  (130) 
-0

>  <i_i_glide_confnum>  (130) 
4

>  <i_i_glide_posenum>  (130) 
18

>  <r_i_glide_eff_state_penalty>  (130) 
0

>  <ligand_id>  (130) 
30

>  <original_smiles>  (130) 
CC=C1CC(C(C)O)C2(C)C3(OC)C4CC56C(=CC)C1N(CCC523)C6CN4C

>  <smiles>  (130) 
[H]OC([H])(C([H])([H])[H])C1([H])C([H])([H])C(=C([H])C([H])([H])[H])C2([H])C(=C([H])C([H])([H])[H])C34C([H])([H])C5([H])N(C([H])([H])[H])C([H])([H])C3([H])N2C([H])([H])C([H])([H])C42C5(OC([H])([H])[H])C12C([H])([H])[H]

$$$$
30:9:0
     RDKit          3D

 64 69  0  0  1  0  0  0  0  0999 V2000
    6.5982   -1.4742    0.6368 C   0  0  0  0  0  0  0  0  0  0  0  0
    6.6637   -2.9342    1.1033 C   0  0  0  0  0  0  0  0  0  0  0  0
    5.8803   -3.6221    1.9502 C   0  0  0  0  0  0  0  0  0  0  0  0
    4.7007   -2.9578    2.7356 C   0  0  0  0  0  0  0  0  0  0  0  0
    3.1795   -3.2530    2.3806 C   0  0  1  0  0  0  0  0  0  0  0  0
    2.6420   -2.6544    1.0415 C   0  0  2  0  0  0  0  0  0  0  0  0
    3.5852   -2.4965   -0.1708 C   0  0  0  0  0  0  0  0  0  0  0  0
    2.2204   -1.3028    1.2759 O   0  0  0  0  0  0  0  0  0  0  0  0
    2.6361   -4.6544    2.8614 C   0  0  1  0  0  0  0  0  0  0  0  0
    2.3328   -4.5909    4.3722 C   0  0  0  0  0  0  0  0  0  0  0  0
    2.2139   -6.0899    2.3049 C   0  0  2  0  0  0  0  0  0  0  0  0
    1.2527   -5.9596    1.2434 O   0  0  0  0  0  0  0  0  0  0  0  0
    0.1241   -6.8111    1.3816 C   0  0  0  0  0  0  0  0  0  0  0  0
    2.5460   -7.5346    2.7949 C   0  0  2  0  0  0  0  0  0  0  0  0
    3.6566   -7.3620    3.8308 C   0  0  0  0  0  0  0  0  0  0  0  0
    4.5359   -6.4383    2.9871 C   0  0  2  0  0  0  0  0  0  0  0  0
    5.6283   -5.5882    3.5602 C   0  0  0  0  0  0  0  0  0  0  0  0
    6.0830   -5.4261    4.8502 C   0  0  0  0  0  0  0  0  0  0  0  0
    5.5554   -6.0163    6.1393 C   0  0  0  0  0  0  0  0  0  0  0  0
    6.3324   -5.0816    2.3246 C   0  0  1  0  0  0  0  0  0  0  0  0
    6.0997   -6.1896    1.3189 N   0  0  0  0  0  0  0  0  0  0  0  0
    5.3019   -5.7788    0.1811 C   0  0  0  0  0  0  0  0  0  0  0  0
    3.8234   -5.6393    0.5725 C   0  0  0  0  0  0  0  0  0  0  0  0
    3.5445   -5.6194    2.1130 C   0  0  2  0  0  0  0  0  0  0  0  0
    5.3884   -7.2569    2.0647 C   0  0  2  0  0  0  0  0  0  0  0  0
    4.5256   -8.3908    1.3868 C   0  0  0  0  0  0  0  0  0  0  0  0
    3.0461   -8.4134    1.6837 N   0  0  0  0  0  0  0  0  0  0  0  0
    2.4919   -9.7519    1.6686 C   0  0  0  0  0  0  0  0  0  0  0  0
    6.5640   -1.4695   -0.4560 H   0  0  0  0  0  0  0  0  0  0  0  0
    7.4639   -0.9051    0.9707 H   0  0  0  0  0  0  0  0  0  0  0  0
    5.7586   -0.8935    1.0077 H   0  0  0  0  0  0  0  0  0  0  0  0
    7.4834   -3.4807    0.6519 H   0  0  0  0  0  0  0  0  0  0  0  0
    4.8475   -3.1404    3.8002 H   0  0  0  0  0  0  0  0  0  0  0  0
    4.8266   -1.8820    2.6782 H   0  0  0  0  0  0  0  0  0  0  0  0
    2.6954   -2.5907    3.1210 H   0  0  0  0  0  0  0  0  0  0  0  0
    1.7887   -3.1967    0.7244 H   0  0  0  0  0  0  0  0  0  0  0  0
    4.2078   -3.3412   -0.4422 H   0  0  0  0  0  0  0  0  0  0  0  0
    4.2931   -1.7591    0.1127 H   0  0  0  0  0  0  0  0  0  0  0  0
    3.1109   -2.0894   -1.0653 H   0  0  0  0  0  0  0  0  0  0  0  0
    1.6820   -1.0096    0.5592 H   0  0  0  0  0  0  0  0  0  0  0  0
    1.7151   -5.4343    4.6837 H   0  0  0  0  0  0  0  0  0  0  0  0
    1.7645   -3.7034    4.6494 H   0  0  0  0  0  0  0  0  0  0  0  0
    3.2538   -4.6011    4.9564 H   0  0  0  0  0  0  0  0  0  0  0  0
   -0.5722   -6.6783    0.5496 H   0  0  0  0  0  0  0  0  0  0  0  0
   -0.4026   -6.6225    2.3165 H   0  0  0  0  0  0  0  0  0  0  0  0
    0.3956   -7.8606    1.3530 H   0  0  0  0  0  0  0  0  0  0  0  0
    1.6540   -7.9568    3.2500 H   0  0  0  0  0  0  0  0  0  0  0  0
    3.2725   -6.9115    4.7425 H   0  0  0  0  0  0  0  0  0  0  0  0
    4.1279   -8.3056    4.1138 H   0  0  0  0  0  0  0  0  0  0  0  0
    6.9398   -4.7915    4.9876 H   0  0  0  0  0  0  0  0  0  0  0  0
    6.3877   -6.2129    6.8177 H   0  0  0  0  0  0  0  0  0  0  0  0
    5.0440   -6.9629    6.0075 H   0  0  0  0  0  0  0  0  0  0  0  0
    4.8934   -5.3136    6.6431 H   0  0  0  0  0  0  0  0  0  0  0  0
    7.4052   -5.0430    2.5414 H   0  0  0  0  0  0  0  0  0  0  0  0
    5.7302   -4.9085   -0.3067 H   0  0  0  0  0  0  0  0  0  0  0  0
    5.3654   -6.5470   -0.5792 H   0  0  0  0  0  0  0  0  0  0  0  0
    3.2130   -4.9259    0.0294 H   0  0  0  0  0  0  0  0  0  0  0  0
    3.3592   -6.5120    0.1222 H   0  0  0  0  0  0  0  0  0  0  0  0
    6.1385   -7.7845    2.6641 H   0  0  0  0  0  0  0  0  0  0  0  0
    4.6704   -8.4026    0.3063 H   0  0  0  0  0  0  0  0  0  0  0  0
    4.9521   -9.3358    1.7169 H   0  0  0  0  0  0  0  0  0  0  0  0
    2.7870  -10.2482    0.7434 H   0  0  0  0  0  0  0  0  0  0  0  0
    1.4036   -9.7362    1.6839 H   0  0  0  0  0  0  0  0  0  0  0  0
    2.8389  -10.3479    2.5123 H   0  0  0  0  0  0  0  0  0  0  0  0
  1  2  1  0
  1 29  1  0
  1 30  1  0
  1 31  1  0
  2  3  2  3
  2 32  1  0
  3 20  1  0
  3  4  1  0
  4  5  1  0
  4 33  1  0
  4 34  1  0
  5  6  1  0
  5  9  1  0
  5 35  1  1
  6  7  1  0
  6  8  1  0
  6 36  1  6
  7 37  1  0
  7 38  1  0
  7 39  1  0
  8 40  1  0
  9 24  1  0
  9 10  1  1
  9 11  1  0
 10 41  1  0
 10 42  1  0
 10 43  1  0
 11 24  1  0
 11 12  1  6
 11 14  1  0
 12 13  1  0
 13 44  1  0
 13 45  1  0
 13 46  1  0
 14 27  1  0
 14 15  1  0
 14 47  1  1
 16 15  1  1
 15 48  1  0
 15 49  1  0
 16 24  1  0
 16 25  1  0
 16 17  1  0
 17 18  2  3
 17 20  1  0
 18 19  1  0
 18 50  1  0
 19 51  1  0
 19 52  1  0
 19 53  1  0
 20 21  1  0
 20 54  1  1
 21 22  1  0
 21 25  1  0
 22 23  1  0
 22 55  1  0
 22 56  1  0
 24 23  1  6
 23 57  1  0
 23 58  1  0
 25 26  1  0
 25 59  1  1
 26 27  1  0
 26 60  1  0
 26 61  1  0
 27 28  1  0
 28 62  1  0
 28 63  1  0
 28 64  1  0
M  END
>  <i_m_ct_stereo_status>  (131) 
1

>  <s_m_source_file>  (131) 
/var/tmp/pbs.5076255.sched01/tmpuxvxg9lz/41q4u19exn.sdf

>  <i_m_source_file_index>  (131) 
12

>  <i_lp_mmshare_version>  (131) 
48012

>  <i_f3d_flags>  (131) 
0

>  <s_epik_input>  (131) 
W0NIM11bQ0BIXShbT0hdKVtDQEBIXTFbQ0gyXVxDKD1bQ0hdXFtDSDNdKVtDQEBIXShDXDI9W0NIXVxbQ0gzXSlOKFtDSDJdW0NIMl0zKVtDQEBIXTRbQ0gyXU4oW0NIM10pW0NAQEhdKFtDSDJdNSlbQ0BdNihbQ0BAXTEoW0NIM10pW0NAXTM2W0NAXTI0NSlPW0NIM10=

>  <s_epik_cmdline>  (131) 
J2VwaWtfcHl0aG9uJywgJy1waHQnLCAnMi4wJywgJy1waCcsICc3LjAnLCAnLXRuJywgJzgnLCAnLW1hJywgJzIwMCcsICctaW1hZScsICc8aW5maWxlLm1hZT4nLCAnLW9tYWUnLCAnPG91dGZpbGUubWFlPic=

>  <r_epik_Ionization_Penalty>  (131) 
3.78117

>  <r_epik_Ionization_Penalty_Charging>  (131) 
0

>  <r_epik_Ionization_Penalty_Neutral>  (131) 
3.78117

>  <r_epik_State_Penalty>  (131) 
2.41214

>  <r_epik_Charging_Adjusted_Penalty>  (131) 
2.41214

>  <i_epik_Tot_Q>  (131) 
0

>  <i_epik_Tot_abs_Q>  (131) 
0

>  <s_lp_Force_Field>  (131) 
OPLS3e

>  <r_lp_Energy>  (131) 
141.072

>  <b_lp_Chiralities_Consistent>  (131) 
1

>  <s_lp_Variant>  (131) 
30:0-10

>  <s_i_glide_gridfile>  (131) 
pfpi4k_grid

>  <i_i_glide_lignum>  (131) 
12

>  <i_i_glide_rotatable_bonds>  (131) 
3

>  <r_i_docking_score>  (131) 
-3.10053

>  <r_i_glide_ligand_efficiency>  (131) 
-0.110733

>  <r_i_glide_ligand_efficiency_sa>  (131) 
-0.336251

>  <r_i_glide_ligand_efficiency_ln>  (131) 
-0.715694

>  <r_i_glide_gscore>  (131) 
-3.10053

>  <r_i_glide_lipo>  (131) 
-0.350896

>  <r_i_glide_hbond>  (131) 
-0.31801

>  <r_i_glide_metal>  (131) 
-0

>  <r_i_glide_rewards>  (131) 
-0.787126

>  <r_i_glide_evdw>  (131) 
-17.2444

>  <r_i_glide_ecoul>  (131) 
-6.09174

>  <r_i_glide_erotb>  (131) 
0.131482

>  <r_i_glide_esite>  (131) 
0

>  <r_i_glide_emodel>  (131) 
-22.1005

>  <r_i_glide_energy>  (131) 
-23.3361

>  <r_i_glide_einternal>  (131) 
5.54911

>  <r_i_glide_intrahb_reward>  (131) 
-0

>  <i_i_glide_confnum>  (131) 
1

>  <i_i_glide_posenum>  (131) 
6

>  <r_i_glide_eff_state_penalty>  (131) 
0

>  <ligand_id>  (131) 
30

>  <original_smiles>  (131) 
CC=C1CC(C(C)O)C2(C)C3(OC)C4CC56C(=CC)C1N(CCC523)C6CN4C

>  <smiles>  (131) 
[H]OC([H])(C([H])([H])[H])C1([H])C([H])([H])C(=C([H])C([H])([H])[H])C2([H])C(=C([H])C([H])([H])[H])C34C([H])([H])C5([H])N(C([H])([H])[H])C([H])([H])C3([H])N2C([H])([H])C([H])([H])C42C5(OC([H])([H])[H])C12C([H])([H])[H]

$$$$
30:9:1
     RDKit          3D

 64 69  0  0  1  0  0  0  0  0999 V2000
    5.3425   -2.0506   -1.4331 C   0  0  0  0  0  0  0  0  0  0  0  0
    5.3435   -3.4597   -0.8614 C   0  0  0  0  0  0  0  0  0  0  0  0
    5.3148   -3.8593    0.4293 C   0  0  0  0  0  0  0  0  0  0  0  0
    5.3956   -2.8623    1.6392 C   0  0  0  0  0  0  0  0  0  0  0  0
    4.1629   -2.5009    2.5749 C   0  0  1  0  0  0  0  0  0  0  0  0
    3.0728   -1.5622    1.9615 C   0  0  2  0  0  0  0  0  0  0  0  0
    3.5886   -0.1697    1.5463 C   0  0  0  0  0  0  0  0  0  0  0  0
    2.0419   -1.3518    2.9160 O   0  0  0  0  0  0  0  0  0  0  0  0
    3.7475   -3.6618    3.5652 C   0  0  1  0  0  0  0  0  0  0  0  0
    4.6868   -3.6292    4.7795 C   0  0  0  0  0  0  0  0  0  0  0  0
    2.6353   -4.7757    3.8070 C   0  0  2  0  0  0  0  0  0  0  0  0
    1.3288   -4.2256    3.7381 O   0  0  0  0  0  0  0  0  0  0  0  0
    0.8471   -3.8533    5.0123 C   0  0  0  0  0  0  0  0  0  0  0  0
    2.7265   -6.2894    4.2192 C   0  0  2  0  0  0  0  0  0  0  0  0
    4.2135   -6.6621    4.0905 C   0  0  0  0  0  0  0  0  0  0  0  0
    4.4046   -6.0400    2.7067 C   0  0  2  0  0  0  0  0  0  0  0  0
    5.7664   -5.7122    2.1372 C   0  0  0  0  0  0  0  0  0  0  0  0
    7.0134   -5.8280    2.6207 C   0  0  0  0  0  0  0  0  0  0  0  0
    7.4772   -6.3010    3.9875 C   0  0  0  0  0  0  0  0  0  0  0  0
    5.4289   -5.3972    0.6947 C   0  0  1  0  0  0  0  0  0  0  0  0
    4.2192   -6.2646    0.4229 N   0  0  0  0  0  0  0  0  0  0  0  0
    3.0229   -5.4852    0.1338 C   0  0  0  0  0  0  0  0  0  0  0  0
    2.4810   -4.7981    1.3867 C   0  0  0  0  0  0  0  0  0  0  0  0
    3.4383   -4.8271    2.6300 C   0  0  2  0  0  0  0  0  0  0  0  0
    3.9972   -7.0387    1.6725 C   0  0  2  0  0  0  0  0  0  0  0  0
    2.6147   -7.6949    2.0644 C   0  0  0  0  0  0  0  0  0  0  0  0
    1.9254   -7.1810    3.3088 N   0  0  0  0  0  0  0  0  0  0  0  0
    1.1904   -8.2345    3.9964 C   0  0  0  0  0  0  0  0  0  0  0  0
    4.6033   -1.9899   -2.2319 H   0  0  0  0  0  0  0  0  0  0  0  0
    6.2996   -1.8551   -1.9197 H   0  0  0  0  0  0  0  0  0  0  0  0
    5.1256   -1.2896   -0.6969 H   0  0  0  0  0  0  0  0  0  0  0  0
    5.3683   -4.2519   -1.5964 H   0  0  0  0  0  0  0  0  0  0  0  0
    6.2029   -3.1908    2.2957 H   0  0  0  0  0  0  0  0  0  0  0  0
    5.7937   -1.9271    1.2777 H   0  0  0  0  0  0  0  0  0  0  0  0
    4.6113   -1.7789    3.2596 H   0  0  0  0  0  0  0  0  0  0  0  0
    2.6501   -1.9747    1.0535 H   0  0  0  0  0  0  0  0  0  0  0  0
    4.4197   -0.2086    0.8460 H   0  0  0  0  0  0  0  0  0  0  0  0
    3.8554    0.4529    2.4096 H   0  0  0  0  0  0  0  0  0  0  0  0
    2.7776    0.3533    1.0401 H   0  0  0  0  0  0  0  0  0  0  0  0
    1.6075   -2.1687    3.1151 H   0  0  0  0  0  0  0  0  0  0  0  0
    4.2742   -4.2140    5.6037 H   0  0  0  0  0  0  0  0  0  0  0  0
    4.8091   -2.6159    5.1690 H   0  0  0  0  0  0  0  0  0  0  0  0
    5.6634   -4.0224    4.5009 H   0  0  0  0  0  0  0  0  0  0  0  0
   -0.1546   -3.4488    4.8854 H   0  0  0  0  0  0  0  0  0  0  0  0
    1.4660   -3.0791    5.4729 H   0  0  0  0  0  0  0  0  0  0  0  0
    0.7819   -4.7065    5.6899 H   0  0  0  0  0  0  0  0  0  0  0  0
    2.3847   -6.4080    5.2492 H   0  0  0  0  0  0  0  0  0  0  0  0
    4.8071   -6.1924    4.8662 H   0  0  0  0  0  0  0  0  0  0  0  0
    4.4288   -7.7366    4.1287 H   0  0  0  0  0  0  0  0  0  0  0  0
    7.8158   -5.5595    1.9467 H   0  0  0  0  0  0  0  0  0  0  0  0
    8.4118   -6.8408    3.8575 H   0  0  0  0  0  0  0  0  0  0  0  0
    6.7840   -6.9888    4.4672 H   0  0  0  0  0  0  0  0  0  0  0  0
    7.6749   -5.4507    4.6377 H   0  0  0  0  0  0  0  0  0  0  0  0
    6.2790   -5.7423    0.0972 H   0  0  0  0  0  0  0  0  0  0  0  0
    3.2023   -4.7743   -0.6647 H   0  0  0  0  0  0  0  0  0  0  0  0
    2.2576   -6.1479   -0.2689 H   0  0  0  0  0  0  0  0  0  0  0  0
    2.0935   -3.8150    1.1719 H   0  0  0  0  0  0  0  0  0  0  0  0
    1.5855   -5.3694    1.6330 H   0  0  0  0  0  0  0  0  0  0  0  0
    4.7325   -7.8454    1.6997 H   0  0  0  0  0  0  0  0  0  0  0  0
    1.9369   -7.6970    1.2115 H   0  0  0  0  0  0  0  0  0  0  0  0
    2.8261   -8.7466    2.2309 H   0  0  0  0  0  0  0  0  0  0  0  0
    0.5329   -8.7709    3.3068 H   0  0  0  0  0  0  0  0  0  0  0  0
    0.5600   -7.8327    4.7964 H   0  0  0  0  0  0  0  0  0  0  0  0
    1.8785   -8.9582    4.4386 H   0  0  0  0  0  0  0  0  0  0  0  0
  1  2  1  0
  1 29  1  0
  1 30  1  0
  1 31  1  0
  2  3  2  3
  2 32  1  0
  3 20  1  0
  3  4  1  0
  4  5  1  0
  4 33  1  0
  4 34  1  0
  5  6  1  0
  5  9  1  0
  5 35  1  1
  6  7  1  0
  6  8  1  0
  6 36  1  6
  7 37  1  0
  7 38  1  0
  7 39  1  0
  8 40  1  0
  9 24  1  0
  9 10  1  1
  9 11  1  0
 10 41  1  0
 10 42  1  0
 10 43  1  0
 11 24  1  0
 11 12  1  6
 11 14  1  0
 12 13  1  0
 13 44  1  0
 13 45  1  0
 13 46  1  0
 14 27  1  0
 14 15  1  0
 14 47  1  1
 16 15  1  1
 15 48  1  0
 15 49  1  0
 16 24  1  0
 16 25  1  0
 16 17  1  0
 17 18  2  3
 17 20  1  0
 18 19  1  0
 18 50  1  0
 19 51  1  0
 19 52  1  0
 19 53  1  0
 20 21  1  0
 20 54  1  6
 21 22  1  0
 21 25  1  0
 22 23  1  0
 22 55  1  0
 22 56  1  0
 24 23  1  6
 23 57  1  0
 23 58  1  0
 25 26  1  0
 25 59  1  6
 26 27  1  0
 26 60  1  0
 26 61  1  0
 27 28  1  0
 28 62  1  0
 28 63  1  0
 28 64  1  0
M  END
>  <i_m_ct_stereo_status>  (132) 
1

>  <s_m_source_file>  (132) 
/var/tmp/pbs.5076255.sched01/tmpuxvxg9lz/41q4u19exn.sdf

>  <i_m_source_file_index>  (132) 
12

>  <i_lp_mmshare_version>  (132) 
48012

>  <i_f3d_flags>  (132) 
0

>  <s_epik_input>  (132) 
W0NIM11bQ0BIXShbT0hdKVtDQEBIXTFbQ0gyXVxDKD1bQ0hdXFtDSDNdKVtDQEBIXShDXDI9W0NIXVxbQ0gzXSlOKFtDSDJdW0NIMl0zKVtDQEBIXTRbQ0gyXU4oW0NIM10pW0NAQEhdKFtDSDJdNSlbQ0BdNihbQ0BAXTEoW0NIM10pW0NAXTM2W0NAXTI0NSlPW0NIM10=

>  <s_epik_cmdline>  (132) 
J2VwaWtfcHl0aG9uJywgJy1waHQnLCAnMi4wJywgJy1waCcsICc3LjAnLCAnLXRuJywgJzgnLCAnLW1hJywgJzIwMCcsICctaW1hZScsICc8aW5maWxlLm1hZT4nLCAnLW9tYWUnLCAnPG91dGZpbGUubWFlPic=

>  <r_epik_Ionization_Penalty>  (132) 
3.78117

>  <r_epik_Ionization_Penalty_Charging>  (132) 
0

>  <r_epik_Ionization_Penalty_Neutral>  (132) 
3.78117

>  <r_epik_State_Penalty>  (132) 
2.41214

>  <r_epik_Charging_Adjusted_Penalty>  (132) 
2.41214

>  <i_epik_Tot_Q>  (132) 
0

>  <i_epik_Tot_abs_Q>  (132) 
0

>  <s_lp_Force_Field>  (132) 
OPLS3e

>  <r_lp_Energy>  (132) 
141.072

>  <b_lp_Chiralities_Consistent>  (132) 
1

>  <s_lp_Variant>  (132) 
30:0-10

>  <s_i_glide_gridfile>  (132) 
pfpi4k_grid

>  <i_i_glide_lignum>  (132) 
12

>  <i_i_glide_rotatable_bonds>  (132) 
3

>  <r_i_docking_score>  (132) 
-2.43771

>  <r_i_glide_ligand_efficiency>  (132) 
-0.087061

>  <r_i_glide_ligand_efficiency_sa>  (132) 
-0.264369

>  <r_i_glide_ligand_efficiency_ln>  (132) 
-0.562695

>  <r_i_glide_gscore>  (132) 
-2.43771

>  <r_i_glide_lipo>  (132) 
-0.411245

>  <r_i_glide_hbond>  (132) 
0

>  <r_i_glide_metal>  (132) 
-0

>  <r_i_glide_rewards>  (132) 
-1.28713

>  <r_i_glide_evdw>  (132) 
-18.5702

>  <r_i_glide_ecoul>  (132) 
0.384595

>  <r_i_glide_erotb>  (132) 
0.131482

>  <r_i_glide_esite>  (132) 
0

>  <r_i_glide_emodel>  (132) 
-26.4207

>  <r_i_glide_energy>  (132) 
-18.1856

>  <r_i_glide_einternal>  (132) 
0.340348

>  <r_i_glide_intrahb_reward>  (132) 
-0.5

>  <i_i_glide_confnum>  (132) 
4

>  <i_i_glide_posenum>  (132) 
5

>  <r_i_glide_eff_state_penalty>  (132) 
0

>  <ligand_id>  (132) 
30

>  <original_smiles>  (132) 
CC=C1CC(C(C)O)C2(C)C3(OC)C4CC56C(=CC)C1N(CCC523)C6CN4C

>  <smiles>  (132) 
[H]OC([H])(C([H])([H])[H])C1([H])C([H])([H])C(=C([H])C([H])([H])[H])C2([H])C(=C([H])C([H])([H])[H])C34C([H])([H])C5([H])N(C([H])([H])[H])C([H])([H])C3([H])N2C([H])([H])C([H])([H])C42C5(OC([H])([H])[H])C12C([H])([H])[H]

$$$$
30:9:2
     RDKit          3D

 64 69  0  0  1  0  0  0  0  0999 V2000
    4.9339   -2.5640   -1.7392 C   0  0  0  0  0  0  0  0  0  0  0  0
    4.9298   -3.9256   -1.0437 C   0  0  0  0  0  0  0  0  0  0  0  0
    4.9908   -4.1918    0.2960 C   0  0  0  0  0  0  0  0  0  0  0  0
    5.2017   -3.0990    1.4045 C   0  0  0  0  0  0  0  0  0  0  0  0
    4.0557   -2.5938    2.3948 C   0  0  1  0  0  0  0  0  0  0  0  0
    2.9520   -1.6816    1.7567 C   0  0  2  0  0  0  0  0  0  0  0  0
    3.4833   -0.3619    1.1327 C   0  0  0  0  0  0  0  0  0  0  0  0
    1.9997   -1.3085    2.7268 O   0  0  0  0  0  0  0  0  0  0  0  0
    3.6877   -3.6520    3.5230 C   0  0  1  0  0  0  0  0  0  0  0  0
    4.7279   -3.5264    4.6412 C   0  0  0  0  0  0  0  0  0  0  0  0
    2.5731   -4.6971    3.9526 C   0  0  2  0  0  0  0  0  0  0  0  0
    1.2778   -4.1370    3.9362 O   0  0  0  0  0  0  0  0  0  0  0  0
    0.9043   -3.6038    5.1869 C   0  0  0  0  0  0  0  0  0  0  0  0
    2.6506   -6.1686    4.5017 C   0  0  2  0  0  0  0  0  0  0  0  0
    4.1106   -6.5987    4.2885 C   0  0  0  0  0  0  0  0  0  0  0  0
    4.2144   -6.1113    2.8385 C   0  0  2  0  0  0  0  0  0  0  0  0
    5.5120   -5.8900    2.1318 C   0  0  0  0  0  0  0  0  0  0  0  0
    6.8064   -6.0031    2.5381 C   0  0  0  0  0  0  0  0  0  0  0  0
    7.3537   -6.3717    3.8923 C   0  0  0  0  0  0  0  0  0  0  0  0
    5.0833   -5.7029    0.6935 C   0  0  1  0  0  0  0  0  0  0  0  0
    3.8298   -6.5529    0.6061 N   0  0  0  0  0  0  0  0  0  0  0  0
    2.6329   -5.7571    0.3506 C   0  0  0  0  0  0  0  0  0  0  0  0
    2.2106   -4.9336    1.5710 C   0  0  0  0  0  0  0  0  0  0  0  0
    3.2766   -4.8791    2.7308 C   0  0  2  0  0  0  0  0  0  0  0  0
    3.6825   -7.1817    1.9452 C   0  0  2  0  0  0  0  0  0  0  0  0
    2.3143   -7.7482    2.5074 C   0  0  0  0  0  0  0  0  0  0  0  0
    1.7430   -7.0954    3.7463 N   0  0  0  0  0  0  0  0  0  0  0  0
    1.0372   -8.0507    4.5902 C   0  0  0  0  0  0  0  0  0  0  0  0
    4.1180   -2.5659   -2.4815 H   0  0  0  0  0  0  0  0  0  0  0  0
    5.8740   -2.4620   -2.3168 H   0  0  0  0  0  0  0  0  0  0  0  0
    4.7977   -1.7288   -1.0380 H   0  0  0  0  0  0  0  0  0  0  0  0
    4.8668   -4.7997   -1.6801 H   0  0  0  0  0  0  0  0  0  0  0  0
    6.0649   -3.3857    2.0198 H   0  0  0  0  0  0  0  0  0  0  0  0
    5.5972   -2.2224    0.9175 H   0  0  0  0  0  0  0  0  0  0  0  0
    4.5842   -1.8250    2.9676 H   0  0  0  0  0  0  0  0  0  0  0  0
    2.4219   -2.1757    0.9357 H   0  0  0  0  0  0  0  0  0  0  0  0
    4.2340   -0.5541    0.3569 H   0  0  0  0  0  0  0  0  0  0  0  0
    3.8725    0.3390    1.8991 H   0  0  0  0  0  0  0  0  0  0  0  0
    2.6246    0.1247    0.6444 H   0  0  0  0  0  0  0  0  0  0  0  0
    1.4204   -0.6928    2.3043 H   0  0  0  0  0  0  0  0  0  0  0  0
    4.3673   -4.0167    5.5388 H   0  0  0  0  0  0  0  0  0  0  0  0
    4.9186   -2.4855    4.9162 H   0  0  0  0  0  0  0  0  0  0  0  0
    5.6530   -3.9905    4.3184 H   0  0  0  0  0  0  0  0  0  0  0  0
   -0.0892   -3.1674    5.1084 H   0  0  0  0  0  0  0  0  0  0  0  0
    1.5744   -2.8140    5.5267 H   0  0  0  0  0  0  0  0  0  0  0  0
    0.8527   -4.3716    5.9563 H   0  0  0  0  0  0  0  0  0  0  0  0
    2.3851   -6.1589    5.5592 H   0  0  0  0  0  0  0  0  0  0  0  0
    4.7721   -6.0736    4.9659 H   0  0  0  0  0  0  0  0  0  0  0  0
    4.2922   -7.6731    4.4204 H   0  0  0  0  0  0  0  0  0  0  0  0
    7.5439   -5.8488    1.7833 H   0  0  0  0  0  0  0  0  0  0  0  0
    8.2637   -6.9552    3.7574 H   0  0  0  0  0  0  0  0  0  0  0  0
    6.6914   -6.9842    4.4949 H   0  0  0  0  0  0  0  0  0  0  0  0
    7.6360   -5.4768    4.4422 H   0  0  0  0  0  0  0  0  0  0  0  0
    5.8766   -6.1370    0.0658 H   0  0  0  0  0  0  0  0  0  0  0  0
    2.7631   -5.1245   -0.5169 H   0  0  0  0  0  0  0  0  0  0  0  0
    1.8052   -6.4189    0.0904 H   0  0  0  0  0  0  0  0  0  0  0  0
    1.8281   -3.9565    1.2843 H   0  0  0  0  0  0  0  0  0  0  0  0
    1.3238   -5.4543    1.9443 H   0  0  0  0  0  0  0  0  0  0  0  0
    4.3866   -8.0098    1.9912 H   0  0  0  0  0  0  0  0  0  0  0  0
    1.5791   -7.8121    1.7036 H   0  0  0  0  0  0  0  0  0  0  0  0
    2.5035   -8.7843    2.7549 H   0  0  0  0  0  0  0  0  0  0  0  0
    0.3134   -8.6187    4.0059 H   0  0  0  0  0  0  0  0  0  0  0  0
    0.4862   -7.5462    5.3881 H   0  0  0  0  0  0  0  0  0  0  0  0
    1.7321   -8.7606    5.0458 H   0  0  0  0  0  0  0  0  0  0  0  0
  1  2  1  0
  1 29  1  0
  1 30  1  0
  1 31  1  0
  2  3  2  3
  2 32  1  0
  3 20  1  0
  3  4  1  0
  4  5  1  0
  4 33  1  0
  4 34  1  0
  5  6  1  0
  5  9  1  0
  5 35  1  1
  6  7  1  0
  6  8  1  0
  6 36  1  6
  7 37  1  0
  7 38  1  0
  7 39  1  0
  8 40  1  0
  9 24  1  0
  9 10  1  1
  9 11  1  0
 10 41  1  0
 10 42  1  0
 10 43  1  0
 11 24  1  0
 11 12  1  6
 11 14  1  0
 12 13  1  0
 13 44  1  0
 13 45  1  0
 13 46  1  0
 14 27  1  0
 14 15  1  0
 14 47  1  1
 16 15  1  1
 15 48  1  0
 15 49  1  0
 16 24  1  0
 16 25  1  0
 16 17  1  0
 17 18  2  3
 17 20  1  0
 18 19  1  0
 18 50  1  0
 19 51  1  0
 19 52  1  0
 19 53  1  0
 20 21  1  0
 20 54  1  6
 21 22  1  0
 21 25  1  0
 22 23  1  0
 22 55  1  0
 22 56  1  0
 24 23  1  6
 23 57  1  0
 23 58  1  0
 25 26  1  0
 25 59  1  6
 26 27  1  0
 26 60  1  0
 26 61  1  0
 27 28  1  0
 28 62  1  0
 28 63  1  0
 28 64  1  0
M  END
>  <i_m_ct_stereo_status>  (133) 
1

>  <s_m_source_file>  (133) 
/var/tmp/pbs.5076255.sched01/tmpuxvxg9lz/41q4u19exn.sdf

>  <i_m_source_file_index>  (133) 
12

>  <i_lp_mmshare_version>  (133) 
48012

>  <i_f3d_flags>  (133) 
0

>  <s_epik_input>  (133) 
W0NIM11bQ0BIXShbT0hdKVtDQEBIXTFbQ0gyXVxDKD1bQ0hdXFtDSDNdKVtDQEBIXShDXDI9W0NIXVxbQ0gzXSlOKFtDSDJdW0NIMl0zKVtDQEBIXTRbQ0gyXU4oW0NIM10pW0NAQEhdKFtDSDJdNSlbQ0BdNihbQ0BAXTEoW0NIM10pW0NAXTM2W0NAXTI0NSlPW0NIM10=

>  <s_epik_cmdline>  (133) 
J2VwaWtfcHl0aG9uJywgJy1waHQnLCAnMi4wJywgJy1waCcsICc3LjAnLCAnLXRuJywgJzgnLCAnLW1hJywgJzIwMCcsICctaW1hZScsICc8aW5maWxlLm1hZT4nLCAnLW9tYWUnLCAnPG91dGZpbGUubWFlPic=

>  <r_epik_Ionization_Penalty>  (133) 
3.78117

>  <r_epik_Ionization_Penalty_Charging>  (133) 
0

>  <r_epik_Ionization_Penalty_Neutral>  (133) 
3.78117

>  <r_epik_State_Penalty>  (133) 
2.41214

>  <r_epik_Charging_Adjusted_Penalty>  (133) 
2.41214

>  <i_epik_Tot_Q>  (133) 
0

>  <i_epik_Tot_abs_Q>  (133) 
0

>  <s_lp_Force_Field>  (133) 
OPLS3e

>  <r_lp_Energy>  (133) 
141.072

>  <b_lp_Chiralities_Consistent>  (133) 
1

>  <s_lp_Variant>  (133) 
30:0-10

>  <s_i_glide_gridfile>  (133) 
pfpi4k_grid

>  <i_i_glide_lignum>  (133) 
12

>  <i_i_glide_rotatable_bonds>  (133) 
3

>  <r_i_docking_score>  (133) 
-1.84598

>  <r_i_glide_ligand_efficiency>  (133) 
-0.0659278

>  <r_i_glide_ligand_efficiency_sa>  (133) 
-0.200196

>  <r_i_glide_ligand_efficiency_ln>  (133) 
-0.426106

>  <r_i_glide_gscore>  (133) 
-1.84598

>  <r_i_glide_lipo>  (133) 
-0.299788

>  <r_i_glide_hbond>  (133) 
0

>  <r_i_glide_metal>  (133) 
-0

>  <r_i_glide_rewards>  (133) 
-0.787126

>  <r_i_glide_evdw>  (133) 
-17.7109

>  <r_i_glide_ecoul>  (133) 
-0.033354

>  <r_i_glide_erotb>  (133) 
0.131482

>  <r_i_glide_esite>  (133) 
0

>  <r_i_glide_emodel>  (133) 
-19.6564

>  <r_i_glide_energy>  (133) 
-17.7442

>  <r_i_glide_einternal>  (133) 
0.343952

>  <r_i_glide_intrahb_reward>  (133) 
-0

>  <i_i_glide_confnum>  (133) 
1

>  <i_i_glide_posenum>  (133) 
8

>  <r_i_glide_eff_state_penalty>  (133) 
0

>  <ligand_id>  (133) 
30

>  <original_smiles>  (133) 
CC=C1CC(C(C)O)C2(C)C3(OC)C4CC56C(=CC)C1N(CCC523)C6CN4C

>  <smiles>  (133) 
[H]OC([H])(C([H])([H])[H])C1([H])C([H])([H])C(=C([H])C([H])([H])[H])C2([H])C(=C([H])C([H])([H])[H])C34C([H])([H])C5([H])N(C([H])([H])[H])C([H])([H])C3([H])N2C([H])([H])C([H])([H])C42C5(OC([H])([H])[H])C12C([H])([H])[H]

$$$$
30:10:0
     RDKit          3D

 64 69  0  0  1  0  0  0  0  0999 V2000
    4.3663   -1.4742   -3.4555 C   0  0  0  0  0  0  0  0  0  0  0  0
    4.5027   -0.8958   -2.0598 C   0  0  0  0  0  0  0  0  0  0  0  0
    4.9136   -1.5468   -0.9410 C   0  0  0  0  0  0  0  0  0  0  0  0
    5.0378   -0.7337    0.3949 C   0  0  0  0  0  0  0  0  0  0  0  0
    4.0998   -0.8661    1.6851 C   0  0  1  0  0  0  0  0  0  0  0  0
    2.7256   -0.0839    1.7434 C   0  0  2  0  0  0  0  0  0  0  0  0
    2.5336    0.7129    3.0479 C   0  0  0  0  0  0  0  0  0  0  0  0
    1.5597   -0.8879    1.6745 O   0  0  0  0  0  0  0  0  0  0  0  0
    4.2262   -2.1951    2.4758 C   0  0  1  0  0  0  0  0  0  0  0  0
    5.4228   -2.0783    3.4092 C   0  0  0  0  0  0  0  0  0  0  0  0
    3.4680   -3.5579    2.6997 C   0  0  2  0  0  0  0  0  0  0  0  0
    2.1057   -3.3480    3.0288 O   0  0  0  0  0  0  0  0  0  0  0  0
    1.9107   -3.2015    4.4248 C   0  0  0  0  0  0  0  0  0  0  0  0
    3.9610   -5.0138    2.7855 C   0  0  2  0  0  0  0  0  0  0  0  0
    5.4205   -4.9946    2.2509 C   0  0  0  0  0  0  0  0  0  0  0  0
    5.1113   -4.1487    1.0054 C   0  0  2  0  0  0  0  0  0  0  0  0
    6.1511   -3.4146    0.2267 C   0  0  0  0  0  0  0  0  0  0  0  0
    7.4691   -3.2745    0.5144 C   0  0  0  0  0  0  0  0  0  0  0  0
    8.4987   -2.5991   -0.3586 C   0  0  0  0  0  0  0  0  0  0  0  0
    5.4406   -3.0203   -1.0395 C   0  0  1  0  0  0  0  0  0  0  0  0
    4.4085   -4.1310   -1.1834 N   0  0  0  0  0  0  0  0  0  0  0  0
    3.0466   -3.6640   -1.0461 C   0  0  0  0  0  0  0  0  0  0  0  0
    2.7946   -3.0685    0.3317 C   0  0  0  0  0  0  0  0  0  0  0  0
    3.9363   -3.2234    1.3863 C   0  0  2  0  0  0  0  0  0  0  0  0
    4.6509   -5.0772   -0.0641 C   0  0  2  0  0  0  0  0  0  0  0  0
    3.5593   -6.0706    0.5047 C   0  0  0  0  0  0  0  0  0  0  0  0
    3.1022   -5.8796    1.9245 N   0  0  0  0  0  0  0  0  0  0  0  0
    2.7212   -7.1329    2.5614 C   0  0  0  0  0  0  0  0  0  0  0  0
    3.3331   -1.3639   -3.7936 H   0  0  0  0  0  0  0  0  0  0  0  0
    4.6277   -2.5299   -3.5151 H   0  0  0  0  0  0  0  0  0  0  0  0
    4.9943   -0.9302   -4.1585 H   0  0  0  0  0  0  0  0  0  0  0  0
    4.2151    0.1451   -1.9821 H   0  0  0  0  0  0  0  0  0  0  0  0
    6.0869   -0.8078    0.7058 H   0  0  0  0  0  0  0  0  0  0  0  0
    4.9479    0.3075    0.1285 H   0  0  0  0  0  0  0  0  0  0  0  0
    4.6579   -0.1687    2.2909 H   0  0  0  0  0  0  0  0  0  0  0  0
    2.7179    0.6116    0.8998 H   0  0  0  0  0  0  0  0  0  0  0  0
    3.2239    1.5536    3.1202 H   0  0  0  0  0  0  0  0  0  0  0  0
    2.6575    0.0715    3.9216 H   0  0  0  0  0  0  0  0  0  0  0  0
    1.5195    1.1192    3.0932 H   0  0  0  0  0  0  0  0  0  0  0  0
    1.3090   -0.9982    0.7390 H   0  0  0  0  0  0  0  0  0  0  0  0
    5.4081   -2.8724    4.1488 H   0  0  0  0  0  0  0  0  0  0  0  0
    5.4608   -1.1324    3.9492 H   0  0  0  0  0  0  0  0  0  0  0  0
    6.3195   -2.1584    2.8166 H   0  0  0  0  0  0  0  0  0  0  0  0
    0.8620   -2.9902    4.6022 H   0  0  0  0  0  0  0  0  0  0  0  0
    2.4753   -2.3750    4.8550 H   0  0  0  0  0  0  0  0  0  0  0  0
    2.1564   -4.1108    4.9750 H   0  0  0  0  0  0  0  0  0  0  0  0
    3.9167   -5.3299    3.8313 H   0  0  0  0  0  0  0  0  0  0  0  0
    6.1107   -4.5145    2.9267 H   0  0  0  0  0  0  0  0  0  0  0  0
    5.8145   -5.9940    2.0314 H   0  0  0  0  0  0  0  0  0  0  0  0
    7.8220   -3.7169    1.4209 H   0  0  0  0  0  0  0  0  0  0  0  0
    8.9736   -1.7881    0.1915 H   0  0  0  0  0  0  0  0  0  0  0  0
    8.0745   -2.2144   -1.2811 H   0  0  0  0  0  0  0  0  0  0  0  0
    9.2814   -3.3071   -0.6297 H   0  0  0  0  0  0  0  0  0  0  0  0
    6.1439   -3.0843   -1.8575 H   0  0  0  0  0  0  0  0  0  0  0  0
    2.8035   -2.9586   -1.8393 H   0  0  0  0  0  0  0  0  0  0  0  0
    2.3440   -4.4870   -1.2295 H   0  0  0  0  0  0  0  0  0  0  0  0
    2.6305   -2.0324    0.1202 H   0  0  0  0  0  0  0  0  0  0  0  0
    1.8574   -3.4903    0.7001 H   0  0  0  0  0  0  0  0  0  0  0  0
    5.5002   -5.6984   -0.3465 H   0  0  0  0  0  0  0  0  0  0  0  0
    2.7067   -6.1590   -0.1759 H   0  0  0  0  0  0  0  0  0  0  0  0
    4.0131   -7.0569    0.4579 H   0  0  0  0  0  0  0  0  0  0  0  0
    2.0082   -7.6819    1.9384 H   0  0  0  0  0  0  0  0  0  0  0  0
    2.2415   -6.9574    3.5256 H   0  0  0  0  0  0  0  0  0  0  0  0
    3.5907   -7.7658    2.7206 H   0  0  0  0  0  0  0  0  0  0  0  0
  1  2  1  0
  1 29  1  0
  1 30  1  0
  1 31  1  0
  2  3  2  3
  2 32  1  0
  3 20  1  0
  3  4  1  0
  4  5  1  0
  4 33  1  0
  4 34  1  0
  5  6  1  0
  5  9  1  0
  5 35  1  1
  6  7  1  0
  6  8  1  0
  6 36  1  6
  7 37  1  0
  7 38  1  0
  7 39  1  0
  8 40  1  0
  9 24  1  0
  9 10  1  1
  9 11  1  0
 10 41  1  0
 10 42  1  0
 10 43  1  0
 11 24  1  0
 11 12  1  6
 11 14  1  0
 12 13  1  0
 13 44  1  0
 13 45  1  0
 13 46  1  0
 14 27  1  0
 14 15  1  0
 14 47  1  1
 16 15  1  1
 15 48  1  0
 15 49  1  0
 16 24  1  0
 16 25  1  0
 16 17  1  0
 17 18  2  3
 17 20  1  0
 18 19  1  0
 18 50  1  0
 19 51  1  0
 19 52  1  0
 19 53  1  0
 20 21  1  0
 20 54  1  6
 21 22  1  0
 21 25  1  0
 22 23  1  0
 22 55  1  0
 22 56  1  0
 24 23  1  6
 23 57  1  0
 23 58  1  0
 25 26  1  0
 25 59  1  6
 26 27  1  0
 26 60  1  0
 26 61  1  0
 27 28  1  0
 28 62  1  0
 28 63  1  0
 28 64  1  0
M  END
>  <i_m_ct_stereo_status>  (134) 
1

>  <s_m_source_file>  (134) 
/var/tmp/pbs.5076255.sched01/tmpuxvxg9lz/41q4u19exn.sdf

>  <i_m_source_file_index>  (134) 
13

>  <i_lp_mmshare_version>  (134) 
48012

>  <i_f3d_flags>  (134) 
0

>  <s_epik_input>  (134) 
W0NIM11bQ0BIXShbT0hdKVtDQEBIXTFbQ0gyXVxDKD1bQ0hdXFtDSDNdKVtDQEBIXShDXDI9W0NIXVxbQ0gzXSlOKFtDSDJdW0NIMl0zKVtDQEBIXTRbQ0gyXU4oW0NIM10pW0NAQEhdKFtDSDJdNSlbQ0BdNihbQ0BAXTEoW0NIM10pW0NAXTM2W0NAXTI0NSlPW0NIM10=

>  <s_epik_cmdline>  (134) 
J2VwaWtfcHl0aG9uJywgJy1waHQnLCAnMi4wJywgJy1waCcsICc3LjAnLCAnLXRuJywgJzgnLCAnLW1hJywgJzIwMCcsICctaW1hZScsICc8aW5maWxlLm1hZT4nLCAnLW9tYWUnLCAnPG91dGZpbGUubWFlPic=

>  <r_epik_Ionization_Penalty>  (134) 
3.78117

>  <r_epik_Ionization_Penalty_Charging>  (134) 
0

>  <r_epik_Ionization_Penalty_Neutral>  (134) 
3.78117

>  <r_epik_State_Penalty>  (134) 
2.41214

>  <r_epik_Charging_Adjusted_Penalty>  (134) 
2.41214

>  <i_epik_Tot_Q>  (134) 
0

>  <i_epik_Tot_abs_Q>  (134) 
0

>  <s_lp_Force_Field>  (134) 
OPLS3e

>  <r_lp_Energy>  (134) 
139.577

>  <b_lp_Chiralities_Consistent>  (134) 
1

>  <s_lp_Variant>  (134) 
30:0-11

>  <s_i_glide_gridfile>  (134) 
pfpi4k_grid

>  <i_i_glide_lignum>  (134) 
13

>  <i_i_glide_rotatable_bonds>  (134) 
3

>  <r_i_docking_score>  (134) 
-2.66936

>  <r_i_glide_ligand_efficiency>  (134) 
-0.0953342

>  <r_i_glide_ligand_efficiency_sa>  (134) 
-0.289491

>  <r_i_glide_ligand_efficiency_ln>  (134) 
-0.616166

>  <r_i_glide_gscore>  (134) 
-2.66936

>  <r_i_glide_lipo>  (134) 
-0.731441

>  <r_i_glide_hbond>  (134) 
0

>  <r_i_glide_metal>  (134) 
-0

>  <r_i_glide_rewards>  (134) 
-0.787126

>  <r_i_glide_evdw>  (134) 
-19.9666

>  <r_i_glide_ecoul>  (134) 
-1.89296

>  <r_i_glide_erotb>  (134) 
0.131482

>  <r_i_glide_esite>  (134) 
0

>  <r_i_glide_emodel>  (134) 
-21.4278

>  <r_i_glide_energy>  (134) 
-21.8595

>  <r_i_glide_einternal>  (134) 
8.66281

>  <r_i_glide_intrahb_reward>  (134) 
-0

>  <i_i_glide_confnum>  (134) 
3

>  <i_i_glide_posenum>  (134) 
18

>  <r_i_glide_eff_state_penalty>  (134) 
0

>  <ligand_id>  (134) 
30

>  <original_smiles>  (134) 
CC=C1CC(C(C)O)C2(C)C3(OC)C4CC56C(=CC)C1N(CCC523)C6CN4C

>  <smiles>  (134) 
[H]OC([H])(C([H])([H])[H])C1([H])C([H])([H])C(=C([H])C([H])([H])[H])C2([H])C(=C([H])C([H])([H])[H])C34C([H])([H])C5([H])N(C([H])([H])[H])C([H])([H])C3([H])N2C([H])([H])C([H])([H])C42C5(OC([H])([H])[H])C12C([H])([H])[H]

$$$$
30:10:1
     RDKit          3D

 64 69  0  0  1  0  0  0  0  0999 V2000
    4.3907   -1.4211   -3.2986 C   0  0  0  0  0  0  0  0  0  0  0  0
    4.4630   -0.8855   -1.8762 C   0  0  0  0  0  0  0  0  0  0  0  0
    4.8250   -1.5293   -0.7547 C   0  0  0  0  0  0  0  0  0  0  0  0
    4.8449   -0.7286    0.6104 C   0  0  0  0  0  0  0  0  0  0  0  0
    3.8945   -0.9835    1.8819 C   0  0  1  0  0  0  0  0  0  0  0  0
    2.4479   -0.3671    1.9123 C   0  0  2  0  0  0  0  0  0  0  0  0
    2.3732    1.1444    2.1143 C   0  0  0  0  0  0  0  0  0  0  0  0
    1.7344   -0.8167    3.0373 O   0  0  0  0  0  0  0  0  0  0  0  0
    4.0713   -2.3521    2.6073 C   0  0  1  0  0  0  0  0  0  0  0  0
    5.2222   -2.2072    3.5889 C   0  0  0  0  0  0  0  0  0  0  0  0
    3.3955   -3.7791    2.7382 C   0  0  2  0  0  0  0  0  0  0  0  0
    2.0039   -3.7060    3.0186 O   0  0  0  0  0  0  0  0  0  0  0  0
    1.7154   -3.6551    4.4129 C   0  0  0  0  0  0  0  0  0  0  0  0
    3.9875   -5.2002    2.8017 C   0  0  2  0  0  0  0  0  0  0  0  0
    5.4532   -5.0470    2.3330 C   0  0  0  0  0  0  0  0  0  0  0  0
    5.1215   -4.1896    1.1017 C   0  0  2  0  0  0  0  0  0  0  0  0
    6.1468   -3.3368    0.4066 C   0  0  0  0  0  0  0  0  0  0  0  0
    7.4284   -3.1438    0.7369 C   0  0  0  0  0  0  0  0  0  0  0  0
    8.4573   -2.3296   -0.0484 C   0  0  0  0  0  0  0  0  0  0  0  0
    5.4461   -2.9607   -0.8774 C   0  0  1  0  0  0  0  0  0  0  0  0
    4.5012   -4.1279   -1.0839 N   0  0  0  0  0  0  0  0  0  0  0  0
    3.1138   -3.7587   -1.0047 C   0  0  0  0  0  0  0  0  0  0  0  0
    2.7631   -3.2758    0.3801 C   0  0  0  0  0  0  0  0  0  0  0  0
    3.8886   -3.3502    1.4631 C   0  0  2  0  0  0  0  0  0  0  0  0
    4.7906   -5.1057   -0.0159 C   0  0  2  0  0  0  0  0  0  0  0  0
    3.7698   -6.1954    0.4656 C   0  0  0  0  0  0  0  0  0  0  0  0
    3.2366   -6.0966    1.8686 N   0  0  0  0  0  0  0  0  0  0  0  0
    2.9282   -7.4037    2.4425 C   0  0  0  0  0  0  0  0  0  0  0  0
    3.3629   -1.3667   -3.6646 H   0  0  0  0  0  0  0  0  0  0  0  0
    4.7294   -2.4491   -3.3818 H   0  0  0  0  0  0  0  0  0  0  0  0
    4.9958   -0.7969   -3.9484 H   0  0  0  0  0  0  0  0  0  0  0  0
    4.1830    0.1458   -1.8222 H   0  0  0  0  0  0  0  0  0  0  0  0
    5.8770   -0.7599    0.9543 H   0  0  0  0  0  0  0  0  0  0  0  0
    4.7058    0.3220    0.3605 H   0  0  0  0  0  0  0  0  0  0  0  0
    4.3530   -0.2802    2.5724 H   0  0  0  0  0  0  0  0  0  0  0  0
    1.8705   -0.5450    1.0189 H   0  0  0  0  0  0  0  0  0  0  0  0
    2.8090    1.6743    1.2779 H   0  0  0  0  0  0  0  0  0  0  0  0
    2.8803    1.4559    3.0267 H   0  0  0  0  0  0  0  0  0  0  0  0
    1.3319    1.4691    2.1880 H   0  0  0  0  0  0  0  0  0  0  0  0
    0.8139   -0.6489    2.9025 H   0  0  0  0  0  0  0  0  0  0  0  0
    5.2228   -3.0221    4.3156 H   0  0  0  0  0  0  0  0  0  0  0  0
    5.1608   -1.2953    4.1814 H   0  0  0  0  0  0  0  0  0  0  0  0
    6.1490   -2.1978    3.0322 H   0  0  0  0  0  0  0  0  0  0  0  0
    0.6417   -3.5245    4.5497 H   0  0  0  0  0  0  0  0  0  0  0  0
    2.2109   -2.8119    4.9019 H   0  0  0  0  0  0  0  0  0  0  0  0
    2.0112   -4.5759    4.9184 H   0  0  0  0  0  0  0  0  0  0  0  0
    3.9242   -5.5589    3.8339 H   0  0  0  0  0  0  0  0  0  0  0  0
    6.0832   -4.5512    3.0629 H   0  0  0  0  0  0  0  0  0  0  0  0
    5.9331   -6.0029    2.1030 H   0  0  0  0  0  0  0  0  0  0  0  0
    7.8006   -3.5799    1.6563 H   0  0  0  0  0  0  0  0  0  0  0  0
    8.8329   -1.5008    0.5595 H   0  0  0  0  0  0  0  0  0  0  0  0
    8.0355   -1.9236   -0.9680 H   0  0  0  0  0  0  0  0  0  0  0  0
    9.3069   -2.9618   -0.3146 H   0  0  0  0  0  0  0  0  0  0  0  0
    6.1946   -2.9420   -1.6731 H   0  0  0  0  0  0  0  0  0  0  0  0
    2.8471   -3.0394   -1.7764 H   0  0  0  0  0  0  0  0  0  0  0  0
    2.4724   -4.6078   -1.2150 H   0  0  0  0  0  0  0  0  0  0  0  0
    2.4232   -2.2792    0.2181 H   0  0  0  0  0  0  0  0  0  0  0  0
    1.9017   -3.8397    0.7082 H   0  0  0  0  0  0  0  0  0  0  0  0
    5.7000   -5.6460   -0.2924 H   0  0  0  0  0  0  0  0  0  0  0  0
    2.9428   -6.2742   -0.2298 H   0  0  0  0  0  0  0  0  0  0  0  0
    4.2887   -7.1485    0.3840 H   0  0  0  0  0  0  0  0  0  0  0  0
    2.2856   -7.9745    1.7673 H   0  0  0  0  0  0  0  0  0  0  0  0
    2.3908   -7.3016    3.3900 H   0  0  0  0  0  0  0  0  0  0  0  0
    3.8327   -7.9862    2.6227 H   0  0  0  0  0  0  0  0  0  0  0  0
  1  2  1  0
  1 29  1  0
  1 30  1  0
  1 31  1  0
  2  3  2  3
  2 32  1  0
  3 20  1  0
  3  4  1  0
  4  5  1  0
  4 33  1  0
  4 34  1  0
  5  6  1  0
  5  9  1  0
  5 35  1  1
  6  7  1  0
  6  8  1  0
  6 36  1  6
  7 37  1  0
  7 38  1  0
  7 39  1  0
  8 40  1  0
  9 24  1  0
  9 10  1  1
  9 11  1  0
 10 41  1  0
 10 42  1  0
 10 43  1  0
 11 24  1  0
 11 12  1  6
 11 14  1  0
 12 13  1  0
 13 44  1  0
 13 45  1  0
 13 46  1  0
 14 27  1  0
 14 15  1  0
 14 47  1  1
 16 15  1  1
 15 48  1  0
 15 49  1  0
 16 24  1  0
 16 25  1  0
 16 17  1  0
 17 18  2  3
 17 20  1  0
 18 19  1  0
 18 50  1  0
 19 51  1  0
 19 52  1  0
 19 53  1  0
 20 21  1  0
 20 54  1  6
 21 22  1  0
 21 25  1  0
 22 23  1  0
 22 55  1  0
 22 56  1  0
 24 23  1  6
 23 57  1  0
 23 58  1  0
 25 26  1  0
 25 59  1  6
 26 27  1  0
 26 60  1  0
 26 61  1  0
 27 28  1  0
 28 62  1  0
 28 63  1  0
 28 64  1  0
M  END
>  <i_m_ct_stereo_status>  (135) 
1

>  <s_m_source_file>  (135) 
/var/tmp/pbs.5076255.sched01/tmpuxvxg9lz/41q4u19exn.sdf

>  <i_m_source_file_index>  (135) 
13

>  <i_lp_mmshare_version>  (135) 
48012

>  <i_f3d_flags>  (135) 
0

>  <s_epik_input>  (135) 
W0NIM11bQ0BIXShbT0hdKVtDQEBIXTFbQ0gyXVxDKD1bQ0hdXFtDSDNdKVtDQEBIXShDXDI9W0NIXVxbQ0gzXSlOKFtDSDJdW0NIMl0zKVtDQEBIXTRbQ0gyXU4oW0NIM10pW0NAQEhdKFtDSDJdNSlbQ0BdNihbQ0BAXTEoW0NIM10pW0NAXTM2W0NAXTI0NSlPW0NIM10=

>  <s_epik_cmdline>  (135) 
J2VwaWtfcHl0aG9uJywgJy1waHQnLCAnMi4wJywgJy1waCcsICc3LjAnLCAnLXRuJywgJzgnLCAnLW1hJywgJzIwMCcsICctaW1hZScsICc8aW5maWxlLm1hZT4nLCAnLW9tYWUnLCAnPG91dGZpbGUubWFlPic=

>  <r_epik_Ionization_Penalty>  (135) 
3.78117

>  <r_epik_Ionization_Penalty_Charging>  (135) 
0

>  <r_epik_Ionization_Penalty_Neutral>  (135) 
3.78117

>  <r_epik_State_Penalty>  (135) 
2.41214

>  <r_epik_Charging_Adjusted_Penalty>  (135) 
2.41214

>  <i_epik_Tot_Q>  (135) 
0

>  <i_epik_Tot_abs_Q>  (135) 
0

>  <s_lp_Force_Field>  (135) 
OPLS3e

>  <r_lp_Energy>  (135) 
139.577

>  <b_lp_Chiralities_Consistent>  (135) 
1

>  <s_lp_Variant>  (135) 
30:0-11

>  <s_i_glide_gridfile>  (135) 
pfpi4k_grid

>  <i_i_glide_lignum>  (135) 
13

>  <i_i_glide_rotatable_bonds>  (135) 
3

>  <r_i_docking_score>  (135) 
-2.19011

>  <r_i_glide_ligand_efficiency>  (135) 
-0.0782182

>  <r_i_glide_ligand_efficiency_sa>  (135) 
-0.237517

>  <r_i_glide_ligand_efficiency_ln>  (135) 
-0.505542

>  <r_i_glide_gscore>  (135) 
-2.19011

>  <r_i_glide_lipo>  (135) 
-0.613533

>  <r_i_glide_hbond>  (135) 
0

>  <r_i_glide_metal>  (135) 
-0

>  <r_i_glide_rewards>  (135) 
-0.787126

>  <r_i_glide_evdw>  (135) 
-20.4982

>  <r_i_glide_ecoul>  (135) 
0.69317

>  <r_i_glide_erotb>  (135) 
0.131482

>  <r_i_glide_esite>  (135) 
0

>  <r_i_glide_emodel>  (135) 
-20.9717

>  <r_i_glide_energy>  (135) 
-19.805

>  <r_i_glide_einternal>  (135) 
3.54731

>  <r_i_glide_intrahb_reward>  (135) 
-0

>  <i_i_glide_confnum>  (135) 
1

>  <i_i_glide_posenum>  (135) 
24

>  <r_i_glide_eff_state_penalty>  (135) 
0

>  <ligand_id>  (135) 
30

>  <original_smiles>  (135) 
CC=C1CC(C(C)O)C2(C)C3(OC)C4CC56C(=CC)C1N(CCC523)C6CN4C

>  <smiles>  (135) 
[H]OC([H])(C([H])([H])[H])C1([H])C([H])([H])C(=C([H])C([H])([H])[H])C2([H])C(=C([H])C([H])([H])[H])C34C([H])([H])C5([H])N(C([H])([H])[H])C([H])([H])C3([H])N2C([H])([H])C([H])([H])C42C5(OC([H])([H])[H])C12C([H])([H])[H]

$$$$
30:10:2
     RDKit          3D

 64 69  0  0  1  0  0  0  0  0999 V2000
    4.5542   -0.3665    1.0789 C   0  0  0  0  0  0  0  0  0  0  0  0
    4.5114   -0.3499    2.5989 C   0  0  0  0  0  0  0  0  0  0  0  0
    3.4135   -0.4211    3.3816 C   0  0  0  0  0  0  0  0  0  0  0  0
    3.6213   -0.5093    4.9356 C   0  0  0  0  0  0  0  0  0  0  0  0
    3.2433    0.6194    6.0133 C   0  0  1  0  0  0  0  0  0  0  0  0
    4.1841    1.8536    6.2554 C   0  0  2  0  0  0  0  0  0  0  0  0
    5.6853    1.5210    6.2590 C   0  0  0  0  0  0  0  0  0  0  0  0
    3.8904    2.4190    7.5199 O   0  0  0  0  0  0  0  0  0  0  0  0
    1.7195    0.9014    6.1670 C   0  0  1  0  0  0  0  0  0  0  0  0
    1.1349   -0.1130    7.1587 C   0  0  0  0  0  0  0  0  0  0  0  0
    0.6421    1.9835    5.7675 C   0  0  2  0  0  0  0  0  0  0  0  0
    1.0778    3.3023    6.0623 O   0  0  0  0  0  0  0  0  0  0  0  0
    0.6854    3.7471    7.3509 C   0  0  0  0  0  0  0  0  0  0  0  0
   -0.8318    1.8294    5.3016 C   0  0  2  0  0  0  0  0  0  0  0  0
   -0.9841    0.3334    4.9327 C   0  0  0  0  0  0  0  0  0  0  0  0
    0.3078    0.2485    4.1059 C   0  0  2  0  0  0  0  0  0  0  0  0
    0.9865   -1.0476    3.7855 C   0  0  0  0  0  0  0  0  0  0  0  0
    0.6628   -2.2876    4.1992 C   0  0  0  0  0  0  0  0  0  0  0  0
    1.3421   -3.5800    3.7791 C   0  0  0  0  0  0  0  0  0  0  0  0
    1.9963   -0.6364    2.7346 C   0  0  1  0  0  0  0  0  0  0  0  0
    1.3234    0.5603    2.0805 N   0  0  0  0  0  0  0  0  0  0  0  0
    2.0308    1.7995    2.2637 C   0  0  0  0  0  0  0  0  0  0  0  0
    2.0979    2.1742    3.7375 C   0  0  0  0  0  0  0  0  0  0  0  0
    1.2997    1.2420    4.7369 C   0  0  2  0  0  0  0  0  0  0  0  0
    0.0012    0.6950    2.7232 C   0  0  2  0  0  0  0  0  0  0  0  0
   -0.8505    2.0199    2.7578 C   0  0  0  0  0  0  0  0  0  0  0  0
   -1.0929    2.6657    4.0912 N   0  0  0  0  0  0  0  0  0  0  0  0
   -2.3529    3.3928    4.1187 C   0  0  0  0  0  0  0  0  0  0  0  0
    5.0334    0.5420    0.7147 H   0  0  0  0  0  0  0  0  0  0  0  0
    3.5672   -0.4224    0.6200 H   0  0  0  0  0  0  0  0  0  0  0  0
    5.1347   -1.2213    0.7308 H   0  0  0  0  0  0  0  0  0  0  0  0
    5.4840   -0.2770    3.0649 H   0  0  0  0  0  0  0  0  0  0  0  0
    3.1432   -1.4367    5.2513 H   0  0  0  0  0  0  0  0  0  0  0  0
    4.6741   -0.7374    5.0917 H   0  0  0  0  0  0  0  0  0  0  0  0
    3.4983    0.0586    6.9133 H   0  0  0  0  0  0  0  0  0  0  0  0
    4.0420    2.6792    5.5692 H   0  0  0  0  0  0  0  0  0  0  0  0
    6.0217    1.1698    5.2836 H   0  0  0  0  0  0  0  0  0  0  0  0
    5.9356    0.7604    7.0006 H   0  0  0  0  0  0  0  0  0  0  0  0
    6.2698    2.4121    6.4921 H   0  0  0  0  0  0  0  0  0  0  0  0
    4.0226    1.7682    8.1917 H   0  0  0  0  0  0  0  0  0  0  0  0
    0.1691    0.2295    7.5289 H   0  0  0  0  0  0  0  0  0  0  0  0
    1.7587   -0.2209    8.0464 H   0  0  0  0  0  0  0  0  0  0  0  0
    1.0257   -1.0917    6.6947 H   0  0  0  0  0  0  0  0  0  0  0  0
    1.0585    4.7589    7.5103 H   0  0  0  0  0  0  0  0  0  0  0  0
    1.0954    3.1171    8.1427 H   0  0  0  0  0  0  0  0  0  0  0  0
   -0.4003    3.7784    7.4498 H   0  0  0  0  0  0  0  0  0  0  0  0
   -1.4987    2.1160    6.1178 H   0  0  0  0  0  0  0  0  0  0  0  0
   -0.9953   -0.3174    5.7963 H   0  0  0  0  0  0  0  0  0  0  0  0
   -1.8949    0.1160    4.3672 H   0  0  0  0  0  0  0  0  0  0  0  0
   -0.1481   -2.4037    4.8993 H   0  0  0  0  0  0  0  0  0  0  0  0
    1.7399   -4.0919    4.6575 H   0  0  0  0  0  0  0  0  0  0  0  0
    2.1653   -3.4096    3.0834 H   0  0  0  0  0  0  0  0  0  0  0  0
    0.6207   -4.2469    3.3042 H   0  0  0  0  0  0  0  0  0  0  0  0
    2.0648   -1.4476    2.0094 H   0  0  0  0  0  0  0  0  0  0  0  0
    3.0245    1.7397    1.8270 H   0  0  0  0  0  0  0  0  0  0  0  0
    1.5436    2.5906    1.6945 H   0  0  0  0  0  0  0  0  0  0  0  0
    3.1561    2.1476    3.9157 H   0  0  0  0  0  0  0  0  0  0  0  0
    1.7932    3.2138    3.8338 H   0  0  0  0  0  0  0  0  0  0  0  0
   -0.6394   -0.0496    2.2611 H   0  0  0  0  0  0  0  0  0  0  0  0
   -0.4563    2.7653    2.0788 H   0  0  0  0  0  0  0  0  0  0  0  0
   -1.8171    1.7583    2.3276 H   0  0  0  0  0  0  0  0  0  0  0  0
   -2.4146    4.0741    3.2654 H   0  0  0  0  0  0  0  0  0  0  0  0
   -2.4336    3.9954    5.0253 H   0  0  0  0  0  0  0  0  0  0  0  0
   -3.2072    2.7161    4.0712 H   0  0  0  0  0  0  0  0  0  0  0  0
  1  2  1  0
  1 29  1  0
  1 30  1  0
  1 31  1  0
  2  3  2  3
  2 32  1  0
  3 20  1  0
  3  4  1  0
  4  5  1  0
  4 33  1  0
  4 34  1  0
  5  6  1  0
  5  9  1  0
  5 35  1  1
  6  7  1  0
  6  8  1  0
  6 36  1  6
  7 37  1  0
  7 38  1  0
  7 39  1  0
  8 40  1  0
  9 24  1  0
  9 10  1  1
  9 11  1  0
 10 41  1  0
 10 42  1  0
 10 43  1  0
 11 24  1  0
 11 12  1  6
 11 14  1  0
 12 13  1  0
 13 44  1  0
 13 45  1  0
 13 46  1  0
 14 27  1  0
 14 15  1  0
 14 47  1  1
 16 15  1  1
 15 48  1  0
 15 49  1  0
 16 24  1  0
 16 25  1  0
 16 17  1  0
 17 18  2  3
 17 20  1  0
 18 19  1  0
 18 50  1  0
 19 51  1  0
 19 52  1  0
 19 53  1  0
 20 21  1  0
 20 54  1  6
 21 22  1  0
 21 25  1  0
 22 23  1  0
 22 55  1  0
 22 56  1  0
 24 23  1  6
 23 57  1  0
 23 58  1  0
 25 26  1  0
 25 59  1  6
 26 27  1  0
 26 60  1  0
 26 61  1  0
 27 28  1  0
 28 62  1  0
 28 63  1  0
 28 64  1  0
M  END
>  <i_m_ct_stereo_status>  (136) 
1

>  <s_m_source_file>  (136) 
/var/tmp/pbs.5076255.sched01/tmpuxvxg9lz/41q4u19exn.sdf

>  <i_m_source_file_index>  (136) 
13

>  <i_lp_mmshare_version>  (136) 
48012

>  <i_f3d_flags>  (136) 
0

>  <s_epik_input>  (136) 
W0NIM11bQ0BIXShbT0hdKVtDQEBIXTFbQ0gyXVxDKD1bQ0hdXFtDSDNdKVtDQEBIXShDXDI9W0NIXVxbQ0gzXSlOKFtDSDJdW0NIMl0zKVtDQEBIXTRbQ0gyXU4oW0NIM10pW0NAQEhdKFtDSDJdNSlbQ0BdNihbQ0BAXTEoW0NIM10pW0NAXTM2W0NAXTI0NSlPW0NIM10=

>  <s_epik_cmdline>  (136) 
J2VwaWtfcHl0aG9uJywgJy1waHQnLCAnMi4wJywgJy1waCcsICc3LjAnLCAnLXRuJywgJzgnLCAnLW1hJywgJzIwMCcsICctaW1hZScsICc8aW5maWxlLm1hZT4nLCAnLW9tYWUnLCAnPG91dGZpbGUubWFlPic=

>  <r_epik_Ionization_Penalty>  (136) 
3.78117

>  <r_epik_Ionization_Penalty_Charging>  (136) 
0

>  <r_epik_Ionization_Penalty_Neutral>  (136) 
3.78117

>  <r_epik_State_Penalty>  (136) 
2.41214

>  <r_epik_Charging_Adjusted_Penalty>  (136) 
2.41214

>  <i_epik_Tot_Q>  (136) 
0

>  <i_epik_Tot_abs_Q>  (136) 
0

>  <s_lp_Force_Field>  (136) 
OPLS3e

>  <r_lp_Energy>  (136) 
139.577

>  <b_lp_Chiralities_Consistent>  (136) 
1

>  <s_lp_Variant>  (136) 
30:0-11

>  <s_i_glide_gridfile>  (136) 
pfpi4k_grid

>  <i_i_glide_lignum>  (136) 
13

>  <i_i_glide_rotatable_bonds>  (136) 
3

>  <r_i_docking_score>  (136) 
-1.83025

>  <r_i_glide_ligand_efficiency>  (136) 
-0.065366

>  <r_i_glide_ligand_efficiency_sa>  (136) 
-0.19849

>  <r_i_glide_ligand_efficiency_ln>  (136) 
-0.422475

>  <r_i_glide_gscore>  (136) 
-1.83025

>  <r_i_glide_lipo>  (136) 
-0.363112

>  <r_i_glide_hbond>  (136) 
0

>  <r_i_glide_metal>  (136) 
-0

>  <r_i_glide_rewards>  (136) 
-0.787126

>  <r_i_glide_evdw>  (136) 
-18.8341

>  <r_i_glide_ecoul>  (136) 
0.868109

>  <r_i_glide_erotb>  (136) 
0.131482

>  <r_i_glide_esite>  (136) 
0

>  <r_i_glide_emodel>  (136) 
-21.1044

>  <r_i_glide_energy>  (136) 
-17.966

>  <r_i_glide_einternal>  (136) 
0.00820528

>  <r_i_glide_intrahb_reward>  (136) 
-0

>  <i_i_glide_confnum>  (136) 
1

>  <i_i_glide_posenum>  (136) 
9

>  <r_i_glide_eff_state_penalty>  (136) 
0

>  <ligand_id>  (136) 
30

>  <original_smiles>  (136) 
CC=C1CC(C(C)O)C2(C)C3(OC)C4CC56C(=CC)C1N(CCC523)C6CN4C

>  <smiles>  (136) 
[H]OC([H])(C([H])([H])[H])C1([H])C([H])([H])C(=C([H])C([H])([H])[H])C2([H])C(=C([H])C([H])([H])[H])C34C([H])([H])C5([H])N(C([H])([H])[H])C([H])([H])C3([H])N2C([H])([H])C([H])([H])C42C5(OC([H])([H])[H])C12C([H])([H])[H]

$$$$
30:11:0
     RDKit          3D

 64 69  0  0  1  0  0  0  0  0999 V2000
    5.3208   -2.3856   -1.6714 C   0  0  0  0  0  0  0  0  0  0  0  0
    5.2876   -3.7544   -1.0100 C   0  0  0  0  0  0  0  0  0  0  0  0
    5.2762   -4.0611    0.3044 C   0  0  0  0  0  0  0  0  0  0  0  0
    5.4302   -2.9661    1.4117 C   0  0  0  0  0  0  0  0  0  0  0  0
    4.2212   -2.4931    2.3118 C   0  0  1  0  0  0  0  0  0  0  0  0
    3.2012   -1.5273    1.6070 C   0  0  2  0  0  0  0  0  0  0  0  0
    1.9909   -1.0999    2.4648 C   0  0  0  0  0  0  0  0  0  0  0  0
    2.8403   -1.9473    0.3100 O   0  0  0  0  0  0  0  0  0  0  0  0
    3.7713   -3.5115    3.4268 C   0  0  1  0  0  0  0  0  0  0  0  0
    4.7725   -3.3927    4.5998 C   0  0  0  0  0  0  0  0  0  0  0  0
    2.6537   -4.5772    3.8278 C   0  0  2  0  0  0  0  0  0  0  0  0
    1.3199   -4.0396    3.7644 O   0  0  0  0  0  0  0  0  0  0  0  0
    0.9017   -3.4698    4.9873 C   0  0  0  0  0  0  0  0  0  0  0  0
    2.7007   -6.0192    4.3740 C   0  0  2  0  0  0  0  0  0  0  0  0
    4.1723   -6.4571    4.2139 C   0  0  0  0  0  0  0  0  0  0  0  0
    4.3196   -5.9721    2.7669 C   0  0  2  0  0  0  0  0  0  0  0  0
    5.6601   -5.7452    2.1445 C   0  0  0  0  0  0  0  0  0  0  0  0
    6.8863   -5.8448    2.7178 C   0  0  0  0  0  0  0  0  0  0  0  0
    8.2169   -5.7181    2.0117 C   0  0  0  0  0  0  0  0  0  0  0  0
    5.3335   -5.5786    0.6793 C   0  0  1  0  0  0  0  0  0  0  0  0
    4.0519   -6.3922    0.5280 N   0  0  0  0  0  0  0  0  0  0  0  0
    2.8857   -5.5889    0.2024 C   0  0  0  0  0  0  0  0  0  0  0  0
    2.3664   -4.8046    1.4217 C   0  0  0  0  0  0  0  0  0  0  0  0
    3.3719   -4.7397    2.6170 C   0  0  2  0  0  0  0  0  0  0  0  0
    3.8336   -7.0442    1.8436 C   0  0  2  0  0  0  0  0  0  0  0  0
    2.4405   -7.5894    2.3455 C   0  0  0  0  0  0  0  0  0  0  0  0
    1.8256   -6.9500    3.5742 N   0  0  0  0  0  0  0  0  0  0  0  0
    1.0444   -7.8710    4.3682 C   0  0  0  0  0  0  0  0  0  0  0  0
    4.5626   -2.3583   -2.4540 H   0  0  0  0  0  0  0  0  0  0  0  0
    6.2931   -2.2196   -2.1319 H   0  0  0  0  0  0  0  0  0  0  0  0
    5.1010   -1.5678   -0.9886 H   0  0  0  0  0  0  0  0  0  0  0  0
    5.2674   -4.5796   -1.7088 H   0  0  0  0  0  0  0  0  0  0  0  0
    6.2604   -3.2447    2.0633 H   0  0  0  0  0  0  0  0  0  0  0  0
    5.8292   -2.0706    0.9492 H   0  0  0  0  0  0  0  0  0  0  0  0
    4.7072   -1.7194    2.8976 H   0  0  0  0  0  0  0  0  0  0  0  0
    3.7374   -0.6061    1.3889 H   0  0  0  0  0  0  0  0  0  0  0  0
    2.3229   -0.6103    3.3779 H   0  0  0  0  0  0  0  0  0  0  0  0
    1.3611   -1.9369    2.7405 H   0  0  0  0  0  0  0  0  0  0  0  0
    1.3272   -0.4121    1.9312 H   0  0  0  0  0  0  0  0  0  0  0  0
    2.0353   -1.4703    0.0265 H   0  0  0  0  0  0  0  0  0  0  0  0
    4.3771   -3.8883    5.4871 H   0  0  0  0  0  0  0  0  0  0  0  0
    4.9581   -2.3587    4.8984 H   0  0  0  0  0  0  0  0  0  0  0  0
    5.7223   -3.8576    4.3422 H   0  0  0  0  0  0  0  0  0  0  0  0
   -0.0761   -3.0099    4.8518 H   0  0  0  0  0  0  0  0  0  0  0  0
    1.5652   -2.6824    5.3413 H   0  0  0  0  0  0  0  0  0  0  0  0
    0.7974   -4.2186    5.7675 H   0  0  0  0  0  0  0  0  0  0  0  0
    2.3818   -5.9981    5.4145 H   0  0  0  0  0  0  0  0  0  0  0  0
    4.8234   -5.9407    4.9170 H   0  0  0  0  0  0  0  0  0  0  0  0
    4.3190   -7.5343    4.3609 H   0  0  0  0  0  0  0  0  0  0  0  0
    6.9361   -6.0785    3.7664 H   0  0  0  0  0  0  0  0  0  0  0  0
    8.8044   -4.9344    2.4725 H   0  0  0  0  0  0  0  0  0  0  0  0
    8.1056   -5.4799    0.9580 H   0  0  0  0  0  0  0  0  0  0  0  0
    8.7885   -6.6388    2.0965 H   0  0  0  0  0  0  0  0  0  0  0  0
    6.1352   -6.0331    0.0996 H   0  0  0  0  0  0  0  0  0  0  0  0
    3.0815   -4.9510   -0.6515 H   0  0  0  0  0  0  0  0  0  0  0  0
    2.0908   -6.2446   -0.1467 H   0  0  0  0  0  0  0  0  0  0  0  0
    1.9002   -3.8430    1.1826 H   0  0  0  0  0  0  0  0  0  0  0  0
    1.4966   -5.3807    1.7448 H   0  0  0  0  0  0  0  0  0  0  0  0
    4.5280   -7.8900    1.9209 H   0  0  0  0  0  0  0  0  0  0  0  0
    1.7187   -7.6117    1.5220 H   0  0  0  0  0  0  0  0  0  0  0  0
    2.5851   -8.6418    2.5759 H   0  0  0  0  0  0  0  0  0  0  0  0
    0.3382   -8.4134    3.7334 H   0  0  0  0  0  0  0  0  0  0  0  0
    0.4636   -7.3469    5.1281 H   0  0  0  0  0  0  0  0  0  0  0  0
    1.6893   -8.6003    4.8572 H   0  0  0  0  0  0  0  0  0  0  0  0
  1  2  1  0
  1 29  1  0
  1 30  1  0
  1 31  1  0
  2  3  2  3
  2 32  1  0
  3 20  1  0
  3  4  1  0
  4  5  1  0
  4 33  1  0
  4 34  1  0
  5  6  1  0
  5  9  1  0
  5 35  1  1
  6  7  1  0
  6  8  1  0
  6 36  1  6
  7 37  1  0
  7 38  1  0
  7 39  1  0
  8 40  1  0
  9 24  1  0
  9 10  1  1
  9 11  1  0
 10 41  1  0
 10 42  1  0
 10 43  1  0
 11 24  1  0
 11 12  1  6
 11 14  1  0
 12 13  1  0
 13 44  1  0
 13 45  1  0
 13 46  1  0
 14 27  1  0
 14 15  1  0
 14 47  1  1
 16 15  1  1
 15 48  1  0
 15 49  1  0
 16 24  1  0
 16 25  1  0
 16 17  1  0
 17 18  2  3
 17 20  1  0
 18 19  1  0
 18 50  1  0
 19 51  1  0
 19 52  1  0
 19 53  1  0
 20 21  1  0
 20 54  1  6
 21 22  1  0
 21 25  1  0
 22 23  1  0
 22 55  1  0
 22 56  1  0
 24 23  1  6
 23 57  1  0
 23 58  1  0
 25 26  1  0
 25 59  1  6
 26 27  1  0
 26 60  1  0
 26 61  1  0
 27 28  1  0
 28 62  1  0
 28 63  1  0
 28 64  1  0
M  END
>  <i_m_ct_stereo_status>  (137) 
1

>  <s_m_source_file>  (137) 
/var/tmp/pbs.5076255.sched01/tmpuxvxg9lz/41q4u19exn.sdf

>  <i_m_source_file_index>  (137) 
14

>  <i_lp_mmshare_version>  (137) 
48012

>  <i_f3d_flags>  (137) 
0

>  <s_epik_input>  (137) 
W0NIM11bQ0BIXShbT0hdKVtDQEBIXTFbQ0gyXVxDKD1bQ0hdXFtDSDNdKVtDQEBIXShDXDI9W0NIXVxbQ0gzXSlOKFtDSDJdW0NIMl0zKVtDQEBIXTRbQ0gyXU4oW0NIM10pW0NAQEhdKFtDSDJdNSlbQ0BdNihbQ0BAXTEoW0NIM10pW0NAXTM2W0NAXTI0NSlPW0NIM10=

>  <s_epik_cmdline>  (137) 
J2VwaWtfcHl0aG9uJywgJy1waHQnLCAnMi4wJywgJy1waCcsICc3LjAnLCAnLXRuJywgJzgnLCAnLW1hJywgJzIwMCcsICctaW1hZScsICc8aW5maWxlLm1hZT4nLCAnLW9tYWUnLCAnPG91dGZpbGUubWFlPic=

>  <r_epik_Ionization_Penalty>  (137) 
3.78117

>  <r_epik_Ionization_Penalty_Charging>  (137) 
0

>  <r_epik_Ionization_Penalty_Neutral>  (137) 
3.78117

>  <r_epik_State_Penalty>  (137) 
2.41214

>  <r_epik_Charging_Adjusted_Penalty>  (137) 
2.41214

>  <i_epik_Tot_Q>  (137) 
0

>  <i_epik_Tot_abs_Q>  (137) 
0

>  <s_lp_Force_Field>  (137) 
OPLS3e

>  <r_lp_Energy>  (137) 
138.258

>  <b_lp_Chiralities_Consistent>  (137) 
1

>  <s_lp_Variant>  (137) 
30:0-12

>  <s_i_glide_gridfile>  (137) 
pfpi4k_grid

>  <i_i_glide_lignum>  (137) 
14

>  <i_i_glide_rotatable_bonds>  (137) 
3

>  <r_i_docking_score>  (137) 
-2.50934

>  <r_i_glide_ligand_efficiency>  (137) 
-0.0896193

>  <r_i_glide_ligand_efficiency_sa>  (137) 
-0.272137

>  <r_i_glide_ligand_efficiency_ln>  (137) 
-0.579229

>  <r_i_glide_gscore>  (137) 
-2.50934

>  <r_i_glide_lipo>  (137) 
-0.378373

>  <r_i_glide_hbond>  (137) 
-0.16

>  <r_i_glide_metal>  (137) 
-0

>  <r_i_glide_rewards>  (137) 
-0.787126

>  <r_i_glide_evdw>  (137) 
-14.874

>  <r_i_glide_ecoul>  (137) 
-3.81081

>  <r_i_glide_erotb>  (137) 
0.131482

>  <r_i_glide_esite>  (137) 
0

>  <r_i_glide_emodel>  (137) 
-20.5173

>  <r_i_glide_energy>  (137) 
-18.6848

>  <r_i_glide_einternal>  (137) 
2.56063

>  <r_i_glide_intrahb_reward>  (137) 
-0

>  <i_i_glide_confnum>  (137) 
3

>  <i_i_glide_posenum>  (137) 
18

>  <r_i_glide_eff_state_penalty>  (137) 
0

>  <ligand_id>  (137) 
30

>  <original_smiles>  (137) 
CC=C1CC(C(C)O)C2(C)C3(OC)C4CC56C(=CC)C1N(CCC523)C6CN4C

>  <smiles>  (137) 
[H]OC([H])(C([H])([H])[H])C1([H])C([H])([H])C(=C([H])C([H])([H])[H])C2([H])C(=C([H])C([H])([H])[H])C34C([H])([H])C5([H])N(C([H])([H])[H])C([H])([H])C3([H])N2C([H])([H])C([H])([H])C42C5(OC([H])([H])[H])C12C([H])([H])[H]

$$$$
30:11:1
     RDKit          3D

 64 69  0  0  1  0  0  0  0  0999 V2000
    4.7301   -1.8052   -1.4945 C   0  0  0  0  0  0  0  0  0  0  0  0
    4.9197   -3.2171   -0.9913 C   0  0  0  0  0  0  0  0  0  0  0  0
    5.0450   -3.6795    0.2773 C   0  0  0  0  0  0  0  0  0  0  0  0
    5.1410   -2.7417    1.5428 C   0  0  0  0  0  0  0  0  0  0  0  0
    3.9706   -2.5702    2.6131 C   0  0  1  0  0  0  0  0  0  0  0  0
    2.7329   -1.7365    2.1462 C   0  0  2  0  0  0  0  0  0  0  0  0
    3.0401   -0.2723    1.7508 C   0  0  0  0  0  0  0  0  0  0  0  0
    1.7717   -1.6471    3.1693 O   0  0  0  0  0  0  0  0  0  0  0  0
    3.7772   -3.8207    3.5713 C   0  0  1  0  0  0  0  0  0  0  0  0
    4.8256   -3.7412    4.6765 C   0  0  0  0  0  0  0  0  0  0  0  0
    2.8312   -5.0774    3.8429 C   0  0  2  0  0  0  0  0  0  0  0  0
    1.4696   -4.7093    3.9396 O   0  0  0  0  0  0  0  0  0  0  0  0
    1.0654   -4.4953    5.2843 C   0  0  0  0  0  0  0  0  0  0  0  0
    3.1446   -6.5858    4.1496 C   0  0  2  0  0  0  0  0  0  0  0  0
    4.6437   -6.7646    3.8397 C   0  0  0  0  0  0  0  0  0  0  0  0
    4.6001   -6.0524    2.4844 C   0  0  2  0  0  0  0  0  0  0  0  0
    5.8320   -5.5288    1.8177 C   0  0  0  0  0  0  0  0  0  0  0  0
    7.1045   -5.5236    2.2868 C   0  0  0  0  0  0  0  0  0  0  0  0
    8.3342   -5.0752    1.5240 C   0  0  0  0  0  0  0  0  0  0  0  0
    5.3482   -5.1946    0.4279 C   0  0  1  0  0  0  0  0  0  0  0  0
    4.2070   -6.1834    0.2268 N   0  0  0  0  0  0  0  0  0  0  0  0
    2.9200   -5.5287    0.1036 C   0  0  0  0  0  0  0  0  0  0  0  0
    2.4194   -4.9848    1.4462 C   0  0  0  0  0  0  0  0  0  0  0  0
    3.5011   -4.9668    2.5889 C   0  0  2  0  0  0  0  0  0  0  0  0
    4.1956   -7.0382    1.4401 C   0  0  2  0  0  0  0  0  0  0  0  0
    2.9399   -7.8640    1.9266 C   0  0  0  0  0  0  0  0  0  0  0  0
    2.3488   -7.5064    3.2691 N   0  0  0  0  0  0  0  0  0  0  0  0
    1.8001   -8.6728    3.9640 C   0  0  0  0  0  0  0  0  0  0  0  0
    3.8823   -1.7681   -2.1978 H   0  0  0  0  0  0  0  0  0  0  0  0
    5.6169   -1.4549   -2.0466 H   0  0  0  0  0  0  0  0  0  0  0  0
    4.5276   -1.0897   -0.6985 H   0  0  0  0  0  0  0  0  0  0  0  0
    4.9552   -3.9733   -1.7642 H   0  0  0  0  0  0  0  0  0  0  0  0
    6.0500   -2.9952    2.0930 H   0  0  0  0  0  0  0  0  0  0  0  0
    5.3902   -1.7540    1.1991 H   0  0  0  0  0  0  0  0  0  0  0  0
    4.4050   -1.8368    3.2946 H   0  0  0  0  0  0  0  0  0  0  0  0
    2.2579   -2.1353    1.2644 H   0  0  0  0  0  0  0  0  0  0  0  0
    3.7768   -0.2097    0.9629 H   0  0  0  0  0  0  0  0  0  0  0  0
    3.3905    0.3464    2.5878 H   0  0  0  0  0  0  0  0  0  0  0  0
    2.1313    0.1793    1.3356 H   0  0  0  0  0  0  0  0  0  0  0  0
    1.0903   -1.0616    2.8684 H   0  0  0  0  0  0  0  0  0  0  0  0
    4.5764   -4.4278    5.4955 H   0  0  0  0  0  0  0  0  0  0  0  0
    4.8807   -2.7484    5.1261 H   0  0  0  0  0  0  0  0  0  0  0  0
    5.8074   -4.0077    4.2776 H   0  0  0  0  0  0  0  0  0  0  0  0
    0.0228   -4.1975    5.2930 H   0  0  0  0  0  0  0  0  0  0  0  0
    1.6392   -3.7048    5.7675 H   0  0  0  0  0  0  0  0  0  0  0  0
    1.1531   -5.4055    5.8760 H   0  0  0  0  0  0  0  0  0  0  0  0
    2.9287   -6.7843    5.2013 H   0  0  0  0  0  0  0  0  0  0  0  0
    5.2816   -6.2768    4.5634 H   0  0  0  0  0  0  0  0  0  0  0  0
    4.9657   -7.8137    3.7842 H   0  0  0  0  0  0  0  0  0  0  0  0
    7.2734   -5.8947    3.2801 H   0  0  0  0  0  0  0  0  0  0  0  0
    8.8448   -4.2918    2.0815 H   0  0  0  0  0  0  0  0  0  0  0  0
    8.0967   -4.7015    0.5295 H   0  0  0  0  0  0  0  0  0  0  0  0
    9.0285   -5.9104    1.4312 H   0  0  0  0  0  0  0  0  0  0  0  0
    6.1631   -5.4336   -0.2581 H   0  0  0  0  0  0  0  0  0  0  0  0
    2.9390   -4.7534   -0.6555 H   0  0  0  0  0  0  0  0  0  0  0  0
    2.1853   -6.2437   -0.2690 H   0  0  0  0  0  0  0  0  0  0  0  0
    1.8839   -4.0563    1.3399 H   0  0  0  0  0  0  0  0  0  0  0  0
    1.6222   -5.6725    1.7400 H   0  0  0  0  0  0  0  0  0  0  0  0
    5.0120   -7.7573    1.3461 H   0  0  0  0  0  0  0  0  0  0  0  0
    2.1670   -7.8852    1.1538 H   0  0  0  0  0  0  0  0  0  0  0  0
    3.2648   -8.8974    1.9841 H   0  0  0  0  0  0  0  0  0  0  0  0
    1.1275   -9.2289    3.3036 H   0  0  0  0  0  0  0  0  0  0  0  0
    1.2217   -8.3777    4.8410 H   0  0  0  0  0  0  0  0  0  0  0  0
    2.5953   -9.3427    4.2815 H   0  0  0  0  0  0  0  0  0  0  0  0
  1  2  1  0
  1 29  1  0
  1 30  1  0
  1 31  1  0
  2  3  2  3
  2 32  1  0
  3 20  1  0
  3  4  1  0
  4  5  1  0
  4 33  1  0
  4 34  1  0
  5  6  1  0
  5  9  1  0
  5 35  1  1
  6  7  1  0
  6  8  1  0
  6 36  1  6
  7 37  1  0
  7 38  1  0
  7 39  1  0
  8 40  1  0
  9 24  1  0
  9 10  1  1
  9 11  1  0
 10 41  1  0
 10 42  1  0
 10 43  1  0
 11 24  1  0
 11 12  1  6
 11 14  1  0
 12 13  1  0
 13 44  1  0
 13 45  1  0
 13 46  1  0
 14 27  1  0
 14 15  1  0
 14 47  1  1
 16 15  1  1
 15 48  1  0
 15 49  1  0
 16 24  1  0
 16 25  1  0
 16 17  1  0
 17 18  2  3
 17 20  1  0
 18 19  1  0
 18 50  1  0
 19 51  1  0
 19 52  1  0
 19 53  1  0
 20 21  1  0
 20 54  1  6
 21 22  1  0
 21 25  1  0
 22 23  1  0
 22 55  1  0
 22 56  1  0
 24 23  1  6
 23 57  1  0
 23 58  1  0
 25 26  1  0
 25 59  1  6
 26 27  1  0
 26 60  1  0
 26 61  1  0
 27 28  1  0
 28 62  1  0
 28 63  1  0
 28 64  1  0
M  END
>  <i_m_ct_stereo_status>  (138) 
1

>  <s_m_source_file>  (138) 
/var/tmp/pbs.5076255.sched01/tmpuxvxg9lz/41q4u19exn.sdf

>  <i_m_source_file_index>  (138) 
14

>  <i_lp_mmshare_version>  (138) 
48012

>  <i_f3d_flags>  (138) 
0

>  <s_epik_input>  (138) 
W0NIM11bQ0BIXShbT0hdKVtDQEBIXTFbQ0gyXVxDKD1bQ0hdXFtDSDNdKVtDQEBIXShDXDI9W0NIXVxbQ0gzXSlOKFtDSDJdW0NIMl0zKVtDQEBIXTRbQ0gyXU4oW0NIM10pW0NAQEhdKFtDSDJdNSlbQ0BdNihbQ0BAXTEoW0NIM10pW0NAXTM2W0NAXTI0NSlPW0NIM10=

>  <s_epik_cmdline>  (138) 
J2VwaWtfcHl0aG9uJywgJy1waHQnLCAnMi4wJywgJy1waCcsICc3LjAnLCAnLXRuJywgJzgnLCAnLW1hJywgJzIwMCcsICctaW1hZScsICc8aW5maWxlLm1hZT4nLCAnLW9tYWUnLCAnPG91dGZpbGUubWFlPic=

>  <r_epik_Ionization_Penalty>  (138) 
3.78117

>  <r_epik_Ionization_Penalty_Charging>  (138) 
0

>  <r_epik_Ionization_Penalty_Neutral>  (138) 
3.78117

>  <r_epik_State_Penalty>  (138) 
2.41214

>  <r_epik_Charging_Adjusted_Penalty>  (138) 
2.41214

>  <i_epik_Tot_Q>  (138) 
0

>  <i_epik_Tot_abs_Q>  (138) 
0

>  <s_lp_Force_Field>  (138) 
OPLS3e

>  <r_lp_Energy>  (138) 
138.258

>  <b_lp_Chiralities_Consistent>  (138) 
1

>  <s_lp_Variant>  (138) 
30:0-12

>  <s_i_glide_gridfile>  (138) 
pfpi4k_grid

>  <i_i_glide_lignum>  (138) 
14

>  <i_i_glide_rotatable_bonds>  (138) 
3

>  <r_i_docking_score>  (138) 
-2.01371

>  <r_i_glide_ligand_efficiency>  (138) 
-0.0719183

>  <r_i_glide_ligand_efficiency_sa>  (138) 
-0.218386

>  <r_i_glide_ligand_efficiency_ln>  (138) 
-0.464824

>  <r_i_glide_gscore>  (138) 
-2.01371

>  <r_i_glide_lipo>  (138) 
-0.448694

>  <r_i_glide_hbond>  (138) 
0

>  <r_i_glide_metal>  (138) 
-0

>  <r_i_glide_rewards>  (138) 
-0.787126

>  <r_i_glide_evdw>  (138) 
-18.4813

>  <r_i_glide_ecoul>  (138) 
0.0979541

>  <r_i_glide_erotb>  (138) 
0.131482

>  <r_i_glide_esite>  (138) 
0

>  <r_i_glide_emodel>  (138) 
-20.459

>  <r_i_glide_energy>  (138) 
-18.3834

>  <r_i_glide_einternal>  (138) 
0.340707

>  <r_i_glide_intrahb_reward>  (138) 
-0

>  <i_i_glide_confnum>  (138) 
4

>  <i_i_glide_posenum>  (138) 
13

>  <r_i_glide_eff_state_penalty>  (138) 
0

>  <ligand_id>  (138) 
30

>  <original_smiles>  (138) 
CC=C1CC(C(C)O)C2(C)C3(OC)C4CC56C(=CC)C1N(CCC523)C6CN4C

>  <smiles>  (138) 
[H]OC([H])(C([H])([H])[H])C1([H])C([H])([H])C(=C([H])C([H])([H])[H])C2([H])C(=C([H])C([H])([H])[H])C34C([H])([H])C5([H])N(C([H])([H])[H])C([H])([H])C3([H])N2C([H])([H])C([H])([H])C42C5(OC([H])([H])[H])C12C([H])([H])[H]

$$$$
30:11:2
     RDKit          3D

 64 69  0  0  1  0  0  0  0  0999 V2000
    5.5237   -2.1766   -1.3798 C   0  0  0  0  0  0  0  0  0  0  0  0
    5.4435   -3.5856   -0.8159 C   0  0  0  0  0  0  0  0  0  0  0  0
    5.3596   -3.9976    0.4640 C   0  0  0  0  0  0  0  0  0  0  0  0
    5.4578   -3.0173    1.6944 C   0  0  0  0  0  0  0  0  0  0  0  0
    4.2228   -2.6179    2.6125 C   0  0  1  0  0  0  0  0  0  0  0  0
    3.1888   -1.6354    1.9689 C   0  0  2  0  0  0  0  0  0  0  0  0
    3.7674   -0.2591    1.5702 C   0  0  0  0  0  0  0  0  0  0  0  0
    2.1705   -1.3692    2.9168 O   0  0  0  0  0  0  0  0  0  0  0  0
    3.7378   -3.7725    3.5869 C   0  0  1  0  0  0  0  0  0  0  0  0
    4.6626   -3.7917    4.8108 C   0  0  0  0  0  0  0  0  0  0  0  0
    2.5827   -4.8548    3.7999 C   0  0  2  0  0  0  0  0  0  0  0  0
    1.2867   -4.2806    3.7246 O   0  0  0  0  0  0  0  0  0  0  0  0
    0.8046   -3.8851    4.9920 C   0  0  0  0  0  0  0  0  0  0  0  0
    2.6153   -6.3665    4.1923 C   0  0  2  0  0  0  0  0  0  0  0  0
    4.0948   -6.7917    4.0679 C   0  0  0  0  0  0  0  0  0  0  0  0
    4.3128   -6.1532    2.6951 C   0  0  2  0  0  0  0  0  0  0  0  0
    5.6770   -5.8628    2.1573 C   0  0  0  0  0  0  0  0  0  0  0  0
    6.8738   -6.0190    2.7708 C   0  0  0  0  0  0  0  0  0  0  0  0
    8.2350   -5.8003    2.1417 C   0  0  0  0  0  0  0  0  0  0  0  0
    5.4079   -5.5370    0.7120 C   0  0  1  0  0  0  0  0  0  0  0  0
    4.1583   -6.3459    0.4102 N   0  0  0  0  0  0  0  0  0  0  0  0
    3.0045   -5.5095    0.1136 C   0  0  0  0  0  0  0  0  0  0  0  0
    2.4573   -4.8234    1.3698 C   0  0  0  0  0  0  0  0  0  0  0  0
    3.3907   -4.9089    2.6251 C   0  0  2  0  0  0  0  0  0  0  0  0
    3.8779   -7.1245    1.6468 C   0  0  2  0  0  0  0  0  0  0  0  0
    2.4603   -7.7251    2.0127 C   0  0  0  0  0  0  0  0  0  0  0  0
    1.7854   -7.2086    3.2623 N   0  0  0  0  0  0  0  0  0  0  0  0
    0.9960   -8.2365    3.9258 C   0  0  0  0  0  0  0  0  0  0  0  0
    4.7924   -2.0721   -2.1874 H   0  0  0  0  0  0  0  0  0  0  0  0
    6.5088   -2.0116   -1.8320 H   0  0  0  0  0  0  0  0  0  0  0  0
    5.3293   -1.4166   -0.6365 H   0  0  0  0  0  0  0  0  0  0  0  0
    5.4488   -4.3793   -1.5656 H   0  0  0  0  0  0  0  0  0  0  0  0
    6.2399   -3.3831    2.3628 H   0  0  0  0  0  0  0  0  0  0  0  0
    5.9020   -2.0981    1.3486 H   0  0  0  0  0  0  0  0  0  0  0  0
    4.6943   -1.9223    3.3106 H   0  0  0  0  0  0  0  0  0  0  0  0
    2.7584   -2.0228    1.0553 H   0  0  0  0  0  0  0  0  0  0  0  0
    4.5926   -0.3394    0.8763 H   0  0  0  0  0  0  0  0  0  0  0  0
    4.0921    0.3408    2.4348 H   0  0  0  0  0  0  0  0  0  0  0  0
    2.9842    0.3080    1.0567 H   0  0  0  0  0  0  0  0  0  0  0  0
    2.5111   -0.7616    3.5529 H   0  0  0  0  0  0  0  0  0  0  0  0
    4.2202   -4.3806    5.6127 H   0  0  0  0  0  0  0  0  0  0  0  0
    4.8133   -2.7914    5.2238 H   0  0  0  0  0  0  0  0  0  0  0  0
    5.6285   -4.2124    4.5409 H   0  0  0  0  0  0  0  0  0  0  0  0
   -0.1785   -3.4343    4.8648 H   0  0  0  0  0  0  0  0  0  0  0  0
    1.4455   -3.1407    5.4676 H   0  0  0  0  0  0  0  0  0  0  0  0
    0.6936   -4.7350    5.6646 H   0  0  0  0  0  0  0  0  0  0  0  0
    2.2576   -6.4770    5.2193 H   0  0  0  0  0  0  0  0  0  0  0  0
    4.7185   -6.3653    4.8449 H   0  0  0  0  0  0  0  0  0  0  0  0
    4.2542   -7.8768    4.0911 H   0  0  0  0  0  0  0  0  0  0  0  0
    6.8734   -6.3553    3.7931 H   0  0  0  0  0  0  0  0  0  0  0  0
    8.7944   -5.0666    2.7209 H   0  0  0  0  0  0  0  0  0  0  0  0
    8.1696   -5.4535    1.1105 H   0  0  0  0  0  0  0  0  0  0  0  0
    8.8035   -6.7305    2.1597 H   0  0  0  0  0  0  0  0  0  0  0  0
    6.2434   -5.9262    0.1307 H   0  0  0  0  0  0  0  0  0  0  0  0
    3.2293   -4.7939   -0.6701 H   0  0  0  0  0  0  0  0  0  0  0  0
    2.2170   -6.1288   -0.3166 H   0  0  0  0  0  0  0  0  0  0  0  0
    2.1039   -3.8284    1.1626 H   0  0  0  0  0  0  0  0  0  0  0  0
    1.5351   -5.3632    1.5900 H   0  0  0  0  0  0  0  0  0  0  0  0
    4.5776   -7.9636    1.6743 H   0  0  0  0  0  0  0  0  0  0  0  0
    1.7893   -7.6740    1.1523 H   0  0  0  0  0  0  0  0  0  0  0  0
    2.6166   -8.7905    2.1487 H   0  0  0  0  0  0  0  0  0  0  0  0
    0.3212   -8.7277    3.2188 H   0  0  0  0  0  0  0  0  0  0  0  0
    0.3765   -7.8162    4.7234 H   0  0  0  0  0  0  0  0  0  0  0  0
    1.6403   -9.0017    4.3632 H   0  0  0  0  0  0  0  0  0  0  0  0
  1  2  1  0
  1 29  1  0
  1 30  1  0
  1 31  1  0
  2  3  2  3
  2 32  1  0
  3 20  1  0
  3  4  1  0
  4  5  1  0
  4 33  1  0
  4 34  1  0
  5  6  1  0
  5  9  1  0
  5 35  1  1
  6  7  1  0
  6  8  1  0
  6 36  1  6
  7 37  1  0
  7 38  1  0
  7 39  1  0
  8 40  1  0
  9 24  1  0
  9 10  1  1
  9 11  1  0
 10 41  1  0
 10 42  1  0
 10 43  1  0
 11 24  1  0
 11 12  1  6
 11 14  1  0
 12 13  1  0
 13 44  1  0
 13 45  1  0
 13 46  1  0
 14 27  1  0
 14 15  1  0
 14 47  1  1
 16 15  1  1
 15 48  1  0
 15 49  1  0
 16 24  1  0
 16 25  1  0
 16 17  1  0
 17 18  2  3
 17 20  1  0
 18 19  1  0
 18 50  1  0
 19 51  1  0
 19 52  1  0
 19 53  1  0
 20 21  1  0
 20 54  1  6
 21 22  1  0
 21 25  1  0
 22 23  1  0
 22 55  1  0
 22 56  1  0
 24 23  1  6
 23 57  1  0
 23 58  1  0
 25 26  1  0
 25 59  1  6
 26 27  1  0
 26 60  1  0
 26 61  1  0
 27 28  1  0
 28 62  1  0
 28 63  1  0
 28 64  1  0
M  END
>  <i_m_ct_stereo_status>  (139) 
1

>  <s_m_source_file>  (139) 
/var/tmp/pbs.5076255.sched01/tmpuxvxg9lz/41q4u19exn.sdf

>  <i_m_source_file_index>  (139) 
14

>  <i_lp_mmshare_version>  (139) 
48012

>  <i_f3d_flags>  (139) 
0

>  <s_epik_input>  (139) 
W0NIM11bQ0BIXShbT0hdKVtDQEBIXTFbQ0gyXVxDKD1bQ0hdXFtDSDNdKVtDQEBIXShDXDI9W0NIXVxbQ0gzXSlOKFtDSDJdW0NIMl0zKVtDQEBIXTRbQ0gyXU4oW0NIM10pW0NAQEhdKFtDSDJdNSlbQ0BdNihbQ0BAXTEoW0NIM10pW0NAXTM2W0NAXTI0NSlPW0NIM10=

>  <s_epik_cmdline>  (139) 
J2VwaWtfcHl0aG9uJywgJy1waHQnLCAnMi4wJywgJy1waCcsICc3LjAnLCAnLXRuJywgJzgnLCAnLW1hJywgJzIwMCcsICctaW1hZScsICc8aW5maWxlLm1hZT4nLCAnLW9tYWUnLCAnPG91dGZpbGUubWFlPic=

>  <r_epik_Ionization_Penalty>  (139) 
3.78117

>  <r_epik_Ionization_Penalty_Charging>  (139) 
0

>  <r_epik_Ionization_Penalty_Neutral>  (139) 
3.78117

>  <r_epik_State_Penalty>  (139) 
2.41214

>  <r_epik_Charging_Adjusted_Penalty>  (139) 
2.41214

>  <i_epik_Tot_Q>  (139) 
0

>  <i_epik_Tot_abs_Q>  (139) 
0

>  <s_lp_Force_Field>  (139) 
OPLS3e

>  <r_lp_Energy>  (139) 
138.258

>  <b_lp_Chiralities_Consistent>  (139) 
1

>  <s_lp_Variant>  (139) 
30:0-12

>  <s_i_glide_gridfile>  (139) 
pfpi4k_grid

>  <i_i_glide_lignum>  (139) 
14

>  <i_i_glide_rotatable_bonds>  (139) 
3

>  <r_i_docking_score>  (139) 
-1.79047

>  <r_i_glide_ligand_efficiency>  (139) 
-0.0639454

>  <r_i_glide_ligand_efficiency_sa>  (139) 
-0.194176

>  <r_i_glide_ligand_efficiency_ln>  (139) 
-0.413293

>  <r_i_glide_gscore>  (139) 
-1.79047

>  <r_i_glide_lipo>  (139) 
-0.414377

>  <r_i_glide_hbond>  (139) 
0

>  <r_i_glide_metal>  (139) 
-0

>  <r_i_glide_rewards>  (139) 
-0.787126

>  <r_i_glide_evdw>  (139) 
-18.8585

>  <r_i_glide_ecoul>  (139) 
1.48316

>  <r_i_glide_erotb>  (139) 
0.131482

>  <r_i_glide_esite>  (139) 
0

>  <r_i_glide_emodel>  (139) 
-19.2554

>  <r_i_glide_energy>  (139) 
-17.3753

>  <r_i_glide_einternal>  (139) 
0.041798

>  <r_i_glide_intrahb_reward>  (139) 
-0

>  <i_i_glide_confnum>  (139) 
4

>  <i_i_glide_posenum>  (139) 
1

>  <r_i_glide_eff_state_penalty>  (139) 
0

>  <ligand_id>  (139) 
30

>  <original_smiles>  (139) 
CC=C1CC(C(C)O)C2(C)C3(OC)C4CC56C(=CC)C1N(CCC523)C6CN4C

>  <smiles>  (139) 
[H]OC([H])(C([H])([H])[H])C1([H])C([H])([H])C(=C([H])C([H])([H])[H])C2([H])C(=C([H])C([H])([H])[H])C34C([H])([H])C5([H])N(C([H])([H])[H])C([H])([H])C3([H])N2C([H])([H])C([H])([H])C42C5(OC([H])([H])[H])C12C([H])([H])[H]

$$$$
31:0:0
     RDKit          3D

 28 30  0  0  1  0  0  0  0  0999 V2000
    0.3409   -1.8704    4.4683 C   0  0  0  0  0  0  0  0  0  0  0  0
    0.3615   -0.6849    3.8260 C   0  0  0  0  0  0  0  0  0  0  0  0
   -0.7565    0.0767    3.7109 O   0  0  0  0  0  0  0  0  0  0  0  0
   -0.4693    1.1999    3.0218 C   0  0  0  0  0  0  0  0  0  0  0  0
   -1.2609    2.0992    2.7489 O   0  0  0  0  0  0  0  0  0  0  0  0
    1.0116    1.2360    2.6230 C   0  0  0  0  0  0  0  0  0  0  0  0
    1.5201   -0.0698    3.1839 C   0  0  0  0  0  0  0  0  0  0  0  0
    2.6963   -0.5672    3.1382 N   0  0  0  0  0  0  0  0  0  0  0  0
    3.7921    0.1441    2.4879 C   0  0  0  0  0  0  0  0  0  0  0  0
    4.3490   -0.6389    1.3407 C   0  0  0  0  0  0  0  0  0  0  0  0
    3.6417   -1.0545    0.2431 C   0  0  0  0  0  0  0  0  0  0  0  0
    4.4392   -1.7749   -0.7102 C   0  0  0  0  0  0  0  0  0  0  0  0
    4.1281   -2.3872   -1.9448 C   0  0  0  0  0  0  0  0  0  0  0  0
    5.1364   -3.0414   -2.6789 C   0  0  0  0  0  0  0  0  0  0  0  0
    6.4463   -3.0576   -2.1598 C   0  0  0  0  0  0  0  0  0  0  0  0
    6.8198   -2.4554   -1.0053 N   0  0  0  0  0  0  0  0  0  0  0  0
    5.8058   -1.8581   -0.3074 C   0  0  0  0  0  0  0  0  0  0  0  0
    6.0366   -1.0679    1.2527 S   0  0  0  0  0  0  0  0  0  0  0  0
    1.2231   -2.4894    4.5664 H   0  0  0  0  0  0  0  0  0  0  0  0
   -0.5808   -2.2361    4.8963 H   0  0  0  0  0  0  0  0  0  0  0  0
    1.1299    1.2744    1.5403 H   0  0  0  0  0  0  0  0  0  0  0  0
    1.5129    2.0849    3.0870 H   0  0  0  0  0  0  0  0  0  0  0  0
    3.5028    1.1270    2.1173 H   0  0  0  0  0  0  0  0  0  0  0  0
    4.5809    0.3402    3.2123 H   0  0  0  0  0  0  0  0  0  0  0  0
    2.6062   -0.8542    0.0934 H   0  0  0  0  0  0  0  0  0  0  0  0
    3.1093   -2.3652   -2.3040 H   0  0  0  0  0  0  0  0  0  0  0  0
    4.8995   -3.5371   -3.6108 H   0  0  0  0  0  0  0  0  0  0  0  0
    7.2329   -3.5528   -2.7117 H   0  0  0  0  0  0  0  0  0  0  0  0
  1  2  2  0
  1 19  1  0
  1 20  1  0
  2  7  1  0
  2  3  1  0
  3  4  1  0
  4  5  2  0
  4  6  1  0
  6  7  1  0
  6 21  1  0
  6 22  1  0
  7  8  2  3
  8  9  1  0
  9 10  1  0
  9 23  1  0
  9 24  1  0
 10 18  1  0
 10 11  2  0
 11 12  1  0
 11 25  1  0
 12 17  2  0
 12 13  1  0
 13 14  2  0
 13 26  1  0
 14 15  1  0
 14 27  1  0
 15 16  2  0
 15 28  1  0
 16 17  1  0
 17 18  1  0
M  END
>  <i_m_ct_stereo_status>  (140) 
1

>  <s_m_source_file>  (140) 
/var/tmp/pbs.5076255.sched01/tmpuxvxg9lz/41q4u19exn.sdf

>  <i_m_source_file_index>  (140) 
15

>  <i_lp_mmshare_version>  (140) 
48012

>  <i_f3d_flags>  (140) 
0

>  <s_epik_input>  (140) 
W0NIMl09QzFPQyg9TylbQ0gyXUNcMT1OL1tDSDJdYyhbY0hdMilzYyhjMjMpbltjSF1bY0hdW2NIXTM=

>  <s_epik_cmdline>  (140) 
J2VwaWtfcHl0aG9uJywgJy1waHQnLCAnMi4wJywgJy1waCcsICc3LjAnLCAnLXRuJywgJzgnLCAnLW1hJywgJzIwMCcsICctaW1hZScsICc8aW5maWxlLm1hZT4nLCAnLW9tYWUnLCAnPG91dGZpbGUubWFlPic=

>  <r_lp_tautomer_probability>  (140) 
1

>  <r_epik_Ionization_Penalty>  (140) 
1.60476e-08

>  <r_epik_Ionization_Penalty_Charging>  (140) 
0

>  <r_epik_Ionization_Penalty_Neutral>  (140) 
1.60476e-08

>  <r_epik_State_Penalty>  (140) 
-0

>  <r_epik_Charging_Adjusted_Penalty>  (140) 
0

>  <i_epik_Tot_Q>  (140) 
0

>  <i_epik_Tot_abs_Q>  (140) 
0

>  <s_epik_Chemistry_Notes>  (140) 
This compound has an imine and may undergo hydrolysis.

>  <s_lp_Force_Field>  (140) 
OPLS3e

>  <r_lp_Energy>  (140) 
16.9438

>  <b_lp_Chiralities_Consistent>  (140) 
1

>  <s_lp_Variant>  (140) 
31:0-1

>  <s_i_glide_gridfile>  (140) 
pfpi4k_grid

>  <i_i_glide_lignum>  (140) 
15

>  <i_i_glide_rotatable_bonds>  (140) 
2

>  <r_i_docking_score>  (140) 
-3.79181

>  <r_i_glide_ligand_efficiency>  (140) 
-0.210656

>  <r_i_glide_ligand_efficiency_sa>  (140) 
-0.552076

>  <r_i_glide_ligand_efficiency_ln>  (140) 
-0.974666

>  <r_i_glide_gscore>  (140) 
-3.79181

>  <r_i_glide_lipo>  (140) 
-0.52771

>  <r_i_glide_hbond>  (140) 
-0.101744

>  <r_i_glide_metal>  (140) 
-0

>  <r_i_glide_rewards>  (140) 
-1.64798

>  <r_i_glide_evdw>  (140) 
-25.8948

>  <r_i_glide_ecoul>  (140) 
-2.86154

>  <r_i_glide_erotb>  (140) 
0.264731

>  <r_i_glide_esite>  (140) 
-0.0551419

>  <r_i_glide_emodel>  (140) 
-36.2774

>  <r_i_glide_energy>  (140) 
-28.7563

>  <r_i_glide_einternal>  (140) 
0.180817

>  <r_i_glide_intrahb_reward>  (140) 
-0

>  <i_i_glide_confnum>  (140) 
1

>  <i_i_glide_posenum>  (140) 
10

>  <r_i_glide_eff_state_penalty>  (140) 
0

>  <ligand_id>  (140) 
31

>  <original_smiles>  (140) 
C=C1OC(=O)CC1=NCc1cc2cccnc2s1

>  <smiles>  (140) 
[H]C([H])=C1OC(=O)C([H])([H])C1=NC([H])([H])c1sc2nc([H])c([H])c([H])c2c1[H]

$$$$
31:0:1
     RDKit          3D

 28 30  0  0  1  0  0  0  0  0999 V2000
    3.9564   -0.6885    0.6233 C   0  0  0  0  0  0  0  0  0  0  0  0
    3.8736   -1.4091   -0.5107 C   0  0  0  0  0  0  0  0  0  0  0  0
    4.2036   -0.8809   -1.7214 O   0  0  0  0  0  0  0  0  0  0  0  0
    4.0117   -1.7970   -2.6863 C   0  0  0  0  0  0  0  0  0  0  0  0
    4.2084   -1.6345   -3.8910 O   0  0  0  0  0  0  0  0  0  0  0  0
    3.5256   -3.1200   -2.0831 C   0  0  0  0  0  0  0  0  0  0  0  0
    3.4383   -2.7986   -0.6115 C   0  0  0  0  0  0  0  0  0  0  0  0
    3.0799   -3.5469    0.3628 N   0  0  0  0  0  0  0  0  0  0  0  0
    2.7201   -4.9359    0.1121 C   0  0  0  0  0  0  0  0  0  0  0  0
    2.0204   -5.5826    1.2789 C   0  0  0  0  0  0  0  0  0  0  0  0
    1.1425   -6.6432    1.1956 C   0  0  0  0  0  0  0  0  0  0  0  0
    0.6345   -7.0477    2.4891 C   0  0  0  0  0  0  0  0  0  0  0  0
   -0.2619   -8.0627    2.8898 C   0  0  0  0  0  0  0  0  0  0  0  0
   -0.5821   -8.2271    4.2510 C   0  0  0  0  0  0  0  0  0  0  0  0
    0.0132   -7.3656    5.1942 C   0  0  0  0  0  0  0  0  0  0  0  0
    0.8661   -6.3682    4.8809 N   0  0  0  0  0  0  0  0  0  0  0  0
    1.1552   -6.2461    3.5483 C   0  0  0  0  0  0  0  0  0  0  0  0
    2.2610   -5.0325    2.9228 S   0  0  0  0  0  0  0  0  0  0  0  0
    3.6960   -1.1038    1.5892 H   0  0  0  0  0  0  0  0  0  0  0  0
    4.2804    0.3423    0.5913 H   0  0  0  0  0  0  0  0  0  0  0  0
    2.5558   -3.4016   -2.4906 H   0  0  0  0  0  0  0  0  0  0  0  0
    4.2493   -3.9107   -2.2723 H   0  0  0  0  0  0  0  0  0  0  0  0
    2.0516   -5.0088   -0.7442 H   0  0  0  0  0  0  0  0  0  0  0  0
    3.6114   -5.5185   -0.1264 H   0  0  0  0  0  0  0  0  0  0  0  0
    0.8650   -7.1510    0.2824 H   0  0  0  0  0  0  0  0  0  0  0  0
   -0.6873   -8.7220    2.1494 H   0  0  0  0  0  0  0  0  0  0  0  0
   -1.2540   -9.0165    4.5636 H   0  0  0  0  0  0  0  0  0  0  0  0
   -0.1962   -7.4912    6.2479 H   0  0  0  0  0  0  0  0  0  0  0  0
  1  2  2  0
  1 19  1  0
  1 20  1  0
  2  7  1  0
  2  3  1  0
  3  4  1  0
  4  5  2  0
  4  6  1  0
  6  7  1  0
  6 21  1  0
  6 22  1  0
  7  8  2  3
  8  9  1  0
  9 10  1  0
  9 23  1  0
  9 24  1  0
 10 18  1  0
 10 11  2  0
 11 12  1  0
 11 25  1  0
 12 17  2  0
 12 13  1  0
 13 14  2  0
 13 26  1  0
 14 15  1  0
 14 27  1  0
 15 16  2  0
 15 28  1  0
 16 17  1  0
 17 18  1  0
M  END
>  <i_m_ct_stereo_status>  (141) 
1

>  <s_m_source_file>  (141) 
/var/tmp/pbs.5076255.sched01/tmpuxvxg9lz/41q4u19exn.sdf

>  <i_m_source_file_index>  (141) 
15

>  <i_lp_mmshare_version>  (141) 
48012

>  <i_f3d_flags>  (141) 
0

>  <s_epik_input>  (141) 
W0NIMl09QzFPQyg9TylbQ0gyXUNcMT1OL1tDSDJdYyhbY0hdMilzYyhjMjMpbltjSF1bY0hdW2NIXTM=

>  <s_epik_cmdline>  (141) 
J2VwaWtfcHl0aG9uJywgJy1waHQnLCAnMi4wJywgJy1waCcsICc3LjAnLCAnLXRuJywgJzgnLCAnLW1hJywgJzIwMCcsICctaW1hZScsICc8aW5maWxlLm1hZT4nLCAnLW9tYWUnLCAnPG91dGZpbGUubWFlPic=

>  <r_lp_tautomer_probability>  (141) 
1

>  <r_epik_Ionization_Penalty>  (141) 
1.60476e-08

>  <r_epik_Ionization_Penalty_Charging>  (141) 
0

>  <r_epik_Ionization_Penalty_Neutral>  (141) 
1.60476e-08

>  <r_epik_State_Penalty>  (141) 
-0

>  <r_epik_Charging_Adjusted_Penalty>  (141) 
0

>  <i_epik_Tot_Q>  (141) 
0

>  <i_epik_Tot_abs_Q>  (141) 
0

>  <s_epik_Chemistry_Notes>  (141) 
This compound has an imine and may undergo hydrolysis.

>  <s_lp_Force_Field>  (141) 
OPLS3e

>  <r_lp_Energy>  (141) 
16.9438

>  <b_lp_Chiralities_Consistent>  (141) 
1

>  <s_lp_Variant>  (141) 
31:0-1

>  <s_i_glide_gridfile>  (141) 
pfpi4k_grid

>  <i_i_glide_lignum>  (141) 
15

>  <i_i_glide_rotatable_bonds>  (141) 
2

>  <r_i_docking_score>  (141) 
-3.4149

>  <r_i_glide_ligand_efficiency>  (141) 
-0.189716

>  <r_i_glide_ligand_efficiency_sa>  (141) 
-0.497198

>  <r_i_glide_ligand_efficiency_ln>  (141) 
-0.877781

>  <r_i_glide_gscore>  (141) 
-3.4149

>  <r_i_glide_lipo>  (141) 
-0.0160368

>  <r_i_glide_hbond>  (141) 
-0.0413916

>  <r_i_glide_metal>  (141) 
-0

>  <r_i_glide_rewards>  (141) 
-1.64798

>  <r_i_glide_evdw>  (141) 
-26.4134

>  <r_i_glide_ecoul>  (141) 
-4.13574

>  <r_i_glide_erotb>  (141) 
0.264731

>  <r_i_glide_esite>  (141) 
-0.0331921

>  <r_i_glide_emodel>  (141) 
-37.0501

>  <r_i_glide_energy>  (141) 
-30.5491

>  <r_i_glide_einternal>  (141) 
0.737993

>  <r_i_glide_intrahb_reward>  (141) 
-0

>  <i_i_glide_confnum>  (141) 
1

>  <i_i_glide_posenum>  (141) 
23

>  <r_i_glide_eff_state_penalty>  (141) 
0

>  <ligand_id>  (141) 
31

>  <original_smiles>  (141) 
C=C1OC(=O)CC1=NCc1cc2cccnc2s1

>  <smiles>  (141) 
[H]C([H])=C1OC(=O)C([H])([H])C1=NC([H])([H])c1sc2nc([H])c([H])c([H])c2c1[H]

$$$$
31:0:2
     RDKit          3D

 28 30  0  0  1  0  0  0  0  0999 V2000
    2.6348   -0.0733    1.7439 C   0  0  0  0  0  0  0  0  0  0  0  0
    3.5174   -0.9072    1.1601 C   0  0  0  0  0  0  0  0  0  0  0  0
    4.2543   -0.5219    0.0856 O   0  0  0  0  0  0  0  0  0  0  0  0
    5.0512   -1.5285   -0.3046 C   0  0  0  0  0  0  0  0  0  0  0  0
    5.8326   -1.5063   -1.2541 O   0  0  0  0  0  0  0  0  0  0  0  0
    4.8787   -2.7445    0.6107 C   0  0  0  0  0  0  0  0  0  0  0  0
    3.8140   -2.2782    1.5687 C   0  0  0  0  0  0  0  0  0  0  0  0
    3.2677   -2.9157    2.5318 N   0  0  0  0  0  0  0  0  0  0  0  0
    3.6942   -4.2735    2.8531 C   0  0  0  0  0  0  0  0  0  0  0  0
    2.5361   -5.2183    2.8791 C   0  0  0  0  0  0  0  0  0  0  0  0
    1.9148   -5.6986    4.0081 C   0  0  0  0  0  0  0  0  0  0  0  0
    0.8287   -6.6031    3.6957 C   0  0  0  0  0  0  0  0  0  0  0  0
   -0.0792   -7.3271    4.4990 C   0  0  0  0  0  0  0  0  0  0  0  0
   -1.0590   -8.1465    3.9061 C   0  0  0  0  0  0  0  0  0  0  0  0
   -1.1197   -8.2182    2.5019 C   0  0  0  0  0  0  0  0  0  0  0  0
   -0.3028   -7.5291    1.6762 N   0  0  0  0  0  0  0  0  0  0  0  0
    0.6593   -6.7756    2.2903 C   0  0  0  0  0  0  0  0  0  0  0  0
    1.8724   -5.8655    1.3998 S   0  0  0  0  0  0  0  0  0  0  0  0
    2.0447   -0.3646    2.6035 H   0  0  0  0  0  0  0  0  0  0  0  0
    2.4839    0.9227    1.3501 H   0  0  0  0  0  0  0  0  0  0  0  0
    4.5416   -3.6149    0.0497 H   0  0  0  0  0  0  0  0  0  0  0  0
    5.8078   -2.9736    1.1303 H   0  0  0  0  0  0  0  0  0  0  0  0
    4.4668   -4.6757    2.1987 H   0  0  0  0  0  0  0  0  0  0  0  0
    4.1370   -4.2660    3.8465 H   0  0  0  0  0  0  0  0  0  0  0  0
    2.2046   -5.4321    5.0145 H   0  0  0  0  0  0  0  0  0  0  0  0
   -0.0056   -7.2549    5.5720 H   0  0  0  0  0  0  0  0  0  0  0  0
   -1.7373   -8.7274    4.5179 H   0  0  0  0  0  0  0  0  0  0  0  0
   -1.8535   -8.8615    2.0321 H   0  0  0  0  0  0  0  0  0  0  0  0
  1  2  2  0
  1 19  1  0
  1 20  1  0
  2  7  1  0
  2  3  1  0
  3  4  1  0
  4  5  2  0
  4  6  1  0
  6  7  1  0
  6 21  1  0
  6 22  1  0
  7  8  2  3
  8  9  1  0
  9 10  1  0
  9 23  1  0
  9 24  1  0
 10 18  1  0
 10 11  2  0
 11 12  1  0
 11 25  1  0
 12 17  2  0
 12 13  1  0
 13 14  2  0
 13 26  1  0
 14 15  1  0
 14 27  1  0
 15 16  2  0
 15 28  1  0
 16 17  1  0
 17 18  1  0
M  END
>  <i_m_ct_stereo_status>  (142) 
1

>  <s_m_source_file>  (142) 
/var/tmp/pbs.5076255.sched01/tmpuxvxg9lz/41q4u19exn.sdf

>  <i_m_source_file_index>  (142) 
15

>  <i_lp_mmshare_version>  (142) 
48012

>  <i_f3d_flags>  (142) 
0

>  <s_epik_input>  (142) 
W0NIMl09QzFPQyg9TylbQ0gyXUNcMT1OL1tDSDJdYyhbY0hdMilzYyhjMjMpbltjSF1bY0hdW2NIXTM=

>  <s_epik_cmdline>  (142) 
J2VwaWtfcHl0aG9uJywgJy1waHQnLCAnMi4wJywgJy1waCcsICc3LjAnLCAnLXRuJywgJzgnLCAnLW1hJywgJzIwMCcsICctaW1hZScsICc8aW5maWxlLm1hZT4nLCAnLW9tYWUnLCAnPG91dGZpbGUubWFlPic=

>  <r_lp_tautomer_probability>  (142) 
1

>  <r_epik_Ionization_Penalty>  (142) 
1.60476e-08

>  <r_epik_Ionization_Penalty_Charging>  (142) 
0

>  <r_epik_Ionization_Penalty_Neutral>  (142) 
1.60476e-08

>  <r_epik_State_Penalty>  (142) 
-0

>  <r_epik_Charging_Adjusted_Penalty>  (142) 
0

>  <i_epik_Tot_Q>  (142) 
0

>  <i_epik_Tot_abs_Q>  (142) 
0

>  <s_epik_Chemistry_Notes>  (142) 
This compound has an imine and may undergo hydrolysis.

>  <s_lp_Force_Field>  (142) 
OPLS3e

>  <r_lp_Energy>  (142) 
16.9438

>  <b_lp_Chiralities_Consistent>  (142) 
1

>  <s_lp_Variant>  (142) 
31:0-1

>  <s_i_glide_gridfile>  (142) 
pfpi4k_grid

>  <i_i_glide_lignum>  (142) 
15

>  <i_i_glide_rotatable_bonds>  (142) 
2

>  <r_i_docking_score>  (142) 
-2.83783

>  <r_i_glide_ligand_efficiency>  (142) 
-0.157657

>  <r_i_glide_ligand_efficiency_sa>  (142) 
-0.413178

>  <r_i_glide_ligand_efficiency_ln>  (142) 
-0.729449

>  <r_i_glide_gscore>  (142) 
-2.83783

>  <r_i_glide_lipo>  (142) 
-0.0212315

>  <r_i_glide_hbond>  (142) 
-0.0715152

>  <r_i_glide_metal>  (142) 
-0

>  <r_i_glide_rewards>  (142) 
-1.64798

>  <r_i_glide_evdw>  (142) 
-23.6338

>  <r_i_glide_ecoul>  (142) 
-1.07043

>  <r_i_glide_erotb>  (142) 
0.264731

>  <r_i_glide_esite>  (142) 
-0.0195796

>  <r_i_glide_emodel>  (142) 
-30.3992

>  <r_i_glide_energy>  (142) 
-24.7042

>  <r_i_glide_einternal>  (142) 
0.0385834

>  <r_i_glide_intrahb_reward>  (142) 
-0

>  <i_i_glide_confnum>  (142) 
1

>  <i_i_glide_posenum>  (142) 
3

>  <r_i_glide_eff_state_penalty>  (142) 
0

>  <ligand_id>  (142) 
31

>  <original_smiles>  (142) 
C=C1OC(=O)CC1=NCc1cc2cccnc2s1

>  <smiles>  (142) 
[H]C([H])=C1OC(=O)C([H])([H])C1=NC([H])([H])c1sc2nc([H])c([H])c([H])c2c1[H]

$$$$
31:1:0
     RDKit          3D

 28 30  0  0  1  0  0  0  0  0999 V2000
    0.5149    1.6841    2.5068 C   0  0  0  0  0  0  0  0  0  0  0  0
    0.4258    0.5701    3.2589 C   0  0  0  0  0  0  0  0  0  0  0  0
   -0.7329    0.3490    3.9352 O   0  0  0  0  0  0  0  0  0  0  0  0
   -0.6799   -0.8018    4.6243 C   0  0  0  0  0  0  0  0  0  0  0  0
   -1.5721   -1.2569    5.3419 O   0  0  0  0  0  0  0  0  0  0  0  0
    0.6539   -1.4996    4.3899 C   0  0  0  0  0  0  0  0  0  0  0  0
    1.3850   -0.5310    3.4889 C   0  0  0  0  0  0  0  0  0  0  0  0
    2.5831   -0.7771    3.1131 N   0  0  0  0  0  0  0  0  0  0  0  0
    3.3931    0.0941    2.2889 C   0  0  0  0  0  0  0  0  0  0  0  0
    4.1559   -0.6856    1.2720 C   0  0  0  0  0  0  0  0  0  0  0  0
    3.6434   -1.1015    0.0741 C   0  0  0  0  0  0  0  0  0  0  0  0
    4.6082   -1.8090   -0.7234 C   0  0  0  0  0  0  0  0  0  0  0  0
    4.5171   -2.4270   -1.9871 C   0  0  0  0  0  0  0  0  0  0  0  0
    5.6511   -3.0587   -2.5288 C   0  0  0  0  0  0  0  0  0  0  0  0
    6.8528   -3.0458   -1.7941 C   0  0  0  0  0  0  0  0  0  0  0  0
    7.0090   -2.4510   -0.5912 N   0  0  0  0  0  0  0  0  0  0  0  0
    5.8824   -1.8700   -0.0852 C   0  0  0  0  0  0  0  0  0  0  0  0
    5.8347   -1.0752    1.4866 S   0  0  0  0  0  0  0  0  0  0  0  0
    1.3426    2.0132    1.9076 H   0  0  0  0  0  0  0  0  0  0  0  0
   -0.3355    2.3538    2.4716 H   0  0  0  0  0  0  0  0  0  0  0  0
    1.1891   -1.6503    5.3308 H   0  0  0  0  0  0  0  0  0  0  0  0
    0.5103   -2.4667    3.9020 H   0  0  0  0  0  0  0  0  0  0  0  0
    2.8245    0.7842    1.6975 H   0  0  0  0  0  0  0  0  0  0  0  0
    4.0603    0.6833    2.9147 H   0  0  0  0  0  0  0  0  0  0  0  0
    2.6437   -0.9198   -0.2600 H   0  0  0  0  0  0  0  0  0  0  0  0
    3.5791   -2.4293   -2.5271 H   0  0  0  0  0  0  0  0  0  0  0  0
    5.6020   -3.5555   -3.4909 H   0  0  0  0  0  0  0  0  0  0  0  0
    7.7369   -3.5173   -2.1935 H   0  0  0  0  0  0  0  0  0  0  0  0
  1  2  2  0
  1 19  1  0
  1 20  1  0
  2  7  1  0
  2  3  1  0
  3  4  1  0
  4  5  2  0
  4  6  1  0
  6  7  1  0
  6 21  1  0
  6 22  1  0
  7  8  2  3
  8  9  1  0
  9 10  1  0
  9 23  1  0
  9 24  1  0
 10 18  1  0
 10 11  2  0
 11 12  1  0
 11 25  1  0
 12 17  2  0
 12 13  1  0
 13 14  2  0
 13 26  1  0
 14 15  1  0
 14 27  1  0
 15 16  2  0
 15 28  1  0
 16 17  1  0
 17 18  1  0
M  END
>  <i_m_ct_stereo_status>  (143) 
1

>  <s_m_source_file>  (143) 
/var/tmp/pbs.5076255.sched01/tmpuxvxg9lz/41q4u19exn.sdf

>  <i_m_source_file_index>  (143) 
16

>  <i_lp_mmshare_version>  (143) 
48012

>  <i_f3d_flags>  (143) 
0

>  <s_epik_input>  (143) 
W0NIMl09QzFPQyg9TylbQ0gyXUNcMT1OL1tDSDJdYyhbY0hdMilzYyhjMjMpbltjSF1bY0hdW2NIXTM=

>  <s_epik_cmdline>  (143) 
J2VwaWtfcHl0aG9uJywgJy1waHQnLCAnMi4wJywgJy1waCcsICc3LjAnLCAnLXRuJywgJzgnLCAnLW1hJywgJzIwMCcsICctaW1hZScsICc8aW5maWxlLm1hZT4nLCAnLW9tYWUnLCAnPG91dGZpbGUubWFlPic=

>  <r_lp_tautomer_probability>  (143) 
1

>  <r_epik_Ionization_Penalty>  (143) 
1.60476e-08

>  <r_epik_Ionization_Penalty_Charging>  (143) 
0

>  <r_epik_Ionization_Penalty_Neutral>  (143) 
1.60476e-08

>  <r_epik_State_Penalty>  (143) 
-0

>  <r_epik_Charging_Adjusted_Penalty>  (143) 
0

>  <i_epik_Tot_Q>  (143) 
0

>  <i_epik_Tot_abs_Q>  (143) 
0

>  <s_epik_Chemistry_Notes>  (143) 
This compound has an imine and may undergo hydrolysis.

>  <s_lp_Force_Field>  (143) 
OPLS3e

>  <r_lp_Energy>  (143) 
21.7255

>  <b_lp_Chiralities_Consistent>  (143) 
1

>  <s_lp_Variant>  (143) 
31:0-2

>  <s_i_glide_gridfile>  (143) 
pfpi4k_grid

>  <i_i_glide_lignum>  (143) 
16

>  <i_i_glide_rotatable_bonds>  (143) 
2

>  <r_i_docking_score>  (143) 
-3.99191

>  <r_i_glide_ligand_efficiency>  (143) 
-0.221773

>  <r_i_glide_ligand_efficiency_sa>  (143) 
-0.581209

>  <r_i_glide_ligand_efficiency_ln>  (143) 
-1.0261

>  <r_i_glide_gscore>  (143) 
-3.99191

>  <r_i_glide_lipo>  (143) 
-0.434919

>  <r_i_glide_hbond>  (143) 
-0.0663314

>  <r_i_glide_metal>  (143) 
-0

>  <r_i_glide_rewards>  (143) 
-1.64798

>  <r_i_glide_evdw>  (143) 
-26.1533

>  <r_i_glide_ecoul>  (143) 
-5.11205

>  <r_i_glide_erotb>  (143) 
0.264731

>  <r_i_glide_esite>  (143) 
-0.0329414

>  <r_i_glide_emodel>  (143) 
-39.7511

>  <r_i_glide_energy>  (143) 
-31.2654

>  <r_i_glide_einternal>  (143) 
0.224971

>  <r_i_glide_intrahb_reward>  (143) 
-0

>  <i_i_glide_confnum>  (143) 
2

>  <i_i_glide_posenum>  (143) 
11

>  <r_i_glide_eff_state_penalty>  (143) 
0

>  <ligand_id>  (143) 
31

>  <original_smiles>  (143) 
C=C1OC(=O)CC1=NCc1cc2cccnc2s1

>  <smiles>  (143) 
[H]C([H])=C1OC(=O)C([H])([H])C1=NC([H])([H])c1sc2nc([H])c([H])c([H])c2c1[H]

$$$$
31:1:1
     RDKit          3D

 28 30  0  0  1  0  0  0  0  0999 V2000
   -0.1915    1.4442    2.1110 C   0  0  0  0  0  0  0  0  0  0  0  0
   -0.0708    0.4953    3.0589 C   0  0  0  0  0  0  0  0  0  0  0  0
   -1.0926    0.3130    3.9408 O   0  0  0  0  0  0  0  0  0  0  0  0
   -0.8212   -0.6984    4.7752 C   0  0  0  0  0  0  0  0  0  0  0  0
   -1.5506   -1.1042    5.6798 O   0  0  0  0  0  0  0  0  0  0  0  0
    0.5355   -1.3201    4.4416 C   0  0  0  0  0  0  0  0  0  0  0  0
    1.0158   -0.4737    3.2972 C   0  0  0  0  0  0  0  0  0  0  0  0
    2.1552   -0.6707    2.7539 N   0  0  0  0  0  0  0  0  0  0  0  0
    2.6830    0.1304    1.6746 C   0  0  0  0  0  0  0  0  0  0  0  0
    3.8480   -0.5575    1.0361 C   0  0  0  0  0  0  0  0  0  0  0  0
    3.8314   -1.1529   -0.2031 C   0  0  0  0  0  0  0  0  0  0  0  0
    5.1039   -1.7374   -0.5449 C   0  0  0  0  0  0  0  0  0  0  0  0
    5.5487   -2.4469   -1.6819 C   0  0  0  0  0  0  0  0  0  0  0  0
    6.8762   -2.9091   -1.7467 C   0  0  0  0  0  0  0  0  0  0  0  0
    7.7393   -2.6556   -0.6631 C   0  0  0  0  0  0  0  0  0  0  0  0
    7.3814   -1.9735    0.4464 N   0  0  0  0  0  0  0  0  0  0  0  0
    6.0811   -1.5458    0.4787 C   0  0  0  0  0  0  0  0  0  0  0  0
    5.3961   -0.6590    1.8338 S   0  0  0  0  0  0  0  0  0  0  0  0
    0.5414    1.6677    1.3547 H   0  0  0  0  0  0  0  0  0  0  0  0
   -1.0883    2.0455    2.0803 H   0  0  0  0  0  0  0  0  0  0  0  0
    1.2215   -1.2541    5.2846 H   0  0  0  0  0  0  0  0  0  0  0  0
    0.4269   -2.3604    4.1372 H   0  0  0  0  0  0  0  0  0  0  0  0
    1.9480    0.2741    0.8889 H   0  0  0  0  0  0  0  0  0  0  0  0
    2.9826    1.1135    2.0445 H   0  0  0  0  0  0  0  0  0  0  0  0
    2.9692   -1.1898   -0.8537 H   0  0  0  0  0  0  0  0  0  0  0  0
    4.8640   -2.6360   -2.4949 H   0  0  0  0  0  0  0  0  0  0  0  0
    7.2230   -3.4548   -2.6123 H   0  0  0  0  0  0  0  0  0  0  0  0
    8.7624   -3.0070   -0.6994 H   0  0  0  0  0  0  0  0  0  0  0  0
  1  2  2  0
  1 19  1  0
  1 20  1  0
  2  7  1  0
  2  3  1  0
  3  4  1  0
  4  5  2  0
  4  6  1  0
  6  7  1  0
  6 21  1  0
  6 22  1  0
  7  8  2  3
  8  9  1  0
  9 10  1  0
  9 23  1  0
  9 24  1  0
 10 18  1  0
 10 11  2  0
 11 12  1  0
 11 25  1  0
 12 17  2  0
 12 13  1  0
 13 14  2  0
 13 26  1  0
 14 15  1  0
 14 27  1  0
 15 16  2  0
 15 28  1  0
 16 17  1  0
 17 18  1  0
M  END
>  <i_m_ct_stereo_status>  (144) 
1

>  <s_m_source_file>  (144) 
/var/tmp/pbs.5076255.sched01/tmpuxvxg9lz/41q4u19exn.sdf

>  <i_m_source_file_index>  (144) 
16

>  <i_lp_mmshare_version>  (144) 
48012

>  <i_f3d_flags>  (144) 
0

>  <s_epik_input>  (144) 
W0NIMl09QzFPQyg9TylbQ0gyXUNcMT1OL1tDSDJdYyhbY0hdMilzYyhjMjMpbltjSF1bY0hdW2NIXTM=

>  <s_epik_cmdline>  (144) 
J2VwaWtfcHl0aG9uJywgJy1waHQnLCAnMi4wJywgJy1waCcsICc3LjAnLCAnLXRuJywgJzgnLCAnLW1hJywgJzIwMCcsICctaW1hZScsICc8aW5maWxlLm1hZT4nLCAnLW9tYWUnLCAnPG91dGZpbGUubWFlPic=

>  <r_lp_tautomer_probability>  (144) 
1

>  <r_epik_Ionization_Penalty>  (144) 
1.60476e-08

>  <r_epik_Ionization_Penalty_Charging>  (144) 
0

>  <r_epik_Ionization_Penalty_Neutral>  (144) 
1.60476e-08

>  <r_epik_State_Penalty>  (144) 
-0

>  <r_epik_Charging_Adjusted_Penalty>  (144) 
0

>  <i_epik_Tot_Q>  (144) 
0

>  <i_epik_Tot_abs_Q>  (144) 
0

>  <s_epik_Chemistry_Notes>  (144) 
This compound has an imine and may undergo hydrolysis.

>  <s_lp_Force_Field>  (144) 
OPLS3e

>  <r_lp_Energy>  (144) 
21.7255

>  <b_lp_Chiralities_Consistent>  (144) 
1

>  <s_lp_Variant>  (144) 
31:0-2

>  <s_i_glide_gridfile>  (144) 
pfpi4k_grid

>  <i_i_glide_lignum>  (144) 
16

>  <i_i_glide_rotatable_bonds>  (144) 
2

>  <r_i_docking_score>  (144) 
-3.72269

>  <r_i_glide_ligand_efficiency>  (144) 
-0.206816

>  <r_i_glide_ligand_efficiency_sa>  (144) 
-0.542012

>  <r_i_glide_ligand_efficiency_ln>  (144) 
-0.956899

>  <r_i_glide_gscore>  (144) 
-3.72269

>  <r_i_glide_lipo>  (144) 
-0.234034

>  <r_i_glide_hbond>  (144) 
-0.00517965

>  <r_i_glide_metal>  (144) 
-0

>  <r_i_glide_rewards>  (144) 
-1.64798

>  <r_i_glide_evdw>  (144) 
-27.3658

>  <r_i_glide_ecoul>  (144) 
-4.59156

>  <r_i_glide_erotb>  (144) 
0.264731

>  <r_i_glide_esite>  (144) 
-0.0432108

>  <r_i_glide_emodel>  (144) 
-39.8795

>  <r_i_glide_energy>  (144) 
-31.9573

>  <r_i_glide_einternal>  (144) 
0.095238

>  <r_i_glide_intrahb_reward>  (144) 
-0

>  <i_i_glide_confnum>  (144) 
2

>  <i_i_glide_posenum>  (144) 
31

>  <r_i_glide_eff_state_penalty>  (144) 
0

>  <ligand_id>  (144) 
31

>  <original_smiles>  (144) 
C=C1OC(=O)CC1=NCc1cc2cccnc2s1

>  <smiles>  (144) 
[H]C([H])=C1OC(=O)C([H])([H])C1=NC([H])([H])c1sc2nc([H])c([H])c([H])c2c1[H]

$$$$
31:1:2
     RDKit          3D

 28 30  0  0  1  0  0  0  0  0999 V2000
    0.1199    1.3591    2.3427 C   0  0  0  0  0  0  0  0  0  0  0  0
    0.1907    0.3004    3.1723 C   0  0  0  0  0  0  0  0  0  0  0  0
   -0.8049    0.0998    4.0802 O   0  0  0  0  0  0  0  0  0  0  0  0
   -0.5833   -1.0227    4.7828 C   0  0  0  0  0  0  0  0  0  0  0  0
   -1.3027   -1.4687    5.6772 O   0  0  0  0  0  0  0  0  0  0  0  0
    0.6976   -1.7080    4.3089 C   0  0  0  0  0  0  0  0  0  0  0  0
    1.1997   -0.7745    3.2451 C   0  0  0  0  0  0  0  0  0  0  0  0
    2.2937   -0.9962    2.6231 N   0  0  0  0  0  0  0  0  0  0  0  0
    2.8326   -0.1153    1.6071 C   0  0  0  0  0  0  0  0  0  0  0  0
    4.0211   -0.7392    0.9458 C   0  0  0  0  0  0  0  0  0  0  0  0
    5.3301   -0.6297    1.3520 C   0  0  0  0  0  0  0  0  0  0  0  0
    6.2202   -1.3611    0.4765 C   0  0  0  0  0  0  0  0  0  0  0  0
    7.6192   -1.5422    0.4792 C   0  0  0  0  0  0  0  0  0  0  0  0
    8.2386   -2.3270   -0.5100 C   0  0  0  0  0  0  0  0  0  0  0  0
    7.4468   -2.9206   -1.5076 C   0  0  0  0  0  0  0  0  0  0  0  0
    6.1061   -2.7693   -1.5882 N   0  0  0  0  0  0  0  0  0  0  0  0
    5.5375   -2.0098   -0.5957 C   0  0  0  0  0  0  0  0  0  0  0  0
    3.8168   -1.6989   -0.4969 S   0  0  0  0  0  0  0  0  0  0  0  0
    0.8413    1.6015    1.5784 H   0  0  0  0  0  0  0  0  0  0  0  0
   -0.7200    2.0366    2.4217 H   0  0  0  0  0  0  0  0  0  0  0  0
    1.4200   -1.7989    5.1170 H   0  0  0  0  0  0  0  0  0  0  0  0
    0.4831   -2.6918    3.8962 H   0  0  0  0  0  0  0  0  0  0  0  0
    2.0965    0.1055    0.8368 H   0  0  0  0  0  0  0  0  0  0  0  0
    3.1316    0.8311    2.0597 H   0  0  0  0  0  0  0  0  0  0  0  0
    5.6600   -0.0787    2.2202 H   0  0  0  0  0  0  0  0  0  0  0  0
    8.2080   -1.0569    1.2436 H   0  0  0  0  0  0  0  0  0  0  0  0
    9.3141   -2.4430   -0.5190 H   0  0  0  0  0  0  0  0  0  0  0  0
    7.9142   -3.5066   -2.2890 H   0  0  0  0  0  0  0  0  0  0  0  0
  1  2  2  0
  1 19  1  0
  1 20  1  0
  2  7  1  0
  2  3  1  0
  3  4  1  0
  4  5  2  0
  4  6  1  0
  6  7  1  0
  6 21  1  0
  6 22  1  0
  7  8  2  3
  8  9  1  0
  9 10  1  0
  9 23  1  0
  9 24  1  0
 10 18  1  0
 10 11  2  0
 11 12  1  0
 11 25  1  0
 12 17  2  0
 12 13  1  0
 13 14  2  0
 13 26  1  0
 14 15  1  0
 14 27  1  0
 15 16  2  0
 15 28  1  0
 16 17  1  0
 17 18  1  0
M  END
>  <i_m_ct_stereo_status>  (145) 
1

>  <s_m_source_file>  (145) 
/var/tmp/pbs.5076255.sched01/tmpuxvxg9lz/41q4u19exn.sdf

>  <i_m_source_file_index>  (145) 
16

>  <i_lp_mmshare_version>  (145) 
48012

>  <i_f3d_flags>  (145) 
0

>  <s_epik_input>  (145) 
W0NIMl09QzFPQyg9TylbQ0gyXUNcMT1OL1tDSDJdYyhbY0hdMilzYyhjMjMpbltjSF1bY0hdW2NIXTM=

>  <s_epik_cmdline>  (145) 
J2VwaWtfcHl0aG9uJywgJy1waHQnLCAnMi4wJywgJy1waCcsICc3LjAnLCAnLXRuJywgJzgnLCAnLW1hJywgJzIwMCcsICctaW1hZScsICc8aW5maWxlLm1hZT4nLCAnLW9tYWUnLCAnPG91dGZpbGUubWFlPic=

>  <r_lp_tautomer_probability>  (145) 
1

>  <r_epik_Ionization_Penalty>  (145) 
1.60476e-08

>  <r_epik_Ionization_Penalty_Charging>  (145) 
0

>  <r_epik_Ionization_Penalty_Neutral>  (145) 
1.60476e-08

>  <r_epik_State_Penalty>  (145) 
-0

>  <r_epik_Charging_Adjusted_Penalty>  (145) 
0

>  <i_epik_Tot_Q>  (145) 
0

>  <i_epik_Tot_abs_Q>  (145) 
0

>  <s_epik_Chemistry_Notes>  (145) 
This compound has an imine and may undergo hydrolysis.

>  <s_lp_Force_Field>  (145) 
OPLS3e

>  <r_lp_Energy>  (145) 
21.7255

>  <b_lp_Chiralities_Consistent>  (145) 
1

>  <s_lp_Variant>  (145) 
31:0-2

>  <s_i_glide_gridfile>  (145) 
pfpi4k_grid

>  <i_i_glide_lignum>  (145) 
16

>  <i_i_glide_rotatable_bonds>  (145) 
2

>  <r_i_docking_score>  (145) 
-3.54443

>  <r_i_glide_ligand_efficiency>  (145) 
-0.196913

>  <r_i_glide_ligand_efficiency_sa>  (145) 
-0.516057

>  <r_i_glide_ligand_efficiency_ln>  (145) 
-0.911077

>  <r_i_glide_gscore>  (145) 
-3.54443

>  <r_i_glide_lipo>  (145) 
-0.257119

>  <r_i_glide_hbond>  (145) 
0

>  <r_i_glide_metal>  (145) 
-0

>  <r_i_glide_rewards>  (145) 
-1.64798

>  <r_i_glide_evdw>  (145) 
-25.8323

>  <r_i_glide_ecoul>  (145) 
-3.82342

>  <r_i_glide_erotb>  (145) 
0.264731

>  <r_i_glide_esite>  (145) 
-0.0389345

>  <r_i_glide_emodel>  (145) 
-37.366

>  <r_i_glide_energy>  (145) 
-29.6558

>  <r_i_glide_einternal>  (145) 
0.0242821

>  <r_i_glide_intrahb_reward>  (145) 
-0

>  <i_i_glide_confnum>  (145) 
2

>  <i_i_glide_posenum>  (145) 
23

>  <r_i_glide_eff_state_penalty>  (145) 
0

>  <ligand_id>  (145) 
31

>  <original_smiles>  (145) 
C=C1OC(=O)CC1=NCc1cc2cccnc2s1

>  <smiles>  (145) 
[H]C([H])=C1OC(=O)C([H])([H])C1=NC([H])([H])c1sc2nc([H])c([H])c([H])c2c1[H]

$$$$
33:0:0
     RDKit          3D

 64 69  0  0  1  0  0  0  0  0999 V2000
    6.7677   -3.1346   -0.0800 C   0  0  0  0  0  0  0  0  0  0  0  0
    5.5291   -3.6504   -0.0076 C   0  0  0  0  0  0  0  0  0  0  0  0
    4.8818   -4.6299   -0.7782 C   0  0  2  0  0  0  0  0  0  0  0  0
    3.8154   -3.4016   -1.0071 C   0  0  0  0  0  0  0  0  0  0  0  0
    3.4822   -2.5186    0.3528 C   0  0  1  0  0  0  0  0  0  0  0  0
    4.3149   -3.4978    0.9459 C   0  0  2  0  0  0  0  0  0  0  0  0
    4.5907   -3.9356    2.3123 C   0  0  2  0  0  0  0  0  0  0  0  0
    4.9893   -2.5301    2.3623 O   0  0  0  0  0  0  0  0  0  0  0  0
    4.2334   -1.6360    1.4329 C   0  0  0  0  0  0  0  0  0  0  0  0
    5.1308   -0.5271    0.8402 C   0  0  0  0  0  0  0  0  0  0  0  0
    3.1939   -0.9312    2.3229 C   0  0  0  0  0  0  0  0  0  0  0  0
    5.4509   -5.2501    1.8893 C   0  0  2  0  0  0  0  0  0  0  0  0
    4.9529   -5.8084    0.4069 C   0  0  1  0  0  0  0  0  0  0  0  0
    3.6905   -6.5074    0.5442 O   0  0  0  0  0  0  0  0  0  0  0  0
    2.9657   -6.5966    1.8128 C   0  0  2  0  0  0  0  0  0  0  0  0
    2.5072   -8.0809    1.9160 C   0  0  0  0  0  0  0  0  0  0  0  0
    1.7517   -5.6438    1.6688 C   0  0  1  0  0  0  0  0  0  0  0  0
    0.4654   -6.2606    1.6776 O   0  0  0  0  0  0  0  0  0  0  0  0
    1.9429   -4.5276    2.7348 C   0  0  1  0  0  0  0  0  0  0  0  0
    1.0192   -4.8139    3.7728 O   0  0  0  0  0  0  0  0  0  0  0  0
    3.4418   -4.5397    3.2519 C   0  0  2  0  0  0  0  0  0  0  0  0
    3.5027   -3.9075    4.7193 C   0  0  0  0  0  0  0  0  0  0  0  0
    4.6349   -2.9033    5.1053 C   0  0  0  0  0  0  0  0  0  0  0  0
    3.2276   -4.8783    5.8994 C   0  0  0  0  0  0  0  0  0  0  0  0
    3.7367   -6.0964    3.1078 C   0  0  2  0  0  0  0  0  0  0  0  0
    5.2502   -6.3200    2.9549 C   0  0  0  0  0  0  0  0  0  0  0  0
    5.6985   -7.7543    2.5476 C   0  0  0  0  0  0  0  0  0  0  0  0
    6.0704   -6.0811    4.2386 C   0  0  0  0  0  0  0  0  0  0  0  0
    7.1031   -2.4183    0.6553 H   0  0  0  0  0  0  0  0  0  0  0  0
    7.4477   -3.4447   -0.8539 H   0  0  0  0  0  0  0  0  0  0  0  0
    5.4079   -4.8875   -1.6912 H   0  0  0  0  0  0  0  0  0  0  0  0
    4.1817   -2.7312   -1.7944 H   0  0  0  0  0  0  0  0  0  0  0  0
    2.9018   -3.8243   -1.4152 H   0  0  0  0  0  0  0  0  0  0  0  0
    2.4172   -2.5842    0.5804 H   0  0  0  0  0  0  0  0  0  0  0  0
    3.4917   -4.1942    0.9293 H   0  0  0  0  0  0  0  0  0  0  0  0
    4.5536    0.3683    0.6135 H   0  0  0  0  0  0  0  0  0  0  0  0
    5.6104   -0.8162   -0.0906 H   0  0  0  0  0  0  0  0  0  0  0  0
    5.9051   -0.2489    1.5533 H   0  0  0  0  0  0  0  0  0  0  0  0
    2.5233   -0.3104    1.7259 H   0  0  0  0  0  0  0  0  0  0  0  0
    3.6831   -0.2899    3.0542 H   0  0  0  0  0  0  0  0  0  0  0  0
    2.5802   -1.6408    2.8725 H   0  0  0  0  0  0  0  0  0  0  0  0
    6.5208   -5.0166    1.8717 H   0  0  0  0  0  0  0  0  0  0  0  0
    5.6849   -6.5407    0.0765 H   0  0  0  0  0  0  0  0  0  0  0  0
    1.8900   -8.2565    2.7975 H   0  0  0  0  0  0  0  0  0  0  0  0
    3.3349   -8.7821    1.9784 H   0  0  0  0  0  0  0  0  0  0  0  0
    1.9286   -8.3786    1.0405 H   0  0  0  0  0  0  0  0  0  0  0  0
    1.7708   -5.2035    0.6720 H   0  0  0  0  0  0  0  0  0  0  0  0
    0.4922   -6.9685    2.3101 H   0  0  0  0  0  0  0  0  0  0  0  0
    1.6501   -3.5531    2.3528 H   0  0  0  0  0  0  0  0  0  0  0  0
    1.1843   -4.2131    4.4840 H   0  0  0  0  0  0  0  0  0  0  0  0
    2.6552   -3.2259    4.7503 H   0  0  0  0  0  0  0  0  0  0  0  0
    5.6406   -3.1485    4.7771 H   0  0  0  0  0  0  0  0  0  0  0  0
    4.6847   -2.7695    6.1862 H   0  0  0  0  0  0  0  0  0  0  0  0
    4.4250   -1.9116    4.7061 H   0  0  0  0  0  0  0  0  0  0  0  0
    4.0582   -5.5568    6.0818 H   0  0  0  0  0  0  0  0  0  0  0  0
    2.3391   -5.4948    5.7650 H   0  0  0  0  0  0  0  0  0  0  0  0
    3.0607   -4.3212    6.8227 H   0  0  0  0  0  0  0  0  0  0  0  0
    3.3469   -6.6489    3.9621 H   0  0  0  0  0  0  0  0  0  0  0  0
    5.3871   -8.4725    3.3035 H   0  0  0  0  0  0  0  0  0  0  0  0
    6.7865   -7.8136    2.4829 H   0  0  0  0  0  0  0  0  0  0  0  0
    5.3279   -8.1093    1.5904 H   0  0  0  0  0  0  0  0  0  0  0  0
    5.8390   -6.8304    4.9996 H   0  0  0  0  0  0  0  0  0  0  0  0
    5.9211   -5.1123    4.6849 H   0  0  0  0  0  0  0  0  0  0  0  0
    7.1410   -6.1686    4.0331 H   0  0  0  0  0  0  0  0  0  0  0  0
  1  2  2  0
  1 29  1  0
  1 30  1  0
  2  6  1  0
  2  3  1  0
  3 13  1  0
  3  4  1  0
  3 31  1  6
  4  5  1  0
  4 32  1  0
  4 33  1  0
  5  9  1  0
  5  6  1  0
  5 34  1  1
  6  7  1  0
  6 35  1  6
  7 21  1  0
  7  8  1  1
  7 12  1  0
  8  9  1  0
  9 10  1  0
  9 11  1  0
 10 36  1  0
 10 37  1  0
 10 38  1  0
 11 39  1  0
 11 40  1  0
 11 41  1  0
 12 26  1  0
 12 13  1  0
 12 42  1  6
 13 14  1  0
 13 43  1  6
 14 15  1  0
 15 25  1  0
 15 16  1  1
 15 17  1  0
 16 44  1  0
 16 45  1  0
 16 46  1  0
 17 18  1  0
 17 19  1  0
 17 47  1  6
 18 48  1  0
 19 20  1  0
 19 21  1  0
 19 49  1  6
 20 50  1  0
 21 22  1  1
 21 25  1  0
 22 23  1  0
 22 24  1  0
 22 51  1  0
 23 52  1  0
 23 53  1  0
 23 54  1  0
 24 55  1  0
 24 56  1  0
 24 57  1  0
 25 26  1  0
 25 58  1  1
 26 27  1  0
 26 28  1  0
 27 59  1  0
 27 60  1  0
 27 61  1  0
 28 62  1  0
 28 63  1  0
 28 64  1  0
M  END
>  <i_m_ct_stereo_status>  (146) 
1

>  <s_m_source_file>  (146) 
/var/tmp/pbs.5076255.sched01/tmpuxvxg9lz/41q4u19exn.sdf

>  <i_m_source_file_index>  (146) 
18

>  <i_lp_mmshare_version>  (146) 
48012

>  <i_f3d_flags>  (146) 
0

>  <s_epik_input>  (146) 
W0NAQF0xMjNbQ0BIXTRbQ0BASF0oQyhPMSkoW0NIM10pW0NIM10pW0NIMl1bQ0BASF0oQzQ9W0NIMl0pW0NASF01W0NAQEhdMkMoW0NIM10pKFtDSDNdKVtDQEBIXTZbQ0BAXShPNSkoW0NIM10pW0NAQEhdKFtPSF0pW0NAQEhdKFtPSF0pW0NAXTM2W0NIXShbQ0gzXSlbQ0gzXQ==

>  <s_epik_cmdline>  (146) 
J2VwaWtfcHl0aG9uJywgJy1waHQnLCAnMi4wJywgJy1waCcsICc3LjAnLCAnLXRuJywgJzgnLCAnLW1hJywgJzIwMCcsICctaW1hZScsICc8aW5maWxlLm1hZT4nLCAnLW9tYWUnLCAnPG91dGZpbGUubWFlPic=

>  <r_lp_tautomer_probability>  (146) 
1

>  <r_epik_Ionization_Penalty>  (146) 
9.92315e-08

>  <r_epik_Ionization_Penalty_Charging>  (146) 
0

>  <r_epik_Ionization_Penalty_Neutral>  (146) 
9.92315e-08

>  <r_epik_State_Penalty>  (146) 
-0

>  <r_epik_Charging_Adjusted_Penalty>  (146) 
0

>  <i_epik_Tot_Q>  (146) 
0

>  <i_epik_Tot_abs_Q>  (146) 
0

>  <s_lp_Force_Field>  (146) 
OPLS3e

>  <r_lp_Energy>  (146) 
287.999

>  <b_lp_Chiralities_Consistent>  (146) 
1

>  <s_lp_Variant>  (146) 
33:0-1

>  <s_i_glide_gridfile>  (146) 
pfpi4k_grid

>  <i_i_glide_lignum>  (146) 
18

>  <i_i_glide_rotatable_bonds>  (146) 
3

>  <r_i_docking_score>  (146) 
-2.89632

>  <r_i_glide_ligand_efficiency>  (146) 
-0.10344

>  <r_i_glide_ligand_efficiency_sa>  (146) 
-0.314105

>  <r_i_glide_ligand_efficiency_ln>  (146) 
-0.668556

>  <r_i_glide_gscore>  (146) 
-2.89632

>  <r_i_glide_lipo>  (146) 
-0.588551

>  <r_i_glide_hbond>  (146) 
0

>  <r_i_glide_metal>  (146) 
-0

>  <r_i_glide_rewards>  (146) 
-0.759953

>  <r_i_glide_evdw>  (146) 
-19.1373

>  <r_i_glide_ecoul>  (146) 
-3.93969

>  <r_i_glide_erotb>  (146) 
0

>  <r_i_glide_esite>  (146) 
0

>  <r_i_glide_emodel>  (146) 
-25.5565

>  <r_i_glide_energy>  (146) 
-23.077

>  <r_i_glide_einternal>  (146) 
4.0774

>  <r_i_glide_intrahb_reward>  (146) 
-0

>  <i_i_glide_confnum>  (146) 
1

>  <i_i_glide_posenum>  (146) 
10

>  <r_i_glide_eff_state_penalty>  (146) 
0

>  <ligand_id>  (146) 
33

>  <original_smiles>  (146) 
C=C1C2CC3C1C1(OC3(C)C)C3C2OC2(C)C(O)C(O)C1(C(C)C)C2C3(C)C

>  <smiles>  (146) 
[H]OC1([H])C([H])(O[H])C2(C([H])(C([H])([H])[H])C([H])([H])[H])C3([H])C1(C([H])([H])[H])OC1([H])C4([H])C(=C([H])[H])C5([H])C([H])(C4([H])[H])C(C([H])([H])[H])(C([H])([H])[H])OC52C1([H])C3(C([H])([H])[H])C([H])([H])[H]

$$$$
33:0:1
     RDKit          3D

 64 69  0  0  1  0  0  0  0  0999 V2000
    6.5137   -2.9301   -0.7895 C   0  0  0  0  0  0  0  0  0  0  0  0
    5.2924   -3.4198   -0.4164 C   0  0  0  0  0  0  0  0  0  0  0  0
    4.4036   -4.2465   -1.0939 C   0  0  2  0  0  0  0  0  0  0  0  0
    3.4089   -2.9556   -0.8930 C   0  0  0  0  0  0  0  0  0  0  0  0
    3.5171   -2.2301    0.5893 C   0  0  1  0  0  0  0  0  0  0  0  0
    4.4009   -3.3226    0.8393 C   0  0  2  0  0  0  0  0  0  0  0  0
    4.9853   -3.9209    2.0367 C   0  0  2  0  0  0  0  0  0  0  0  0
    5.4459   -2.5475    2.1698 O   0  0  0  0  0  0  0  0  0  0  0  0
    4.5874   -1.5235    1.5035 C   0  0  0  0  0  0  0  0  0  0  0  0
    5.4050   -0.4075    0.8074 C   0  0  0  0  0  0  0  0  0  0  0  0
    3.8006   -0.8021    2.6168 C   0  0  0  0  0  0  0  0  0  0  0  0
    5.5999   -5.2173    1.2308 C   0  0  2  0  0  0  0  0  0  0  0  0
    4.6777   -5.5597   -0.0985 C   0  0  1  0  0  0  0  0  0  0  0  0
    3.4484   -6.2162    0.3199 O   0  0  0  0  0  0  0  0  0  0  0  0
    3.0963   -6.4445    1.7214 C   0  0  2  0  0  0  0  0  0  0  0  0
    2.5796   -7.9064    1.7726 C   0  0  0  0  0  0  0  0  0  0  0  0
    1.9679   -5.4215    2.0467 C   0  0  1  0  0  0  0  0  0  0  0  0
    0.6880   -5.9780    2.3688 O   0  0  0  0  0  0  0  0  0  0  0  0
    2.5347   -4.4639    3.1327 C   0  0  1  0  0  0  0  0  0  0  0  0
    1.9018   -4.8306    4.3574 O   0  0  0  0  0  0  0  0  0  0  0  0
    4.0875   -4.6037    3.2010 C   0  0  2  0  0  0  0  0  0  0  0  0
    4.7085   -4.2099    4.6285 C   0  0  0  0  0  0  0  0  0  0  0  0
    4.5984   -5.2396    5.7839 C   0  0  0  0  0  0  0  0  0  0  0  0
    4.3443   -2.8241    5.2012 C   0  0  0  0  0  0  0  0  0  0  0  0
    4.2374   -6.1370    2.7974 C   0  0  2  0  0  0  0  0  0  0  0  0
    5.6331   -6.4093    2.1962 C   0  0  0  0  0  0  0  0  0  0  0  0
    5.8423   -7.7901    1.5204 C   0  0  0  0  0  0  0  0  0  0  0  0
    6.8131   -6.3343    3.1987 C   0  0  0  0  0  0  0  0  0  0  0  0
    7.0876   -2.3285   -0.1094 H   0  0  0  0  0  0  0  0  0  0  0  0
    6.9237   -3.1744   -1.7641 H   0  0  0  0  0  0  0  0  0  0  0  0
    4.6739   -4.4217   -2.1362 H   0  0  0  0  0  0  0  0  0  0  0  0
    3.5892   -2.2009   -1.6745 H   0  0  0  0  0  0  0  0  0  0  0  0
    2.3783   -3.2764   -1.0645 H   0  0  0  0  0  0  0  0  0  0  0  0
    2.5537   -2.2786    1.0844 H   0  0  0  0  0  0  0  0  0  0  0  0
    3.5462   -3.9588    0.9784 H   0  0  0  0  0  0  0  0  0  0  0  0
    4.8696    0.5364    0.8530 H   0  0  0  0  0  0  0  0  0  0  0  0
    5.5900   -0.5851   -0.2479 H   0  0  0  0  0  0  0  0  0  0  0  0
    6.3566   -0.2621    1.3138 H   0  0  0  0  0  0  0  0  0  0  0  0
    3.1765    0.0021    2.2417 H   0  0  0  0  0  0  0  0  0  0  0  0
    4.5074   -0.3506    3.3243 H   0  0  0  0  0  0  0  0  0  0  0  0
    3.2195   -1.5303    3.2034 H   0  0  0  0  0  0  0  0  0  0  0  0
    6.6335   -5.0309    0.9427 H   0  0  0  0  0  0  0  0  0  0  0  0
    5.2244   -6.2714   -0.7218 H   0  0  0  0  0  0  0  0  0  0  0  0
    2.2139   -8.1728    2.7591 H   0  0  0  0  0  0  0  0  0  0  0  0
    3.3379   -8.6436    1.5145 H   0  0  0  0  0  0  0  0  0  0  0  0
    1.7647   -8.0576    1.0586 H   0  0  0  0  0  0  0  0  0  0  0  0
    1.7616   -4.8646    1.1320 H   0  0  0  0  0  0  0  0  0  0  0  0
    0.8183   -6.6415    3.0096 H   0  0  0  0  0  0  0  0  0  0  0  0
    2.2063   -3.4485    2.9345 H   0  0  0  0  0  0  0  0  0  0  0  0
    0.9815   -4.7025    4.2539 H   0  0  0  0  0  0  0  0  0  0  0  0
    5.7511   -4.0120    4.4846 H   0  0  0  0  0  0  0  0  0  0  0  0
    3.6284   -5.7038    5.8835 H   0  0  0  0  0  0  0  0  0  0  0  0
    4.7757   -4.7424    6.7420 H   0  0  0  0  0  0  0  0  0  0  0  0
    5.3584   -6.0168    5.7103 H   0  0  0  0  0  0  0  0  0  0  0  0
    3.2628   -2.6814    5.3317 H   0  0  0  0  0  0  0  0  0  0  0  0
    4.7310   -2.0682    4.5109 H   0  0  0  0  0  0  0  0  0  0  0  0
    4.8043   -2.6621    6.1848 H   0  0  0  0  0  0  0  0  0  0  0  0
    4.0596   -6.7862    3.6653 H   0  0  0  0  0  0  0  0  0  0  0  0
    5.6934   -8.5954    2.2470 H   0  0  0  0  0  0  0  0  0  0  0  0
    6.8615   -7.8999    1.1487 H   0  0  0  0  0  0  0  0  0  0  0  0
    5.1945   -8.0084    0.6723 H   0  0  0  0  0  0  0  0  0  0  0  0
    6.7265   -7.1294    3.9462 H   0  0  0  0  0  0  0  0  0  0  0  0
    6.9342   -5.3952    3.7124 H   0  0  0  0  0  0  0  0  0  0  0  0
    7.7606   -6.4874    2.6785 H   0  0  0  0  0  0  0  0  0  0  0  0
  1  2  2  0
  1 29  1  0
  1 30  1  0
  2  6  1  0
  2  3  1  0
  3 13  1  0
  3  4  1  0
  3 31  1  6
  4  5  1  0
  4 32  1  0
  4 33  1  0
  5  9  1  0
  5  6  1  0
  5 34  1  1
  6  7  1  0
  6 35  1  6
  7 21  1  0
  7  8  1  1
  7 12  1  0
  8  9  1  0
  9 10  1  0
  9 11  1  0
 10 36  1  0
 10 37  1  0
 10 38  1  0
 11 39  1  0
 11 40  1  0
 11 41  1  0
 12 26  1  0
 12 13  1  0
 12 42  1  6
 13 14  1  0
 13 43  1  6
 14 15  1  0
 15 25  1  0
 15 16  1  6
 15 17  1  0
 16 44  1  0
 16 45  1  0
 16 46  1  0
 17 18  1  0
 17 19  1  0
 17 47  1  6
 18 48  1  0
 19 20  1  0
 19 21  1  0
 19 49  1  6
 20 50  1  0
 21 22  1  1
 21 25  1  0
 22 23  1  0
 22 24  1  0
 22 51  1  0
 23 52  1  0
 23 53  1  0
 23 54  1  0
 24 55  1  0
 24 56  1  0
 24 57  1  0
 25 26  1  0
 25 58  1  1
 26 27  1  0
 26 28  1  0
 27 59  1  0
 27 60  1  0
 27 61  1  0
 28 62  1  0
 28 63  1  0
 28 64  1  0
M  END
>  <i_m_ct_stereo_status>  (147) 
1

>  <s_m_source_file>  (147) 
/var/tmp/pbs.5076255.sched01/tmpuxvxg9lz/41q4u19exn.sdf

>  <i_m_source_file_index>  (147) 
18

>  <i_lp_mmshare_version>  (147) 
48012

>  <i_f3d_flags>  (147) 
0

>  <s_epik_input>  (147) 
W0NAQF0xMjNbQ0BIXTRbQ0BASF0oQyhPMSkoW0NIM10pW0NIM10pW0NIMl1bQ0BASF0oQzQ9W0NIMl0pW0NASF01W0NAQEhdMkMoW0NIM10pKFtDSDNdKVtDQEBIXTZbQ0BAXShPNSkoW0NIM10pW0NAQEhdKFtPSF0pW0NAQEhdKFtPSF0pW0NAXTM2W0NIXShbQ0gzXSlbQ0gzXQ==

>  <s_epik_cmdline>  (147) 
J2VwaWtfcHl0aG9uJywgJy1waHQnLCAnMi4wJywgJy1waCcsICc3LjAnLCAnLXRuJywgJzgnLCAnLW1hJywgJzIwMCcsICctaW1hZScsICc8aW5maWxlLm1hZT4nLCAnLW9tYWUnLCAnPG91dGZpbGUubWFlPic=

>  <r_lp_tautomer_probability>  (147) 
1

>  <r_epik_Ionization_Penalty>  (147) 
9.92315e-08

>  <r_epik_Ionization_Penalty_Charging>  (147) 
0

>  <r_epik_Ionization_Penalty_Neutral>  (147) 
9.92315e-08

>  <r_epik_State_Penalty>  (147) 
-0

>  <r_epik_Charging_Adjusted_Penalty>  (147) 
0

>  <i_epik_Tot_Q>  (147) 
0

>  <i_epik_Tot_abs_Q>  (147) 
0

>  <s_lp_Force_Field>  (147) 
OPLS3e

>  <r_lp_Energy>  (147) 
287.999

>  <b_lp_Chiralities_Consistent>  (147) 
1

>  <s_lp_Variant>  (147) 
33:0-1

>  <s_i_glide_gridfile>  (147) 
pfpi4k_grid

>  <i_i_glide_lignum>  (147) 
18

>  <i_i_glide_rotatable_bonds>  (147) 
3

>  <r_i_docking_score>  (147) 
-2.73444

>  <r_i_glide_ligand_efficiency>  (147) 
-0.0976586

>  <r_i_glide_ligand_efficiency_sa>  (147) 
-0.296549

>  <r_i_glide_ligand_efficiency_ln>  (147) 
-0.631189

>  <r_i_glide_gscore>  (147) 
-2.73444

>  <r_i_glide_lipo>  (147) 
-0.560069

>  <r_i_glide_hbond>  (147) 
0

>  <r_i_glide_metal>  (147) 
-0

>  <r_i_glide_rewards>  (147) 
-0.759953

>  <r_i_glide_evdw>  (147) 
-19.1343

>  <r_i_glide_ecoul>  (147) 
-3.05136

>  <r_i_glide_erotb>  (147) 
0

>  <r_i_glide_esite>  (147) 
0

>  <r_i_glide_emodel>  (147) 
-25.4158

>  <r_i_glide_energy>  (147) 
-22.1856

>  <r_i_glide_einternal>  (147) 
0.399487

>  <r_i_glide_intrahb_reward>  (147) 
-0

>  <i_i_glide_confnum>  (147) 
1

>  <i_i_glide_posenum>  (147) 
1

>  <r_i_glide_eff_state_penalty>  (147) 
0

>  <ligand_id>  (147) 
33

>  <original_smiles>  (147) 
C=C1C2CC3C1C1(OC3(C)C)C3C2OC2(C)C(O)C(O)C1(C(C)C)C2C3(C)C

>  <smiles>  (147) 
[H]OC1([H])C([H])(O[H])C2(C([H])(C([H])([H])[H])C([H])([H])[H])C3([H])C1(C([H])([H])[H])OC1([H])C4([H])C(=C([H])[H])C5([H])C([H])(C4([H])[H])C(C([H])([H])[H])(C([H])([H])[H])OC52C1([H])C3(C([H])([H])[H])C([H])([H])[H]

$$$$
33:0:2
     RDKit          3D

 64 69  0  0  1  0  0  0  0  0999 V2000
    6.6758   -2.7485   -0.2498 C   0  0  0  0  0  0  0  0  0  0  0  0
    5.4719   -3.3406   -0.1727 C   0  0  0  0  0  0  0  0  0  0  0  0
    4.8799   -4.3574   -0.9317 C   0  0  2  0  0  0  0  0  0  0  0  0
    3.7399   -3.1935   -1.1527 C   0  0  0  0  0  0  0  0  0  0  0  0
    3.3617   -2.3374    0.2125 C   0  0  1  0  0  0  0  0  0  0  0  0
    4.2576   -3.2665    0.7956 C   0  0  2  0  0  0  0  0  0  0  0  0
    4.5720   -3.6853    2.1577 C   0  0  2  0  0  0  0  0  0  0  0  0
    4.8848   -2.2611    2.2082 O   0  0  0  0  0  0  0  0  0  0  0  0
    4.0661   -1.4138    1.2886 C   0  0  0  0  0  0  0  0  0  0  0  0
    4.8904   -0.2563    0.6904 C   0  0  0  0  0  0  0  0  0  0  0  0
    2.9936   -0.7713    2.1889 C   0  0  0  0  0  0  0  0  0  0  0  0
    5.5103   -4.9439    1.7284 C   0  0  2  0  0  0  0  0  0  0  0  0
    5.0368   -5.5342    0.2460 C   0  0  1  0  0  0  0  0  0  0  0  0
    3.8198   -6.3077    0.4024 O   0  0  0  0  0  0  0  0  0  0  0  0
    3.1138   -6.4400    1.6787 C   0  0  2  0  0  0  0  0  0  0  0  0
    2.7480   -7.9491    1.7798 C   0  0  0  0  0  0  0  0  0  0  0  0
    1.8405   -5.5610    1.5491 C   0  0  1  0  0  0  0  0  0  0  0  0
    0.6010   -6.2599    1.6111 O   0  0  0  0  0  0  0  0  0  0  0  0
    1.9686   -4.4288    2.6114 C   0  0  1  0  0  0  0  0  0  0  0  0
    1.0658   -4.7253    3.6668 O   0  0  0  0  0  0  0  0  0  0  0  0
    3.4713   -4.3584    3.1120 C   0  0  2  0  0  0  0  0  0  0  0  0
    3.5069   -3.7243    4.5792 C   0  0  0  0  0  0  0  0  0  0  0  0
    4.5794   -2.6589    4.9565 C   0  0  0  0  0  0  0  0  0  0  0  0
    3.2951   -4.7073    5.7603 C   0  0  0  0  0  0  0  0  0  0  0  0
    3.8607   -5.8923    2.9651 C   0  0  2  0  0  0  0  0  0  0  0  0
    5.3838   -6.0243    2.7934 C   0  0  0  0  0  0  0  0  0  0  0  0
    5.9155   -7.4264    2.3804 C   0  0  0  0  0  0  0  0  0  0  0  0
    6.1990   -5.7374    4.0698 C   0  0  0  0  0  0  0  0  0  0  0  0
    6.9734   -2.0148    0.4811 H   0  0  0  0  0  0  0  0  0  0  0  0
    7.3683   -3.0180   -1.0301 H   0  0  0  0  0  0  0  0  0  0  0  0
    5.4282   -4.5842   -1.8500 H   0  0  0  0  0  0  0  0  0  0  0  0
    4.0501   -2.5011   -1.9413 H   0  0  0  0  0  0  0  0  0  0  0  0
    2.8455   -3.6697   -1.5511 H   0  0  0  0  0  0  0  0  0  0  0  0
    2.3066   -2.4675    0.4532 H   0  0  0  0  0  0  0  0  0  0  0  0
    3.4797   -4.0122    0.7816 H   0  0  0  0  0  0  0  0  0  0  0  0
    4.2504    0.5996    0.4782 H   0  0  0  0  0  0  0  0  0  0  0  0
    5.3744   -0.5097   -0.2491 H   0  0  0  0  0  0  0  0  0  0  0  0
    5.6530    0.0751    1.3931 H   0  0  0  0  0  0  0  0  0  0  0  0
    2.2819   -0.1925    1.5970 H   0  0  0  0  0  0  0  0  0  0  0  0
    3.4483   -0.0995    2.9157 H   0  0  0  0  0  0  0  0  0  0  0  0
    2.4282   -1.5152    2.7436 H   0  0  0  0  0  0  0  0  0  0  0  0
    6.5612   -4.6427    1.7000 H   0  0  0  0  0  0  0  0  0  0  0  0
    5.8037   -6.2213   -0.1016 H   0  0  0  0  0  0  0  0  0  0  0  0
    2.1442   -8.1617    2.6649 H   0  0  0  0  0  0  0  0  0  0  0  0
    3.6167   -8.5988    1.8391 H   0  0  0  0  0  0  0  0  0  0  0  0
    2.1831   -8.2890    0.9099 H   0  0  0  0  0  0  0  0  0  0  0  0
    1.8125   -5.1419    0.5407 H   0  0  0  0  0  0  0  0  0  0  0  0
    0.7126   -7.0932    1.1712 H   0  0  0  0  0  0  0  0  0  0  0  0
    1.6180   -3.4821    2.2180 H   0  0  0  0  0  0  0  0  0  0  0  0
    1.3369   -5.5394    4.0609 H   0  0  0  0  0  0  0  0  0  0  0  0
    2.6175   -3.0976    4.6163 H   0  0  0  0  0  0  0  0  0  0  0  0
    5.5963   -2.8506    4.6225 H   0  0  0  0  0  0  0  0  0  0  0  0
    4.6342   -2.5209    6.0360 H   0  0  0  0  0  0  0  0  0  0  0  0
    4.3169   -1.6789    4.5625 H   0  0  0  0  0  0  0  0  0  0  0  0
    4.1615   -5.3406    5.9378 H   0  0  0  0  0  0  0  0  0  0  0  0
    2.4362   -5.3640    5.6363 H   0  0  0  0  0  0  0  0  0  0  0  0
    3.1068   -4.1567    6.6840 H   0  0  0  0  0  0  0  0  0  0  0  0
    3.5177   -6.4696    3.8239 H   0  0  0  0  0  0  0  0  0  0  0  0
    5.6552   -8.1653    3.1361 H   0  0  0  0  0  0  0  0  0  0  0  0
    7.0030   -7.4207    2.3035 H   0  0  0  0  0  0  0  0  0  0  0  0
    5.5587   -7.8019    1.4271 H   0  0  0  0  0  0  0  0  0  0  0  0
    6.0226   -6.4985    4.8319 H   0  0  0  0  0  0  0  0  0  0  0  0
    5.9957   -4.7795    4.5222 H   0  0  0  0  0  0  0  0  0  0  0  0
    7.2694   -5.7594    3.8584 H   0  0  0  0  0  0  0  0  0  0  0  0
  1  2  2  0
  1 29  1  0
  1 30  1  0
  2  6  1  0
  2  3  1  0
  3 13  1  0
  3  4  1  0
  3 31  1  6
  4  5  1  0
  4 32  1  0
  4 33  1  0
  5  9  1  0
  5  6  1  0
  5 34  1  1
  6  7  1  0
  6 35  1  6
  7 21  1  0
  7  8  1  1
  7 12  1  0
  8  9  1  0
  9 10  1  0
  9 11  1  0
 10 36  1  0
 10 37  1  0
 10 38  1  0
 11 39  1  0
 11 40  1  0
 11 41  1  0
 12 26  1  0
 12 13  1  0
 12 42  1  6
 13 14  1  0
 13 43  1  6
 14 15  1  0
 15 25  1  0
 15 16  1  1
 15 17  1  0
 16 44  1  0
 16 45  1  0
 16 46  1  0
 17 18  1  0
 17 19  1  0
 17 47  1  6
 18 48  1  0
 19 20  1  0
 19 21  1  0
 19 49  1  6
 20 50  1  0
 21 22  1  1
 21 25  1  0
 22 23  1  0
 22 24  1  0
 22 51  1  0
 23 52  1  0
 23 53  1  0
 23 54  1  0
 24 55  1  0
 24 56  1  0
 24 57  1  0
 25 26  1  0
 25 58  1  1
 26 27  1  0
 26 28  1  0
 27 59  1  0
 27 60  1  0
 27 61  1  0
 28 62  1  0
 28 63  1  0
 28 64  1  0
M  END
>  <i_m_ct_stereo_status>  (148) 
1

>  <s_m_source_file>  (148) 
/var/tmp/pbs.5076255.sched01/tmpuxvxg9lz/41q4u19exn.sdf

>  <i_m_source_file_index>  (148) 
18

>  <i_lp_mmshare_version>  (148) 
48012

>  <i_f3d_flags>  (148) 
0

>  <s_epik_input>  (148) 
W0NAQF0xMjNbQ0BIXTRbQ0BASF0oQyhPMSkoW0NIM10pW0NIM10pW0NIMl1bQ0BASF0oQzQ9W0NIMl0pW0NASF01W0NAQEhdMkMoW0NIM10pKFtDSDNdKVtDQEBIXTZbQ0BAXShPNSkoW0NIM10pW0NAQEhdKFtPSF0pW0NAQEhdKFtPSF0pW0NAXTM2W0NIXShbQ0gzXSlbQ0gzXQ==

>  <s_epik_cmdline>  (148) 
J2VwaWtfcHl0aG9uJywgJy1waHQnLCAnMi4wJywgJy1waCcsICc3LjAnLCAnLXRuJywgJzgnLCAnLW1hJywgJzIwMCcsICctaW1hZScsICc8aW5maWxlLm1hZT4nLCAnLW9tYWUnLCAnPG91dGZpbGUubWFlPic=

>  <r_lp_tautomer_probability>  (148) 
1

>  <r_epik_Ionization_Penalty>  (148) 
9.92315e-08

>  <r_epik_Ionization_Penalty_Charging>  (148) 
0

>  <r_epik_Ionization_Penalty_Neutral>  (148) 
9.92315e-08

>  <r_epik_State_Penalty>  (148) 
-0

>  <r_epik_Charging_Adjusted_Penalty>  (148) 
0

>  <i_epik_Tot_Q>  (148) 
0

>  <i_epik_Tot_abs_Q>  (148) 
0

>  <s_lp_Force_Field>  (148) 
OPLS3e

>  <r_lp_Energy>  (148) 
287.999

>  <b_lp_Chiralities_Consistent>  (148) 
1

>  <s_lp_Variant>  (148) 
33:0-1

>  <s_i_glide_gridfile>  (148) 
pfpi4k_grid

>  <i_i_glide_lignum>  (148) 
18

>  <i_i_glide_rotatable_bonds>  (148) 
3

>  <r_i_docking_score>  (148) 
-2.64778

>  <r_i_glide_ligand_efficiency>  (148) 
-0.0945636

>  <r_i_glide_ligand_efficiency_sa>  (148) 
-0.287151

>  <r_i_glide_ligand_efficiency_ln>  (148) 
-0.611186

>  <r_i_glide_gscore>  (148) 
-2.64778

>  <r_i_glide_lipo>  (148) 
-0.479162

>  <r_i_glide_hbond>  (148) 
0

>  <r_i_glide_metal>  (148) 
-0

>  <r_i_glide_rewards>  (148) 
-0.759953

>  <r_i_glide_evdw>  (148) 
-20.3025

>  <r_i_glide_ecoul>  (148) 
-2.6236

>  <r_i_glide_erotb>  (148) 
0

>  <r_i_glide_esite>  (148) 
0

>  <r_i_glide_emodel>  (148) 
-25.0334

>  <r_i_glide_energy>  (148) 
-22.9261

>  <r_i_glide_einternal>  (148) 
4.11526

>  <r_i_glide_intrahb_reward>  (148) 
-0

>  <i_i_glide_confnum>  (148) 
1

>  <i_i_glide_posenum>  (148) 
25

>  <r_i_glide_eff_state_penalty>  (148) 
0

>  <ligand_id>  (148) 
33

>  <original_smiles>  (148) 
C=C1C2CC3C1C1(OC3(C)C)C3C2OC2(C)C(O)C(O)C1(C(C)C)C2C3(C)C

>  <smiles>  (148) 
[H]OC1([H])C([H])(O[H])C2(C([H])(C([H])([H])[H])C([H])([H])[H])C3([H])C1(C([H])([H])[H])OC1([H])C4([H])C(=C([H])[H])C5([H])C([H])(C4([H])[H])C(C([H])([H])[H])(C([H])([H])[H])OC52C1([H])C3(C([H])([H])[H])C([H])([H])[H]

$$$$
34:0:0
     RDKit          3D

 14 15  0  0  1  0  0  0  0  0999 V2000
    2.9962   -1.7583   -3.9193 C   0  0  0  0  0  0  0  0  0  0  0  0
    3.6400   -0.6156   -3.4021 C   0  0  0  0  0  0  0  0  0  0  0  0
    4.6167   -0.6551   -2.4671 N   0  0  0  0  0  0  0  0  0  0  0  0
    4.9661   -1.8606   -2.0161 C   0  0  0  0  0  0  0  0  0  0  0  0
    5.9602   -2.1236   -1.0845 N   0  0  0  0  0  0  0  0  0  0  0  0
    5.9350   -3.4567   -0.9485 C   0  0  0  0  0  0  0  0  0  0  0  0
    5.0122   -4.0483   -1.7769 N   0  0  0  0  0  0  0  0  0  0  0  0
    4.3801   -3.0638   -2.4721 C   0  0  0  0  0  0  0  0  0  0  0  0
    3.3698   -3.0281   -3.4446 C   0  0  0  0  0  0  0  0  0  0  0  0
    4.8065   -5.0415   -1.8690 H   0  0  0  0  0  0  0  0  0  0  0  0
    2.2150   -1.6452   -4.6594 H   0  0  0  0  0  0  0  0  0  0  0  0
    3.3571    0.3676   -3.7535 H   0  0  0  0  0  0  0  0  0  0  0  0
    6.5844   -3.9930   -0.2729 H   0  0  0  0  0  0  0  0  0  0  0  0
    2.8923   -3.9278   -3.8051 H   0  0  0  0  0  0  0  0  0  0  0  0
  1  9  2  0
  1 11  1  0
  1  2  1  0
  2 12  1  0
  2  3  2  0
  3  4  1  0
  4  5  1  0
  4  8  2  0
  5  6  2  0
  6 13  1  0
  6  7  1  0
  7 10  1  0
  7  8  1  0
  8  9  1  0
  9 14  1  0
M  END
>  <i_m_ct_stereo_status>  (149) 
1

>  <s_m_source_file>  (149) 
/var/tmp/pbs.5076255.sched01/tmpuxvxg9lz/41q4u19exn.sdf

>  <i_m_source_file_index>  (149) 
19

>  <i_lp_mmshare_version>  (149) 
48012

>  <i_f3d_flags>  (149) 
0

>  <s_epik_input>  (149) 
bjFbY0hdW2NIXVtjSF1jKGMxMiluW2NIXVtuSF0y

>  <s_epik_cmdline>  (149) 
J2VwaWtfcHl0aG9uJywgJy1waHQnLCAnMi4wJywgJy1waCcsICc3LjAnLCAnLXRuJywgJzgnLCAnLW1hJywgJzIwMCcsICctaW1hZScsICc8aW5maWxlLm1hZT4nLCAnLW9tYWUnLCAnPG91dGZpbGUubWFlPic=

>  <r_lp_tautomer_probability>  (149) 
0.641916

>  <r_epik_Ionization_Penalty>  (149) 
0.000527663

>  <r_epik_Ionization_Penalty_Charging>  (149) 
0

>  <r_epik_Ionization_Penalty_Neutral>  (149) 
0.000527663

>  <r_epik_State_Penalty>  (149) 
0.254028

>  <r_epik_Charging_Adjusted_Penalty>  (149) 
0.254028

>  <i_epik_Tot_Q>  (149) 
0

>  <i_epik_Tot_abs_Q>  (149) 
0

>  <s_lp_Force_Field>  (149) 
OPLS3e

>  <r_lp_Energy>  (149) 
14.0952

>  <b_lp_Chiralities_Consistent>  (149) 
1

>  <s_lp_Variant>  (149) 
34:0-1

>  <s_i_glide_gridfile>  (149) 
pfpi4k_grid

>  <i_i_glide_lignum>  (149) 
19

>  <i_i_glide_rotatable_bonds>  (149) 
0

>  <r_i_docking_score>  (149) 
-4.53489

>  <r_i_glide_ligand_efficiency>  (149) 
-0.503877

>  <r_i_glide_ligand_efficiency_sa>  (149) 
-1.04811

>  <r_i_glide_ligand_efficiency_ln>  (149) 
-1.41838

>  <r_i_glide_gscore>  (149) 
-4.53489

>  <r_i_glide_lipo>  (149) 
-0.47025

>  <r_i_glide_hbond>  (149) 
-0.100751

>  <r_i_glide_metal>  (149) 
-0

>  <r_i_glide_rewards>  (149) 
-2.38326

>  <r_i_glide_evdw>  (149) 
-16.2463

>  <r_i_glide_ecoul>  (149) 
-4.85097

>  <r_i_glide_erotb>  (149) 
0

>  <r_i_glide_esite>  (149) 
-0.0406718

>  <r_i_glide_emodel>  (149) 
-27.3553

>  <r_i_glide_energy>  (149) 
-21.0973

>  <r_i_glide_einternal>  (149) 
0

>  <r_i_glide_intrahb_reward>  (149) 
-0

>  <i_i_glide_confnum>  (149) 
2

>  <i_i_glide_posenum>  (149) 
33

>  <r_i_glide_eff_state_penalty>  (149) 
0

>  <ligand_id>  (149) 
34

>  <original_smiles>  (149) 
c1cnc2[nH]cnc2c1

>  <smiles>  (149) 
[H]c1nc2nc([H])n([H])c2c([H])c1[H]

$$$$
34:0:1
     RDKit          3D

 14 15  0  0  1  0  0  0  0  0999 V2000
    3.5708   -0.5041   -3.8787 C   0  0  0  0  0  0  0  0  0  0  0  0
    4.3538   -0.2991   -2.7292 C   0  0  0  0  0  0  0  0  0  0  0  0
    4.3584   -1.0884   -1.6260 N   0  0  0  0  0  0  0  0  0  0  0  0
    3.4866   -2.1018   -1.6287 C   0  0  0  0  0  0  0  0  0  0  0  0
    3.2921   -3.0302   -0.6140 N   0  0  0  0  0  0  0  0  0  0  0  0
    2.3143   -3.8178   -1.0719 C   0  0  0  0  0  0  0  0  0  0  0  0
    1.8858   -3.4566   -2.3281 N   0  0  0  0  0  0  0  0  0  0  0  0
    2.6289   -2.3866   -2.7216 C   0  0  0  0  0  0  0  0  0  0  0  0
    2.6802   -1.5877   -3.8745 C   0  0  0  0  0  0  0  0  0  0  0  0
    1.1801   -3.9255   -2.8904 H   0  0  0  0  0  0  0  0  0  0  0  0
    3.6131    0.1900   -4.7108 H   0  0  0  0  0  0  0  0  0  0  0  0
    5.0119    0.5465   -2.7185 H   0  0  0  0  0  0  0  0  0  0  0  0
    1.9453   -4.6690   -0.5164 H   0  0  0  0  0  0  0  0  0  0  0  0
    2.0012   -1.7435   -4.6954 H   0  0  0  0  0  0  0  0  0  0  0  0
  1  9  2  0
  1 11  1  0
  1  2  1  0
  2 12  1  0
  2  3  2  0
  3  4  1  0
  4  5  1  0
  4  8  2  0
  5  6  2  0
  6 13  1  0
  6  7  1  0
  7 10  1  0
  7  8  1  0
  8  9  1  0
  9 14  1  0
M  END
>  <i_m_ct_stereo_status>  (150) 
1

>  <s_m_source_file>  (150) 
/var/tmp/pbs.5076255.sched01/tmpuxvxg9lz/41q4u19exn.sdf

>  <i_m_source_file_index>  (150) 
19

>  <i_lp_mmshare_version>  (150) 
48012

>  <i_f3d_flags>  (150) 
0

>  <s_epik_input>  (150) 
bjFbY0hdW2NIXVtjSF1jKGMxMiluW2NIXVtuSF0y

>  <s_epik_cmdline>  (150) 
J2VwaWtfcHl0aG9uJywgJy1waHQnLCAnMi4wJywgJy1waCcsICc3LjAnLCAnLXRuJywgJzgnLCAnLW1hJywgJzIwMCcsICctaW1hZScsICc8aW5maWxlLm1hZT4nLCAnLW9tYWUnLCAnPG91dGZpbGUubWFlPic=

>  <r_lp_tautomer_probability>  (150) 
0.641916

>  <r_epik_Ionization_Penalty>  (150) 
0.000527663

>  <r_epik_Ionization_Penalty_Charging>  (150) 
0

>  <r_epik_Ionization_Penalty_Neutral>  (150) 
0.000527663

>  <r_epik_State_Penalty>  (150) 
0.254028

>  <r_epik_Charging_Adjusted_Penalty>  (150) 
0.254028

>  <i_epik_Tot_Q>  (150) 
0

>  <i_epik_Tot_abs_Q>  (150) 
0

>  <s_lp_Force_Field>  (150) 
OPLS3e

>  <r_lp_Energy>  (150) 
14.0952

>  <b_lp_Chiralities_Consistent>  (150) 
1

>  <s_lp_Variant>  (150) 
34:0-1

>  <s_i_glide_gridfile>  (150) 
pfpi4k_grid

>  <i_i_glide_lignum>  (150) 
19

>  <i_i_glide_rotatable_bonds>  (150) 
0

>  <r_i_docking_score>  (150) 
-4.35584

>  <r_i_glide_ligand_efficiency>  (150) 
-0.483982

>  <r_i_glide_ligand_efficiency_sa>  (150) 
-1.00672

>  <r_i_glide_ligand_efficiency_ln>  (150) 
-1.36238

>  <r_i_glide_gscore>  (150) 
-4.35584

>  <r_i_glide_lipo>  (150) 
-0.482022

>  <r_i_glide_hbond>  (150) 
-0.32

>  <r_i_glide_metal>  (150) 
-0

>  <r_i_glide_rewards>  (150) 
-2.25

>  <r_i_glide_evdw>  (150) 
-9.81165

>  <r_i_glide_ecoul>  (150) 
-4.78908

>  <r_i_glide_erotb>  (150) 
0

>  <r_i_glide_esite>  (150) 
-0.0948727

>  <r_i_glide_emodel>  (150) 
-20.5927

>  <r_i_glide_energy>  (150) 
-14.6007

>  <r_i_glide_einternal>  (150) 
0

>  <r_i_glide_intrahb_reward>  (150) 
-0

>  <i_i_glide_confnum>  (150) 
2

>  <i_i_glide_posenum>  (150) 
37

>  <r_i_glide_eff_state_penalty>  (150) 
0

>  <ligand_id>  (150) 
34

>  <original_smiles>  (150) 
c1cnc2[nH]cnc2c1

>  <smiles>  (150) 
[H]c1nc2nc([H])n([H])c2c([H])c1[H]

$$$$
34:0:2
     RDKit          3D

 14 15  0  0  1  0  0  0  0  0999 V2000
    3.4858   -1.3882   -3.9251 C   0  0  0  0  0  0  0  0  0  0  0  0
    4.2038   -0.4499   -3.1517 C   0  0  0  0  0  0  0  0  0  0  0  0
    4.6415   -0.6612   -1.8886 N   0  0  0  0  0  0  0  0  0  0  0  0
    4.3085   -1.8267   -1.3306 C   0  0  0  0  0  0  0  0  0  0  0  0
    4.6399   -2.2557   -0.0527 N   0  0  0  0  0  0  0  0  0  0  0  0
    4.0994   -3.4789    0.0382 C   0  0  0  0  0  0  0  0  0  0  0  0
    3.4686   -3.8557   -1.1188 N   0  0  0  0  0  0  0  0  0  0  0  0
    3.5798   -2.8319   -2.0119 C   0  0  0  0  0  0  0  0  0  0  0  0
    3.1612   -2.6257   -3.3364 C   0  0  0  0  0  0  0  0  0  0  0  0
    3.0297   -4.7472   -1.3246 H   0  0  0  0  0  0  0  0  0  0  0  0
    3.1728   -1.1435   -4.9325 H   0  0  0  0  0  0  0  0  0  0  0  0
    4.4477    0.5146   -3.5661 H   0  0  0  0  0  0  0  0  0  0  0  0
    4.1868   -4.0994    0.9241 H   0  0  0  0  0  0  0  0  0  0  0  0
    2.6023   -3.3815   -3.8769 H   0  0  0  0  0  0  0  0  0  0  0  0
  1  9  2  0
  1 11  1  0
  1  2  1  0
  2 12  1  0
  2  3  2  0
  3  4  1  0
  4  5  1  0
  4  8  2  0
  5  6  2  0
  6 13  1  0
  6  7  1  0
  7 10  1  0
  7  8  1  0
  8  9  1  0
  9 14  1  0
M  END
>  <i_m_ct_stereo_status>  (151) 
1

>  <s_m_source_file>  (151) 
/var/tmp/pbs.5076255.sched01/tmpuxvxg9lz/41q4u19exn.sdf

>  <i_m_source_file_index>  (151) 
19

>  <i_lp_mmshare_version>  (151) 
48012

>  <i_f3d_flags>  (151) 
0

>  <s_epik_input>  (151) 
bjFbY0hdW2NIXVtjSF1jKGMxMiluW2NIXVtuSF0y

>  <s_epik_cmdline>  (151) 
J2VwaWtfcHl0aG9uJywgJy1waHQnLCAnMi4wJywgJy1waCcsICc3LjAnLCAnLXRuJywgJzgnLCAnLW1hJywgJzIwMCcsICctaW1hZScsICc8aW5maWxlLm1hZT4nLCAnLW9tYWUnLCAnPG91dGZpbGUubWFlPic=

>  <r_lp_tautomer_probability>  (151) 
0.641916

>  <r_epik_Ionization_Penalty>  (151) 
0.000527663

>  <r_epik_Ionization_Penalty_Charging>  (151) 
0

>  <r_epik_Ionization_Penalty_Neutral>  (151) 
0.000527663

>  <r_epik_State_Penalty>  (151) 
0.254028

>  <r_epik_Charging_Adjusted_Penalty>  (151) 
0.254028

>  <i_epik_Tot_Q>  (151) 
0

>  <i_epik_Tot_abs_Q>  (151) 
0

>  <s_lp_Force_Field>  (151) 
OPLS3e

>  <r_lp_Energy>  (151) 
14.0952

>  <b_lp_Chiralities_Consistent>  (151) 
1

>  <s_lp_Variant>  (151) 
34:0-1

>  <s_i_glide_gridfile>  (151) 
pfpi4k_grid

>  <i_i_glide_lignum>  (151) 
19

>  <i_i_glide_rotatable_bonds>  (151) 
0

>  <r_i_docking_score>  (151) 
-4.34933

>  <r_i_glide_ligand_efficiency>  (151) 
-0.483259

>  <r_i_glide_ligand_efficiency_sa>  (151) 
-1.00522

>  <r_i_glide_ligand_efficiency_ln>  (151) 
-1.36035

>  <r_i_glide_gscore>  (151) 
-4.34933

>  <r_i_glide_lipo>  (151) 
-0.440344

>  <r_i_glide_hbond>  (151) 
-0.275784

>  <r_i_glide_metal>  (151) 
-0

>  <r_i_glide_rewards>  (151) 
-2.28321

>  <r_i_glide_evdw>  (151) 
-14.4458

>  <r_i_glide_ecoul>  (151) 
-3.87718

>  <r_i_glide_erotb>  (151) 
0

>  <r_i_glide_esite>  (151) 
-0.0461248

>  <r_i_glide_emodel>  (151) 
-24.3242

>  <r_i_glide_energy>  (151) 
-18.323

>  <r_i_glide_einternal>  (151) 
0

>  <r_i_glide_intrahb_reward>  (151) 
-0

>  <i_i_glide_confnum>  (151) 
2

>  <i_i_glide_posenum>  (151) 
39

>  <r_i_glide_eff_state_penalty>  (151) 
0

>  <ligand_id>  (151) 
34

>  <original_smiles>  (151) 
c1cnc2[nH]cnc2c1

>  <smiles>  (151) 
[H]c1nc2nc([H])n([H])c2c([H])c1[H]

$$$$
34:1:0
     RDKit          3D

 14 15  0  0  1  0  0  0  0  0999 V2000
    5.5871   -3.4289   -1.2638 C   0  0  0  0  0  0  0  0  0  0  0  0
    5.5442   -2.1928   -0.5817 C   0  0  0  0  0  0  0  0  0  0  0  0
    5.0019   -1.0555   -1.0826 N   0  0  0  0  0  0  0  0  0  0  0  0
    4.4442   -1.1968   -2.3231 C   0  0  0  0  0  0  0  0  0  0  0  0
    3.8130   -0.2520   -3.1171 N   0  0  0  0  0  0  0  0  0  0  0  0
    3.4554   -0.8898   -4.2448 C   0  0  0  0  0  0  0  0  0  0  0  0
    3.7806   -2.1785   -4.3154 N   0  0  0  0  0  0  0  0  0  0  0  0
    4.4080   -2.3859   -3.1068 C   0  0  0  0  0  0  0  0  0  0  0  0
    5.0116   -3.5299   -2.5497 C   0  0  0  0  0  0  0  0  0  0  0  0
    3.5940    0.7146   -2.9037 H   0  0  0  0  0  0  0  0  0  0  0  0
    6.0372   -4.2925   -0.7990 H   0  0  0  0  0  0  0  0  0  0  0  0
    5.9640   -2.1001    0.4122 H   0  0  0  0  0  0  0  0  0  0  0  0
    2.9417   -0.3924   -5.0545 H   0  0  0  0  0  0  0  0  0  0  0  0
    5.0165   -4.4611   -3.1004 H   0  0  0  0  0  0  0  0  0  0  0  0
  1  9  2  0
  1  2  1  0
  1 11  1  0
  2  3  2  0
  2 12  1  0
  3  4  1  0
  4  8  2  0
  4  5  1  0
  5 10  1  0
  5  6  1  0
  6  7  2  0
  6 13  1  0
  7  8  1  0
  8  9  1  0
  9 14  1  0
M  END
>  <i_m_ct_stereo_status>  (152) 
1

>  <s_m_source_file>  (152) 
/var/tmp/pbs.5076255.sched01/tmpuxvxg9lz/41q4u19exn.sdf

>  <i_m_source_file_index>  (152) 
20

>  <i_lp_mmshare_version>  (152) 
48012

>  <i_f3d_flags>  (152) 
0

>  <s_epik_input>  (152) 
bjFbY0hdW2NIXVtjSF1jKGMxMiluW2NIXVtuSF0y

>  <s_epik_cmdline>  (152) 
J2VwaWtfcHl0aG9uJywgJy1waHQnLCAnMi4wJywgJy1waCcsICc3LjAnLCAnLXRuJywgJzgnLCAnLW1hJywgJzIwMCcsICctaW1hZScsICc8aW5maWxlLm1hZT4nLCAnLW9tYWUnLCAnPG91dGZpbGUubWFlPic=

>  <r_lp_tautomer_probability>  (152) 
0.357409

>  <r_epik_Ionization_Penalty>  (152) 
0.00121961

>  <r_epik_Ionization_Penalty_Charging>  (152) 
0.00109014

>  <r_epik_Ionization_Penalty_Neutral>  (152) 
0.000129468

>  <r_epik_State_Penalty>  (152) 
0.624248

>  <r_epik_Charging_Adjusted_Penalty>  (152) 
0.625338

>  <i_epik_Tot_Q>  (152) 
0

>  <i_epik_Tot_abs_Q>  (152) 
0

>  <s_lp_Force_Field>  (152) 
OPLS3e

>  <r_lp_Energy>  (152) 
12.9712

>  <b_lp_Chiralities_Consistent>  (152) 
1

>  <s_lp_Variant>  (152) 
34:0-2

>  <s_i_glide_gridfile>  (152) 
pfpi4k_grid

>  <i_i_glide_lignum>  (152) 
20

>  <i_i_glide_rotatable_bonds>  (152) 
0

>  <r_i_docking_score>  (152) 
-4.82859

>  <r_i_glide_ligand_efficiency>  (152) 
-0.53651

>  <r_i_glide_ligand_efficiency_sa>  (152) 
-1.11599

>  <r_i_glide_ligand_efficiency_ln>  (152) 
-1.51024

>  <r_i_glide_gscore>  (152) 
-4.82859

>  <r_i_glide_lipo>  (152) 
-0.336278

>  <r_i_glide_hbond>  (152) 
-0.474973

>  <r_i_glide_metal>  (152) 
-0

>  <r_i_glide_rewards>  (152) 
-2.42202

>  <r_i_glide_evdw>  (152) 
-17.6268

>  <r_i_glide_ecoul>  (152) 
-4.52387

>  <r_i_glide_erotb>  (152) 
0

>  <r_i_glide_esite>  (152) 
-0.035403

>  <r_i_glide_emodel>  (152) 
-28.9753

>  <r_i_glide_energy>  (152) 
-22.1507

>  <r_i_glide_einternal>  (152) 
0

>  <r_i_glide_intrahb_reward>  (152) 
-0

>  <i_i_glide_confnum>  (152) 
1

>  <i_i_glide_posenum>  (152) 
3

>  <r_i_glide_eff_state_penalty>  (152) 
0

>  <ligand_id>  (152) 
34

>  <original_smiles>  (152) 
c1cnc2[nH]cnc2c1

>  <smiles>  (152) 
[H]c1nc2c(nc([H])n2[H])c([H])c1[H]

$$$$
34:1:1
     RDKit          3D

 14 15  0  0  1  0  0  0  0  0999 V2000
    2.3268   -3.3687   -2.2597 C   0  0  0  0  0  0  0  0  0  0  0  0
    3.1221   -2.8280   -1.2185 C   0  0  0  0  0  0  0  0  0  0  0  0
    3.8485   -1.6924   -1.3402 N   0  0  0  0  0  0  0  0  0  0  0  0
    3.7040   -1.0766   -2.5526 C   0  0  0  0  0  0  0  0  0  0  0  0
    4.2198    0.1377   -2.9640 N   0  0  0  0  0  0  0  0  0  0  0  0
    3.8167    0.3207   -4.2285 C   0  0  0  0  0  0  0  0  0  0  0  0
    3.0620   -0.6317   -4.7326 N   0  0  0  0  0  0  0  0  0  0  0  0
    2.9756   -1.5235   -3.6829 C   0  0  0  0  0  0  0  0  0  0  0  0
    2.2734   -2.7344   -3.5158 C   0  0  0  0  0  0  0  0  0  0  0  0
    4.7521    0.7809   -2.3925 H   0  0  0  0  0  0  0  0  0  0  0  0
    1.7646   -4.2750   -2.1097 H   0  0  0  0  0  0  0  0  0  0  0  0
    3.1642   -3.3256   -0.2579 H   0  0  0  0  0  0  0  0  0  0  0  0
    4.0777    1.1860   -4.8165 H   0  0  0  0  0  0  0  0  0  0  0  0
    1.6659   -3.1287   -4.3132 H   0  0  0  0  0  0  0  0  0  0  0  0
  1  9  2  0
  1  2  1  0
  1 11  1  0
  2  3  2  0
  2 12  1  0
  3  4  1  0
  4  8  2  0
  4  5  1  0
  5 10  1  0
  5  6  1  0
  6  7  2  0
  6 13  1  0
  7  8  1  0
  8  9  1  0
  9 14  1  0
M  END
>  <i_m_ct_stereo_status>  (153) 
1

>  <s_m_source_file>  (153) 
/var/tmp/pbs.5076255.sched01/tmpuxvxg9lz/41q4u19exn.sdf

>  <i_m_source_file_index>  (153) 
20

>  <i_lp_mmshare_version>  (153) 
48012

>  <i_f3d_flags>  (153) 
0

>  <s_epik_input>  (153) 
bjFbY0hdW2NIXVtjSF1jKGMxMiluW2NIXVtuSF0y

>  <s_epik_cmdline>  (153) 
J2VwaWtfcHl0aG9uJywgJy1waHQnLCAnMi4wJywgJy1waCcsICc3LjAnLCAnLXRuJywgJzgnLCAnLW1hJywgJzIwMCcsICctaW1hZScsICc8aW5maWxlLm1hZT4nLCAnLW9tYWUnLCAnPG91dGZpbGUubWFlPic=

>  <r_lp_tautomer_probability>  (153) 
0.357409

>  <r_epik_Ionization_Penalty>  (153) 
0.00121961

>  <r_epik_Ionization_Penalty_Charging>  (153) 
0.00109014

>  <r_epik_Ionization_Penalty_Neutral>  (153) 
0.000129468

>  <r_epik_State_Penalty>  (153) 
0.624248

>  <r_epik_Charging_Adjusted_Penalty>  (153) 
0.625338

>  <i_epik_Tot_Q>  (153) 
0

>  <i_epik_Tot_abs_Q>  (153) 
0

>  <s_lp_Force_Field>  (153) 
OPLS3e

>  <r_lp_Energy>  (153) 
12.9712

>  <b_lp_Chiralities_Consistent>  (153) 
1

>  <s_lp_Variant>  (153) 
34:0-2

>  <s_i_glide_gridfile>  (153) 
pfpi4k_grid

>  <i_i_glide_lignum>  (153) 
20

>  <i_i_glide_rotatable_bonds>  (153) 
0

>  <r_i_docking_score>  (153) 
-4.28311

>  <r_i_glide_ligand_efficiency>  (153) 
-0.475901

>  <r_i_glide_ligand_efficiency_sa>  (153) 
-0.989913

>  <r_i_glide_ligand_efficiency_ln>  (153) 
-1.33963

>  <r_i_glide_gscore>  (153) 
-4.28311

>  <r_i_glide_lipo>  (153) 
-0.632518

>  <r_i_glide_hbond>  (153) 
-0.32

>  <r_i_glide_metal>  (153) 
-0

>  <r_i_glide_rewards>  (153) 
-2.36774

>  <r_i_glide_evdw>  (153) 
-12.724

>  <r_i_glide_ecoul>  (153) 
-1.93523

>  <r_i_glide_erotb>  (153) 
0

>  <r_i_glide_esite>  (153) 
-0.0363631

>  <r_i_glide_emodel>  (153) 
-20.625

>  <r_i_glide_energy>  (153) 
-14.6592

>  <r_i_glide_einternal>  (153) 
0

>  <r_i_glide_intrahb_reward>  (153) 
-0

>  <i_i_glide_confnum>  (153) 
2

>  <i_i_glide_posenum>  (153) 
14

>  <r_i_glide_eff_state_penalty>  (153) 
0

>  <ligand_id>  (153) 
34

>  <original_smiles>  (153) 
c1cnc2[nH]cnc2c1

>  <smiles>  (153) 
[H]c1nc2c(nc([H])n2[H])c([H])c1[H]

$$$$
34:1:2
     RDKit          3D

 14 15  0  0  1  0  0  0  0  0999 V2000
    3.0428   -2.2556   -3.7419 C   0  0  0  0  0  0  0  0  0  0  0  0
    4.0327   -1.2744   -3.5169 C   0  0  0  0  0  0  0  0  0  0  0  0
    4.6255   -1.0450   -2.3209 N   0  0  0  0  0  0  0  0  0  0  0  0
    4.1629   -1.8375   -1.3093 C   0  0  0  0  0  0  0  0  0  0  0  0
    4.5571   -1.8546    0.0167 N   0  0  0  0  0  0  0  0  0  0  0  0
    3.8178   -2.8106    0.6081 C   0  0  0  0  0  0  0  0  0  0  0  0
    2.9585   -3.4714   -0.1663 N   0  0  0  0  0  0  0  0  0  0  0  0
    3.1685   -2.8583   -1.3944 C   0  0  0  0  0  0  0  0  0  0  0  0
    2.5982   -3.0558   -2.6681 C   0  0  0  0  0  0  0  0  0  0  0  0
    5.2365   -1.2689    0.4729 H   0  0  0  0  0  0  0  0  0  0  0  0
    2.6107   -2.3878   -4.7162 H   0  0  0  0  0  0  0  0  0  0  0  0
    4.3704   -0.6546   -4.3364 H   0  0  0  0  0  0  0  0  0  0  0  0
    3.9149   -3.0403    1.6565 H   0  0  0  0  0  0  0  0  0  0  0  0
    1.8368   -3.8101   -2.8120 H   0  0  0  0  0  0  0  0  0  0  0  0
  1  9  2  0
  1  2  1  0
  1 11  1  0
  2  3  2  0
  2 12  1  0
  3  4  1  0
  4  8  2  0
  4  5  1  0
  5 10  1  0
  5  6  1  0
  6  7  2  0
  6 13  1  0
  7  8  1  0
  8  9  1  0
  9 14  1  0
M  END
>  <i_m_ct_stereo_status>  (154) 
1

>  <s_m_source_file>  (154) 
/var/tmp/pbs.5076255.sched01/tmpuxvxg9lz/41q4u19exn.sdf

>  <i_m_source_file_index>  (154) 
20

>  <i_lp_mmshare_version>  (154) 
48012

>  <i_f3d_flags>  (154) 
0

>  <s_epik_input>  (154) 
bjFbY0hdW2NIXVtjSF1jKGMxMiluW2NIXVtuSF0y

>  <s_epik_cmdline>  (154) 
J2VwaWtfcHl0aG9uJywgJy1waHQnLCAnMi4wJywgJy1waCcsICc3LjAnLCAnLXRuJywgJzgnLCAnLW1hJywgJzIwMCcsICctaW1hZScsICc8aW5maWxlLm1hZT4nLCAnLW9tYWUnLCAnPG91dGZpbGUubWFlPic=

>  <r_lp_tautomer_probability>  (154) 
0.357409

>  <r_epik_Ionization_Penalty>  (154) 
0.00121961

>  <r_epik_Ionization_Penalty_Charging>  (154) 
0.00109014

>  <r_epik_Ionization_Penalty_Neutral>  (154) 
0.000129468

>  <r_epik_State_Penalty>  (154) 
0.624248

>  <r_epik_Charging_Adjusted_Penalty>  (154) 
0.625338

>  <i_epik_Tot_Q>  (154) 
0

>  <i_epik_Tot_abs_Q>  (154) 
0

>  <s_lp_Force_Field>  (154) 
OPLS3e

>  <r_lp_Energy>  (154) 
12.9712

>  <b_lp_Chiralities_Consistent>  (154) 
1

>  <s_lp_Variant>  (154) 
34:0-2

>  <s_i_glide_gridfile>  (154) 
pfpi4k_grid

>  <i_i_glide_lignum>  (154) 
20

>  <i_i_glide_rotatable_bonds>  (154) 
0

>  <r_i_docking_score>  (154) 
-3.68065

>  <r_i_glide_ligand_efficiency>  (154) 
-0.408961

>  <r_i_glide_ligand_efficiency_sa>  (154) 
-0.850674

>  <r_i_glide_ligand_efficiency_ln>  (154) 
-1.1512

>  <r_i_glide_gscore>  (154) 
-3.68065

>  <r_i_glide_lipo>  (154) 
-0.416875

>  <r_i_glide_hbond>  (154) 
0

>  <r_i_glide_metal>  (154) 
-0

>  <r_i_glide_rewards>  (154) 
-2.25

>  <r_i_glide_evdw>  (154) 
-15.5301

>  <r_i_glide_ecoul>  (154) 
-1.19952

>  <r_i_glide_erotb>  (154) 
0

>  <r_i_glide_esite>  (154) 
-0.0573415

>  <r_i_glide_emodel>  (154) 
-21.9348

>  <r_i_glide_energy>  (154) 
-16.7297

>  <r_i_glide_einternal>  (154) 
0

>  <r_i_glide_intrahb_reward>  (154) 
-0

>  <i_i_glide_confnum>  (154) 
1

>  <i_i_glide_posenum>  (154) 
8

>  <r_i_glide_eff_state_penalty>  (154) 
0

>  <ligand_id>  (154) 
34

>  <original_smiles>  (154) 
c1cnc2[nH]cnc2c1

>  <smiles>  (154) 
[H]c1nc2c(nc([H])n2[H])c([H])c1[H]

$$$$
35:0:0
     RDKit          3D

 32 35  0  0  1  0  0  0  0  0999 V2000
    6.7963   -2.6294    0.7492 C   0  0  0  0  0  0  0  0  0  0  0  0
    5.8572   -3.0771   -0.3833 C   0  0  2  0  0  0  0  0  0  0  0  0
    5.0090   -1.8734   -0.9240 C   0  0  2  0  0  0  0  0  0  0  0  0
    3.7062   -1.7945   -0.0849 C   0  0  0  0  0  0  0  0  0  0  0  0
    2.8745   -3.0147   -0.5509 C   0  0  2  0  0  0  0  0  0  0  0  0
    3.5986   -4.2144   -0.0153 C   0  0  0  0  0  0  0  0  0  0  0  0
    3.2359   -5.4297    0.4821 C   0  0  0  0  0  0  0  0  0  0  0  0
    1.8599   -6.0014    0.6173 C   0  0  0  0  0  0  0  0  0  0  0  0
    1.0097   -5.7445   -0.2616 O   0  0  0  0  0  0  0  0  0  0  0  0
    1.6107   -6.7327    1.5988 O   0  0  0  0  0  0  0  0  0  0  0  0
    4.4440   -6.1005    0.7991 C   0  0  0  0  0  0  0  0  0  0  0  0
    5.5036   -5.3497    0.5258 N   0  0  0  0  0  0  0  0  0  0  0  0
    4.9875   -4.1853    0.0534 N   0  0  0  0  0  0  0  0  0  0  0  0
    2.8127   -2.9912   -2.1119 C   0  0  2  0  0  0  0  0  0  0  0  0
    4.0898   -3.4385   -2.8559 C   0  0  0  0  0  0  0  0  0  0  0  0
    4.6148   -2.0523   -2.4260 C   0  0  1  0  0  0  0  0  0  0  0  0
    3.1716   -1.6489   -2.8066 C   0  0  0  0  0  0  0  0  0  0  0  0
    7.4596   -1.8301    0.4164 H   0  0  0  0  0  0  0  0  0  0  0  0
    7.4276   -3.4525    1.0877 H   0  0  0  0  0  0  0  0  0  0  0  0
    6.2403   -2.2587    1.6151 H   0  0  0  0  0  0  0  0  0  0  0  0
    6.4845   -3.4521   -1.1912 H   0  0  0  0  0  0  0  0  0  0  0  0
    5.5667   -0.9418   -0.8116 H   0  0  0  0  0  0  0  0  0  0  0  0
    3.9014   -1.8257    0.9891 H   0  0  0  0  0  0  0  0  0  0  0  0
    3.1766   -0.8582   -0.2529 H   0  0  0  0  0  0  0  0  0  0  0  0
    1.8741   -2.9659   -0.1285 H   0  0  0  0  0  0  0  0  0  0  0  0
    4.5767   -7.1040    1.1730 H   0  0  0  0  0  0  0  0  0  0  0  0
    1.9249   -3.4641   -2.5315 H   0  0  0  0  0  0  0  0  0  0  0  0
    4.6101   -4.3015   -2.4464 H   0  0  0  0  0  0  0  0  0  0  0  0
    3.9611   -3.5716   -3.9369 H   0  0  0  0  0  0  0  0  0  0  0  0
    5.3559   -1.6871   -3.1253 H   0  0  0  0  0  0  0  0  0  0  0  0
    2.9626   -1.6196   -3.8836 H   0  0  0  0  0  0  0  0  0  0  0  0
    2.7765   -0.7472   -2.3321 H   0  0  0  0  0  0  0  0  0  0  0  0
  1  2  1  0
  1 18  1  0
  1 19  1  0
  1 20  1  0
  2 13  1  0
  2  3  1  0
  2 21  1  6
  3 16  1  0
  3  4  1  0
  3 22  1  6
  4  5  1  0
  4 23  1  0
  4 24  1  0
  5  6  1  0
  5 14  1  0
  5 25  1  1
  6 13  1  0
  6  7  2  0
  7  8  1  0
  7 11  1  0
  8  9  2  0
  8 10  1  0
 11 12  2  0
 11 26  1  0
 12 13  1  0
 14 17  1  0
 14 15  1  0
 14 27  1  6
 15 16  1  0
 15 28  1  0
 15 29  1  0
 16 17  1  0
 16 30  1  6
 17 31  1  0
 17 32  1  0
M  CHG  1  10  -1
M  END
>  <i_m_ct_stereo_status>  (155) 
1

>  <s_m_source_file>  (155) 
/var/tmp/pbs.5076255.sched01/tmpuxvxg9lz/41q4u19exn.sdf

>  <i_m_source_file_index>  (155) 
21

>  <i_lp_mmshare_version>  (155) 
48012

>  <i_f3d_flags>  (155) 
0

>  <s_epik_input>  (155) 
Tz1DKFtPSF0pYzFbY0hdbm4oW0NAQEhdMltDSDNdKWMxW0NAQEhdKFtDSDJdMylbQ0BASF0oW0NIMl00KVtDSDJdW0NAQEhdNFtDQEhdMjM=

>  <s_epik_cmdline>  (155) 
J2VwaWtfcHl0aG9uJywgJy1waHQnLCAnMi4wJywgJy1waCcsICc3LjAnLCAnLXRuJywgJzgnLCAnLW1hJywgJzIwMCcsICctaW1hZScsICc8aW5maWxlLm1hZT4nLCAnLW9tYWUnLCAnPG91dGZpbGUubWFlPic=

>  <r_epik_Ionization_Penalty>  (155) 
0.0218568

>  <r_epik_Ionization_Penalty_Charging>  (155) 
0.00409114

>  <r_epik_Ionization_Penalty_Neutral>  (155) 
0.0177657

>  <r_epik_State_Penalty>  (155) 
0.0169643

>  <r_epik_Charging_Adjusted_Penalty>  (155) 
0.0210554

>  <i_epik_Tot_Q>  (155) 
-1

>  <i_epik_Tot_abs_Q>  (155) 
1

>  <s_lp_Force_Field>  (155) 
OPLS3e

>  <r_lp_Energy>  (155) 
48.8884

>  <b_lp_Chiralities_Consistent>  (155) 
1

>  <s_lp_Variant>  (155) 
35:0-1

>  <s_i_glide_gridfile>  (155) 
pfpi4k_grid

>  <i_i_glide_lignum>  (155) 
21

>  <i_i_glide_rotatable_bonds>  (155) 
1

>  <r_i_docking_score>  (155) 
-3.9851

>  <r_i_glide_ligand_efficiency>  (155) 
-0.234418

>  <r_i_glide_ligand_efficiency_sa>  (155) 
-0.602754

>  <r_i_glide_ligand_efficiency_ln>  (155) 
-1.03962

>  <r_i_glide_gscore>  (155) 
-3.9851

>  <r_i_glide_lipo>  (155) 
-0.25998

>  <r_i_glide_hbond>  (155) 
-0.32952

>  <r_i_glide_metal>  (155) 
-0

>  <r_i_glide_rewards>  (155) 
-1.89772

>  <r_i_glide_evdw>  (155) 
-20.4492

>  <r_i_glide_ecoul>  (155) 
-2.76019

>  <r_i_glide_erotb>  (155) 
0

>  <r_i_glide_esite>  (155) 
-0.0613931

>  <r_i_glide_emodel>  (155) 
-29.1732

>  <r_i_glide_energy>  (155) 
-23.2094

>  <r_i_glide_einternal>  (155) 
2.48641

>  <r_i_glide_intrahb_reward>  (155) 
-0

>  <i_i_glide_confnum>  (155) 
2

>  <i_i_glide_posenum>  (155) 
16

>  <r_i_glide_eff_state_penalty>  (155) 
0

>  <ligand_id>  (155) 
35

>  <original_smiles>  (155) 
CC1C2CC(c3c(C(=O)O)cnn31)C1CC2C1

>  <smiles>  (155) 
[H]c1nn2c(c1C(=O)[O-])C1([H])C([H])([H])C([H])(C2([H])C([H])([H])[H])C2([H])C([H])([H])C1([H])C2([H])[H]

$$$$
35:0:1
     RDKit          3D

 32 35  0  0  1  0  0  0  0  0999 V2000
    7.5214   -2.8905   -0.3700 C   0  0  0  0  0  0  0  0  0  0  0  0
    6.2341   -3.2156   -1.1582 C   0  0  2  0  0  0  0  0  0  0  0  0
    5.4980   -1.9204   -1.6199 C   0  0  2  0  0  0  0  0  0  0  0  0
    4.5132   -1.5092   -0.4997 C   0  0  0  0  0  0  0  0  0  0  0  0
    3.3878   -2.5583   -0.5673 C   0  0  2  0  0  0  0  0  0  0  0  0
    4.0010   -3.8336   -0.1015 C   0  0  0  0  0  0  0  0  0  0  0  0
    3.5802   -4.9319    0.5871 C   0  0  0  0  0  0  0  0  0  0  0  0
    2.2154   -5.2025    1.1559 C   0  0  0  0  0  0  0  0  0  0  0  0
    1.3764   -5.8397    0.4927 O   0  0  0  0  0  0  0  0  0  0  0  0
    1.9415   -4.7379    2.2843 O   0  0  0  0  0  0  0  0  0  0  0  0
    4.6840   -5.8166    0.6837 C   0  0  0  0  0  0  0  0  0  0  0  0
    5.7564   -5.2895    0.0987 N   0  0  0  0  0  0  0  0  0  0  0  0
    5.3333   -4.0831   -0.3760 N   0  0  0  0  0  0  0  0  0  0  0  0
    2.9208   -2.6495   -2.0548 C   0  0  2  0  0  0  0  0  0  0  0  0
    3.8292   -3.3998   -3.0438 C   0  0  0  0  0  0  0  0  0  0  0  0
    4.6806   -2.1315   -2.9266 C   0  0  1  0  0  0  0  0  0  0  0  0
    3.2938   -1.4707   -2.9968 C   0  0  0  0  0  0  0  0  0  0  0  0
    8.2030   -2.2804   -0.9665 H   0  0  0  0  0  0  0  0  0  0  0  0
    8.0649   -3.8000   -0.1042 H   0  0  0  0  0  0  0  0  0  0  0  0
    7.3023   -2.3508    0.5492 H   0  0  0  0  0  0  0  0  0  0  0  0
    6.5417   -3.7757   -2.0421 H   0  0  0  0  0  0  0  0  0  0  0  0
    6.2126   -1.1229   -1.7820 H   0  0  0  0  0  0  0  0  0  0  0  0
    4.9904   -1.4960    0.4845 H   0  0  0  0  0  0  0  0  0  0  0  0
    4.1439   -0.4956   -0.6519 H   0  0  0  0  0  0  0  0  0  0  0  0
    2.5663   -2.2709    0.0798 H   0  0  0  0  0  0  0  0  0  0  0  0
    4.7433   -6.7919    1.1545 H   0  0  0  0  0  0  0  0  0  0  0  0
    1.8868   -2.9615   -2.1888 H   0  0  0  0  0  0  0  0  0  0  0  0
    4.3005   -4.2880   -2.6550 H   0  0  0  0  0  0  0  0  0  0  0  0
    3.3885   -3.5958   -4.0366 H   0  0  0  0  0  0  0  0  0  0  0  0
    5.2299   -1.9891   -3.8408 H   0  0  0  0  0  0  0  0  0  0  0  0
    2.8066   -1.4895   -3.9883 H   0  0  0  0  0  0  0  0  0  0  0  0
    3.2185   -0.4807   -2.5514 H   0  0  0  0  0  0  0  0  0  0  0  0
  1  2  1  0
  1 18  1  0
  1 19  1  0
  1 20  1  0
  2 13  1  0
  2  3  1  0
  2 21  1  6
  3 16  1  0
  3  4  1  0
  3 22  1  6
  4  5  1  0
  4 23  1  0
  4 24  1  0
  5  6  1  0
  5 14  1  0
  5 25  1  1
  6 13  1  0
  6  7  2  0
  7  8  1  0
  7 11  1  0
  8  9  2  0
  8 10  1  0
 11 12  2  0
 11 26  1  0
 12 13  1  0
 14 17  1  0
 14 15  1  0
 14 27  1  1
 15 16  1  0
 15 28  1  0
 15 29  1  0
 16 17  1  0
 16 30  1  6
 17 31  1  0
 17 32  1  0
M  CHG  1  10  -1
M  END
>  <i_m_ct_stereo_status>  (156) 
1

>  <s_m_source_file>  (156) 
/var/tmp/pbs.5076255.sched01/tmpuxvxg9lz/41q4u19exn.sdf

>  <i_m_source_file_index>  (156) 
21

>  <i_lp_mmshare_version>  (156) 
48012

>  <i_f3d_flags>  (156) 
0

>  <s_epik_input>  (156) 
Tz1DKFtPSF0pYzFbY0hdbm4oW0NAQEhdMltDSDNdKWMxW0NAQEhdKFtDSDJdMylbQ0BASF0oW0NIMl00KVtDSDJdW0NAQEhdNFtDQEhdMjM=

>  <s_epik_cmdline>  (156) 
J2VwaWtfcHl0aG9uJywgJy1waHQnLCAnMi4wJywgJy1waCcsICc3LjAnLCAnLXRuJywgJzgnLCAnLW1hJywgJzIwMCcsICctaW1hZScsICc8aW5maWxlLm1hZT4nLCAnLW9tYWUnLCAnPG91dGZpbGUubWFlPic=

>  <r_epik_Ionization_Penalty>  (156) 
0.0218568

>  <r_epik_Ionization_Penalty_Charging>  (156) 
0.00409114

>  <r_epik_Ionization_Penalty_Neutral>  (156) 
0.0177657

>  <r_epik_State_Penalty>  (156) 
0.0169643

>  <r_epik_Charging_Adjusted_Penalty>  (156) 
0.0210554

>  <i_epik_Tot_Q>  (156) 
-1

>  <i_epik_Tot_abs_Q>  (156) 
1

>  <s_lp_Force_Field>  (156) 
OPLS3e

>  <r_lp_Energy>  (156) 
48.8884

>  <b_lp_Chiralities_Consistent>  (156) 
1

>  <s_lp_Variant>  (156) 
35:0-1

>  <s_i_glide_gridfile>  (156) 
pfpi4k_grid

>  <i_i_glide_lignum>  (156) 
21

>  <i_i_glide_rotatable_bonds>  (156) 
1

>  <r_i_docking_score>  (156) 
-3.71278

>  <r_i_glide_ligand_efficiency>  (156) 
-0.218399

>  <r_i_glide_ligand_efficiency_sa>  (156) 
-0.561565

>  <r_i_glide_ligand_efficiency_ln>  (156) 
-0.968583

>  <r_i_glide_gscore>  (156) 
-3.71278

>  <r_i_glide_lipo>  (156) 
-0.34018

>  <r_i_glide_hbond>  (156) 
-0.196208

>  <r_i_glide_metal>  (156) 
-0

>  <r_i_glide_rewards>  (156) 
-1.91237

>  <r_i_glide_evdw>  (156) 
-21.3376

>  <r_i_glide_ecoul>  (156) 
-1.03256

>  <r_i_glide_erotb>  (156) 
0

>  <r_i_glide_esite>  (156) 
-0.0422649

>  <r_i_glide_emodel>  (156) 
-26.1001

>  <r_i_glide_energy>  (156) 
-22.3702

>  <r_i_glide_einternal>  (156) 
7.25897

>  <r_i_glide_intrahb_reward>  (156) 
-0

>  <i_i_glide_confnum>  (156) 
2

>  <i_i_glide_posenum>  (156) 
35

>  <r_i_glide_eff_state_penalty>  (156) 
0

>  <ligand_id>  (156) 
35

>  <original_smiles>  (156) 
CC1C2CC(c3c(C(=O)O)cnn31)C1CC2C1

>  <smiles>  (156) 
[H]c1nn2c(c1C(=O)[O-])C1([H])C([H])([H])C([H])(C2([H])C([H])([H])[H])C2([H])C([H])([H])C1([H])C2([H])[H]

$$$$
35:0:2
     RDKit          3D

 32 35  0  0  1  0  0  0  0  0999 V2000
    5.7057   -5.2078    0.4895 C   0  0  0  0  0  0  0  0  0  0  0  0
    4.6232   -4.3967   -0.2457 C   0  0  2  0  0  0  0  0  0  0  0  0
    5.2291   -3.5770   -1.4266 C   0  0  2  0  0  0  0  0  0  0  0  0
    5.6615   -2.1965   -0.8783 C   0  0  0  0  0  0  0  0  0  0  0  0
    4.3473   -1.4457   -0.6075 C   0  0  2  0  0  0  0  0  0  0  0  0
    3.7224   -2.1495    0.5559 C   0  0  0  0  0  0  0  0  0  0  0  0
    2.9627   -1.7953    1.6189 C   0  0  0  0  0  0  0  0  0  0  0  0
    2.4608   -0.4294    2.0010 C   0  0  0  0  0  0  0  0  0  0  0  0
    1.6306   -0.3365    2.9233 O   0  0  0  0  0  0  0  0  0  0  0  0
    2.9255    0.5666    1.4042 O   0  0  0  0  0  0  0  0  0  0  0  0
    2.6759   -2.9892    2.3493 C   0  0  0  0  0  0  0  0  0  0  0  0
    3.2439   -4.0404    1.7697 N   0  0  0  0  0  0  0  0  0  0  0  0
    3.8957   -3.5238    0.6867 N   0  0  0  0  0  0  0  0  0  0  0  0
    3.4696   -1.5520   -1.8935 C   0  0  2  0  0  0  0  0  0  0  0  0
    2.7722   -2.9034   -2.1641 C   0  0  0  0  0  0  0  0  0  0  0  0
    4.1964   -3.3395   -2.5658 C   0  0  1  0  0  0  0  0  0  0  0  0
    4.1757   -1.9404   -3.2154 C   0  0  0  0  0  0  0  0  0  0  0  0
    6.2141   -5.8722   -0.2064 H   0  0  0  0  0  0  0  0  0  0  0  0
    5.2796   -5.8377    1.2732 H   0  0  0  0  0  0  0  0  0  0  0  0
    6.4613   -4.5654    0.9431 H   0  0  0  0  0  0  0  0  0  0  0  0
    3.9076   -5.1163   -0.6433 H   0  0  0  0  0  0  0  0  0  0  0  0
    6.0879   -4.0953   -1.8394 H   0  0  0  0  0  0  0  0  0  0  0  0
    6.2651   -2.2883    0.0283 H   0  0  0  0  0  0  0  0  0  0  0  0
    6.2887   -1.6715   -1.5947 H   0  0  0  0  0  0  0  0  0  0  0  0
    4.5480   -0.4067   -0.3687 H   0  0  0  0  0  0  0  0  0  0  0  0
    2.0959   -3.1163    3.2573 H   0  0  0  0  0  0  0  0  0  0  0  0
    2.7642   -0.7422   -2.0337 H   0  0  0  0  0  0  0  0  0  0  0  0
    2.3457   -3.3941   -1.2932 H   0  0  0  0  0  0  0  0  0  0  0  0
    2.0294   -2.8931   -2.9845 H   0  0  0  0  0  0  0  0  0  0  0  0
    4.1552   -4.1269   -3.3097 H   0  0  0  0  0  0  0  0  0  0  0  0
    3.5555   -1.8420   -4.1274 H   0  0  0  0  0  0  0  0  0  0  0  0
    5.1392   -1.4761   -3.3511 H   0  0  0  0  0  0  0  0  0  0  0  0
  1  2  1  0
  1 18  1  0
  1 19  1  0
  1 20  1  0
  2 13  1  0
  2  3  1  0
  2 21  1  6
  3 16  1  0
  3  4  1  0
  3 22  1  6
  4  5  1  0
  4 23  1  0
  4 24  1  0
  5  6  1  0
  5 14  1  0
  5 25  1  1
  6 13  1  0
  6  7  2  0
  7  8  1  0
  7 11  1  0
  8  9  2  0
  8 10  1  0
 11 12  2  0
 11 26  1  0
 12 13  1  0
 14 17  1  0
 14 15  1  0
 14 27  1  6
 15 16  1  0
 15 28  1  0
 15 29  1  0
 16 17  1  0
 16 30  1  6
 17 31  1  0
 17 32  1  0
M  CHG  1  10  -1
M  END
>  <i_m_ct_stereo_status>  (157) 
1

>  <s_m_source_file>  (157) 
/var/tmp/pbs.5076255.sched01/tmpuxvxg9lz/41q4u19exn.sdf

>  <i_m_source_file_index>  (157) 
21

>  <i_lp_mmshare_version>  (157) 
48012

>  <i_f3d_flags>  (157) 
0

>  <s_epik_input>  (157) 
Tz1DKFtPSF0pYzFbY0hdbm4oW0NAQEhdMltDSDNdKWMxW0NAQEhdKFtDSDJdMylbQ0BASF0oW0NIMl00KVtDSDJdW0NAQEhdNFtDQEhdMjM=

>  <s_epik_cmdline>  (157) 
J2VwaWtfcHl0aG9uJywgJy1waHQnLCAnMi4wJywgJy1waCcsICc3LjAnLCAnLXRuJywgJzgnLCAnLW1hJywgJzIwMCcsICctaW1hZScsICc8aW5maWxlLm1hZT4nLCAnLW9tYWUnLCAnPG91dGZpbGUubWFlPic=

>  <r_epik_Ionization_Penalty>  (157) 
0.0218568

>  <r_epik_Ionization_Penalty_Charging>  (157) 
0.00409114

>  <r_epik_Ionization_Penalty_Neutral>  (157) 
0.0177657

>  <r_epik_State_Penalty>  (157) 
0.0169643

>  <r_epik_Charging_Adjusted_Penalty>  (157) 
0.0210554

>  <i_epik_Tot_Q>  (157) 
-1

>  <i_epik_Tot_abs_Q>  (157) 
1

>  <s_lp_Force_Field>  (157) 
OPLS3e

>  <r_lp_Energy>  (157) 
48.8884

>  <b_lp_Chiralities_Consistent>  (157) 
1

>  <s_lp_Variant>  (157) 
35:0-1

>  <s_i_glide_gridfile>  (157) 
pfpi4k_grid

>  <i_i_glide_lignum>  (157) 
21

>  <i_i_glide_rotatable_bonds>  (157) 
1

>  <r_i_docking_score>  (157) 
-2.92481

>  <r_i_glide_ligand_efficiency>  (157) 
-0.172048

>  <r_i_glide_ligand_efficiency_sa>  (157) 
-0.442383

>  <r_i_glide_ligand_efficiency_ln>  (157) 
-0.763018

>  <r_i_glide_gscore>  (157) 
-2.92481

>  <r_i_glide_lipo>  (157) 
-0.298363

>  <r_i_glide_hbond>  (157) 
0

>  <r_i_glide_metal>  (157) 
-0

>  <r_i_glide_rewards>  (157) 
-1.84425

>  <r_i_glide_evdw>  (157) 
-20.5

>  <r_i_glide_ecoul>  (157) 
1.89699

>  <r_i_glide_erotb>  (157) 
0

>  <r_i_glide_esite>  (157) 
-0.0417455

>  <r_i_glide_emodel>  (157) 
-24.2262

>  <r_i_glide_energy>  (157) 
-18.603

>  <r_i_glide_einternal>  (157) 
0.217587

>  <r_i_glide_intrahb_reward>  (157) 
-0

>  <i_i_glide_confnum>  (157) 
1

>  <i_i_glide_posenum>  (157) 
2

>  <r_i_glide_eff_state_penalty>  (157) 
0

>  <ligand_id>  (157) 
35

>  <original_smiles>  (157) 
CC1C2CC(c3c(C(=O)O)cnn31)C1CC2C1

>  <smiles>  (157) 
[H]c1nn2c(c1C(=O)[O-])C1([H])C([H])([H])C([H])(C2([H])C([H])([H])[H])C2([H])C([H])([H])C1([H])C2([H])[H]

$$$$
35:1:0
     RDKit          3D

 33 36  0  0  1  0  0  0  0  0999 V2000
    6.9755   -2.0866    0.4798 C   0  0  0  0  0  0  0  0  0  0  0  0
    6.0664   -2.7083   -0.6000 C   0  0  2  0  0  0  0  0  0  0  0  0
    5.0591   -1.6448   -1.1613 C   0  0  2  0  0  0  0  0  0  0  0  0
    3.8174   -1.6337   -0.2256 C   0  0  0  0  0  0  0  0  0  0  0  0
    3.0580   -2.9440   -0.5389 C   0  0  2  0  0  0  0  0  0  0  0  0
    3.9586   -4.0250   -0.0192 C   0  0  0  0  0  0  0  0  0  0  0  0
    3.7867   -5.2782    0.5582 C   0  0  0  0  0  0  0  0  0  0  0  0
    2.4771   -5.9133    0.8616 C   0  0  0  0  0  0  0  0  0  0  0  0
    1.4228   -5.4568    0.3686 O   0  0  0  0  0  0  0  0  0  0  0  0
    2.4638   -6.9114    1.6114 O   0  0  0  0  0  0  0  0  0  0  0  0
    5.0058   -5.8980    0.8314 C   0  0  0  0  0  0  0  0  0  0  0  0
    5.9385   -4.9868    0.4145 N   0  0  0  0  0  0  0  0  0  0  0  0
    5.3192   -3.8788   -0.0652 N   0  0  0  0  0  0  0  0  0  0  0  0
    2.8970   -3.0588   -2.0889 C   0  0  2  0  0  0  0  0  0  0  0  0
    4.1580   -3.4410   -2.9023 C   0  0  0  0  0  0  0  0  0  0  0  0
    4.5662   -1.9856   -2.6055 C   0  0  1  0  0  0  0  0  0  0  0  0
    3.0653   -1.7446   -2.8932 C   0  0  0  0  0  0  0  0  0  0  0  0
    7.5168   -1.2227    0.0928 H   0  0  0  0  0  0  0  0  0  0  0  0
    7.7211   -2.7948    0.8416 H   0  0  0  0  0  0  0  0  0  0  0  0
    6.3969   -1.7426    1.3390 H   0  0  0  0  0  0  0  0  0  0  0  0
    6.7050   -3.0650   -1.4091 H   0  0  0  0  0  0  0  0  0  0  0  0
    5.5204   -0.6571   -1.1685 H   0  0  0  0  0  0  0  0  0  0  0  0
    4.1000   -1.5727    0.8280 H   0  0  0  0  0  0  0  0  0  0  0  0
    3.1959   -0.7570   -0.3993 H   0  0  0  0  0  0  0  0  0  0  0  0
    2.0977   -2.9641   -0.0287 H   0  0  0  0  0  0  0  0  0  0  0  0
    5.2485   -6.8639    1.2558 H   0  0  0  0  0  0  0  0  0  0  0  0
    2.0379   -3.6455   -2.4032 H   0  0  0  0  0  0  0  0  0  0  0  0
    4.7926   -4.2215   -2.4904 H   0  0  0  0  0  0  0  0  0  0  0  0
    3.9691   -3.6643   -3.9597 H   0  0  0  0  0  0  0  0  0  0  0  0
    5.1954   -1.5953   -3.3965 H   0  0  0  0  0  0  0  0  0  0  0  0
    2.7720   -1.8055   -3.9487 H   0  0  0  0  0  0  0  0  0  0  0  0
    2.6297   -0.8555   -2.4393 H   0  0  0  0  0  0  0  0  0  0  0  0
    6.9490   -5.0637    0.4193 H   0  0  0  0  0  0  0  0  0  0  0  0
  1  2  1  0
  1 18  1  0
  1 19  1  0
  1 20  1  0
  2 13  1  0
  2  3  1  0
  2 21  1  6
  3 16  1  0
  3  4  1  0
  3 22  1  6
  4  5  1  0
  4 23  1  0
  4 24  1  0
  5  6  1  0
  5 14  1  0
  5 25  1  1
  6 13  1  0
  6  7  2  0
  7  8  1  0
  7 11  1  0
  8  9  2  0
  8 10  1  0
 11 12  2  0
 11 26  1  0
 12 13  1  0
 12 33  1  0
 14 17  1  0
 14 15  1  0
 14 27  1  1
 15 16  1  0
 15 28  1  0
 15 29  1  0
 16 17  1  0
 16 30  1  6
 17 31  1  0
 17 32  1  0
M  CHG  2  10  -1  12   1
M  END
>  <i_m_ct_stereo_status>  (158) 
1

>  <s_m_source_file>  (158) 
/var/tmp/pbs.5076255.sched01/tmpuxvxg9lz/41q4u19exn.sdf

>  <i_m_source_file_index>  (158) 
22

>  <i_lp_mmshare_version>  (158) 
48012

>  <i_f3d_flags>  (158) 
0

>  <s_epik_input>  (158) 
Tz1DKFtPSF0pYzFbY0hdbm4oW0NAQEhdMltDSDNdKWMxW0NAQEhdKFtDSDJdMylbQ0BASF0oW0NIMl00KVtDSDJdW0NAQEhdNFtDQEhdMjM=

>  <s_epik_cmdline>  (158) 
J2VwaWtfcHl0aG9uJywgJy1waHQnLCAnMi4wJywgJy1waCcsICc3LjAnLCAnLXRuJywgJzgnLCAnLW1hJywgJzIwMCcsICctaW1hZScsICc8aW5maWxlLm1hZT4nLCAnLW9tYWUnLCAnPG91dGZpbGUubWFlPic=

>  <r_epik_Ionization_Penalty>  (158) 
2.0868

>  <r_epik_Ionization_Penalty_Charging>  (158) 
2.0868

>  <r_epik_Ionization_Penalty_Neutral>  (158) 
1.71318e-07

>  <r_epik_State_Penalty>  (158) 
2.22473

>  <r_epik_Charging_Adjusted_Penalty>  (158) 
4.31153

>  <i_epik_Tot_Q>  (158) 
0

>  <i_epik_Tot_abs_Q>  (158) 
2

>  <s_lp_Force_Field>  (158) 
OPLS3e

>  <r_lp_Energy>  (158) 
52.4108

>  <b_lp_Chiralities_Consistent>  (158) 
1

>  <s_lp_Variant>  (158) 
35:0-2

>  <s_i_glide_gridfile>  (158) 
pfpi4k_grid

>  <i_i_glide_lignum>  (158) 
22

>  <i_i_glide_rotatable_bonds>  (158) 
1

>  <r_i_docking_score>  (158) 
-3.91356

>  <r_i_glide_ligand_efficiency>  (158) 
-0.230209

>  <r_i_glide_ligand_efficiency_sa>  (158) 
-0.591933

>  <r_i_glide_ligand_efficiency_ln>  (158) 
-1.02096

>  <r_i_glide_gscore>  (158) 
-3.91356

>  <r_i_glide_lipo>  (158) 
-0.193376

>  <r_i_glide_hbond>  (158) 
-0.152106

>  <r_i_glide_metal>  (158) 
-0

>  <r_i_glide_rewards>  (158) 
-1.90101

>  <r_i_glide_evdw>  (158) 
-21.6093

>  <r_i_glide_ecoul>  (158) 
-3.72427

>  <r_i_glide_erotb>  (158) 
0

>  <r_i_glide_esite>  (158) 
-0.0279616

>  <r_i_glide_emodel>  (158) 
-32.5865

>  <r_i_glide_energy>  (158) 
-25.3336

>  <r_i_glide_einternal>  (158) 
0.415029

>  <r_i_glide_intrahb_reward>  (158) 
-0

>  <i_i_glide_confnum>  (158) 
1

>  <i_i_glide_posenum>  (158) 
8

>  <r_i_glide_eff_state_penalty>  (158) 
0

>  <ligand_id>  (158) 
35

>  <original_smiles>  (158) 
CC1C2CC(c3c(C(=O)O)cnn31)C1CC2C1

>  <smiles>  (158) 
[H]c1c(C(=O)[O-])c2n([n+]1[H])C([H])(C([H])([H])[H])C1([H])C([H])([H])C2([H])C2([H])C([H])([H])C1([H])C2([H])[H]

$$$$
35:1:1
     RDKit          3D

 33 36  0  0  1  0  0  0  0  0999 V2000
    7.4143   -2.6612   -0.1199 C   0  0  0  0  0  0  0  0  0  0  0  0
    6.2365   -3.0887   -1.0217 C   0  0  2  0  0  0  0  0  0  0  0  0
    5.4253   -1.8432   -1.5189 C   0  0  2  0  0  0  0  0  0  0  0  0
    4.3732   -1.4999   -0.4292 C   0  0  0  0  0  0  0  0  0  0  0  0
    3.2978   -2.6074   -0.5457 C   0  0  2  0  0  0  0  0  0  0  0  0
    3.9922   -3.8557   -0.0750 C   0  0  0  0  0  0  0  0  0  0  0  0
    3.6199   -5.0220    0.5804 C   0  0  0  0  0  0  0  0  0  0  0  0
    2.2616   -5.3146    1.0958 C   0  0  0  0  0  0  0  0  0  0  0  0
    1.8692   -4.7080    2.1142 O   0  0  0  0  0  0  0  0  0  0  0  0
    1.5372   -6.1412    0.4958 O   0  0  0  0  0  0  0  0  0  0  0  0
    4.6883   -5.9015    0.7194 C   0  0  0  0  0  0  0  0  0  0  0  0
    5.7365   -5.2384    0.1439 N   0  0  0  0  0  0  0  0  0  0  0  0
    5.3282   -4.0307   -0.3126 N   0  0  0  0  0  0  0  0  0  0  0  0
    2.8940   -2.7316   -2.0526 C   0  0  2  0  0  0  0  0  0  0  0  0
    3.8999   -3.4241   -3.0017 C   0  0  0  0  0  0  0  0  0  0  0  0
    4.6677   -2.1005   -2.8626 C   0  0  1  0  0  0  0  0  0  0  0  0
    3.2385   -1.5259   -2.9645 C   0  0  0  0  0  0  0  0  0  0  0  0
    8.0810   -1.9716   -0.6394 H   0  0  0  0  0  0  0  0  0  0  0  0
    8.0180   -3.5146    0.1850 H   0  0  0  0  0  0  0  0  0  0  0  0
    7.0606   -2.1586    0.7833 H   0  0  0  0  0  0  0  0  0  0  0  0
    6.6491   -3.6093   -1.8857 H   0  0  0  0  0  0  0  0  0  0  0  0
    6.0966   -1.0009   -1.6591 H   0  0  0  0  0  0  0  0  0  0  0  0
    4.8162   -1.4672    0.5711 H   0  0  0  0  0  0  0  0  0  0  0  0
    3.9547   -0.5059   -0.5836 H   0  0  0  0  0  0  0  0  0  0  0  0
    2.4413   -2.3857    0.0891 H   0  0  0  0  0  0  0  0  0  0  0  0
    4.7666   -6.8784    1.1714 H   0  0  0  0  0  0  0  0  0  0  0  0
    1.8848   -3.1115   -2.2148 H   0  0  0  0  0  0  0  0  0  0  0  0
    4.4147   -4.3005   -2.6281 H   0  0  0  0  0  0  0  0  0  0  0  0
    3.5135   -3.6351   -4.0051 H   0  0  0  0  0  0  0  0  0  0  0  0
    5.2552   -1.9064   -3.7576 H   0  0  0  0  0  0  0  0  0  0  0  0
    2.7913   -1.5583   -3.9662 H   0  0  0  0  0  0  0  0  0  0  0  0
    3.0884   -0.5406   -2.5232 H   0  0  0  0  0  0  0  0  0  0  0  0
    6.6958   -5.5472    0.0243 H   0  0  0  0  0  0  0  0  0  0  0  0
  1  2  1  0
  1 18  1  0
  1 19  1  0
  1 20  1  0
  2 13  1  0
  2  3  1  0
  2 21  1  6
  3 16  1  0
  3  4  1  0
  3 22  1  6
  4  5  1  0
  4 23  1  0
  4 24  1  0
  5  6  1  0
  5 14  1  0
  5 25  1  1
  6 13  1  0
  6  7  2  0
  7  8  1  0
  7 11  1  0
  8  9  2  0
  8 10  1  0
 11 12  2  0
 11 26  1  0
 12 13  1  0
 12 33  1  0
 14 17  1  0
 14 15  1  0
 14 27  1  1
 15 16  1  0
 15 28  1  0
 15 29  1  0
 16 17  1  0
 16 30  1  6
 17 31  1  0
 17 32  1  0
M  CHG  2  10  -1  12   1
M  END
>  <i_m_ct_stereo_status>  (159) 
1

>  <s_m_source_file>  (159) 
/var/tmp/pbs.5076255.sched01/tmpuxvxg9lz/41q4u19exn.sdf

>  <i_m_source_file_index>  (159) 
22

>  <i_lp_mmshare_version>  (159) 
48012

>  <i_f3d_flags>  (159) 
0

>  <s_epik_input>  (159) 
Tz1DKFtPSF0pYzFbY0hdbm4oW0NAQEhdMltDSDNdKWMxW0NAQEhdKFtDSDJdMylbQ0BASF0oW0NIMl00KVtDSDJdW0NAQEhdNFtDQEhdMjM=

>  <s_epik_cmdline>  (159) 
J2VwaWtfcHl0aG9uJywgJy1waHQnLCAnMi4wJywgJy1waCcsICc3LjAnLCAnLXRuJywgJzgnLCAnLW1hJywgJzIwMCcsICctaW1hZScsICc8aW5maWxlLm1hZT4nLCAnLW9tYWUnLCAnPG91dGZpbGUubWFlPic=

>  <r_epik_Ionization_Penalty>  (159) 
2.0868

>  <r_epik_Ionization_Penalty_Charging>  (159) 
2.0868

>  <r_epik_Ionization_Penalty_Neutral>  (159) 
1.71318e-07

>  <r_epik_State_Penalty>  (159) 
2.22473

>  <r_epik_Charging_Adjusted_Penalty>  (159) 
4.31153

>  <i_epik_Tot_Q>  (159) 
0

>  <i_epik_Tot_abs_Q>  (159) 
2

>  <s_lp_Force_Field>  (159) 
OPLS3e

>  <r_lp_Energy>  (159) 
52.4108

>  <b_lp_Chiralities_Consistent>  (159) 
1

>  <s_lp_Variant>  (159) 
35:0-2

>  <s_i_glide_gridfile>  (159) 
pfpi4k_grid

>  <i_i_glide_lignum>  (159) 
22

>  <i_i_glide_rotatable_bonds>  (159) 
1

>  <r_i_docking_score>  (159) 
-3.54794

>  <r_i_glide_ligand_efficiency>  (159) 
-0.208702

>  <r_i_glide_ligand_efficiency_sa>  (159) 
-0.536632

>  <r_i_glide_ligand_efficiency_ln>  (159) 
-0.925577

>  <r_i_glide_gscore>  (159) 
-3.54794

>  <r_i_glide_lipo>  (159) 
-0.285728

>  <r_i_glide_hbond>  (159) 
-0.118658

>  <r_i_glide_metal>  (159) 
-0

>  <r_i_glide_rewards>  (159) 
-1.90491

>  <r_i_glide_evdw>  (159) 
-20.9783

>  <r_i_glide_ecoul>  (159) 
-0.979977

>  <r_i_glide_erotb>  (159) 
0

>  <r_i_glide_esite>  (159) 
-0.0427268

>  <r_i_glide_emodel>  (159) 
-24.8397

>  <r_i_glide_energy>  (159) 
-21.9583

>  <r_i_glide_einternal>  (159) 
6.56685

>  <r_i_glide_intrahb_reward>  (159) 
-0

>  <i_i_glide_confnum>  (159) 
2

>  <i_i_glide_posenum>  (159) 
12

>  <r_i_glide_eff_state_penalty>  (159) 
0

>  <ligand_id>  (159) 
35

>  <original_smiles>  (159) 
CC1C2CC(c3c(C(=O)O)cnn31)C1CC2C1

>  <smiles>  (159) 
[H]c1c(C(=O)[O-])c2n([n+]1[H])C([H])(C([H])([H])[H])C1([H])C([H])([H])C2([H])C2([H])C([H])([H])C1([H])C2([H])[H]

$$$$
35:1:2
     RDKit          3D

 33 36  0  0  1  0  0  0  0  0999 V2000
    6.0477   -4.9926    0.7310 C   0  0  0  0  0  0  0  0  0  0  0  0
    4.8935   -4.3693   -0.0794 C   0  0  2  0  0  0  0  0  0  0  0  0
    5.4458   -3.4553   -1.2287 C   0  0  2  0  0  0  0  0  0  0  0  0
    5.6895   -2.0421   -0.6271 C   0  0  0  0  0  0  0  0  0  0  0  0
    4.2830   -1.4299   -0.4302 C   0  0  2  0  0  0  0  0  0  0  0  0
    3.6817   -2.2506    0.6781 C   0  0  0  0  0  0  0  0  0  0  0  0
    2.7919   -2.0272    1.7227 C   0  0  0  0  0  0  0  0  0  0  0  0
    2.1716   -0.7224    2.0727 C   0  0  0  0  0  0  0  0  0  0  0  0
    1.2180   -0.7243    2.8868 O   0  0  0  0  0  0  0  0  0  0  0  0
    2.6314    0.3287    1.5765 O   0  0  0  0  0  0  0  0  0  0  0  0
    2.5317   -3.1926    2.4390 C   0  0  0  0  0  0  0  0  0  0  0  0
    3.2929   -4.1435    1.8179 N   0  0  0  0  0  0  0  0  0  0  0  0
    3.9838   -3.5825    0.7956 N   0  0  0  0  0  0  0  0  0  0  0  0
    3.4823   -1.6206   -1.7587 C   0  0  2  0  0  0  0  0  0  0  0  0
    2.9621   -3.0424   -2.0751 C   0  0  0  0  0  0  0  0  0  0  0  0
    4.4427   -3.3115   -2.4179 C   0  0  1  0  0  0  0  0  0  0  0  0
    4.3108   -1.8980   -3.0336 C   0  0  0  0  0  0  0  0  0  0  0  0
    6.7161   -5.5620    0.0824 H   0  0  0  0  0  0  0  0  0  0  0  0
    5.6845   -5.6793    1.4963 H   0  0  0  0  0  0  0  0  0  0  0  0
    6.6484   -4.2271    1.2250 H   0  0  0  0  0  0  0  0  0  0  0  0
    4.3139   -5.1846   -0.5154 H   0  0  0  0  0  0  0  0  0  0  0  0
    6.3855   -3.8544   -1.6096 H   0  0  0  0  0  0  0  0  0  0  0  0
    6.2470   -2.0896    0.3126 H   0  0  0  0  0  0  0  0  0  0  0  0
    6.3006   -1.4416   -1.2943 H   0  0  0  0  0  0  0  0  0  0  0  0
    4.3543   -0.3815   -0.1435 H   0  0  0  0  0  0  0  0  0  0  0  0
    1.9000   -3.3807    3.2957 H   0  0  0  0  0  0  0  0  0  0  0  0
    2.6988   -0.8809   -1.9218 H   0  0  0  0  0  0  0  0  0  0  0  0
    2.5427   -3.6137   -1.2506 H   0  0  0  0  0  0  0  0  0  0  0  0
    2.2722   -3.1015   -2.9255 H   0  0  0  0  0  0  0  0  0  0  0  0
    4.5363   -4.0918   -3.1742 H   0  0  0  0  0  0  0  0  0  0  0  0
    3.7469   -1.8398   -3.9728 H   0  0  0  0  0  0  0  0  0  0  0  0
    5.2301   -1.3258   -3.1113 H   0  0  0  0  0  0  0  0  0  0  0  0
    3.3805   -5.1302    2.0280 H   0  0  0  0  0  0  0  0  0  0  0  0
  1  2  1  0
  1 18  1  0
  1 19  1  0
  1 20  1  0
  2 13  1  0
  2  3  1  0
  2 21  1  6
  3 16  1  0
  3  4  1  0
  3 22  1  6
  4  5  1  0
  4 23  1  0
  4 24  1  0
  5  6  1  0
  5 14  1  0
  5 25  1  1
  6 13  1  0
  6  7  2  0
  7  8  1  0
  7 11  1  0
  8  9  2  0
  8 10  1  0
 11 12  2  0
 11 26  1  0
 12 13  1  0
 12 33  1  0
 14 17  1  0
 14 15  1  0
 14 27  1  6
 15 16  1  0
 15 28  1  0
 15 29  1  0
 16 17  1  0
 16 30  1  6
 17 31  1  0
 17 32  1  0
M  CHG  2  10  -1  12   1
M  END
>  <i_m_ct_stereo_status>  (160) 
1

>  <s_m_source_file>  (160) 
/var/tmp/pbs.5076255.sched01/tmpuxvxg9lz/41q4u19exn.sdf

>  <i_m_source_file_index>  (160) 
22

>  <i_lp_mmshare_version>  (160) 
48012

>  <i_f3d_flags>  (160) 
0

>  <s_epik_input>  (160) 
Tz1DKFtPSF0pYzFbY0hdbm4oW0NAQEhdMltDSDNdKWMxW0NAQEhdKFtDSDJdMylbQ0BASF0oW0NIMl00KVtDSDJdW0NAQEhdNFtDQEhdMjM=

>  <s_epik_cmdline>  (160) 
J2VwaWtfcHl0aG9uJywgJy1waHQnLCAnMi4wJywgJy1waCcsICc3LjAnLCAnLXRuJywgJzgnLCAnLW1hJywgJzIwMCcsICctaW1hZScsICc8aW5maWxlLm1hZT4nLCAnLW9tYWUnLCAnPG91dGZpbGUubWFlPic=

>  <r_epik_Ionization_Penalty>  (160) 
2.0868

>  <r_epik_Ionization_Penalty_Charging>  (160) 
2.0868

>  <r_epik_Ionization_Penalty_Neutral>  (160) 
1.71318e-07

>  <r_epik_State_Penalty>  (160) 
2.22473

>  <r_epik_Charging_Adjusted_Penalty>  (160) 
4.31153

>  <i_epik_Tot_Q>  (160) 
0

>  <i_epik_Tot_abs_Q>  (160) 
2

>  <s_lp_Force_Field>  (160) 
OPLS3e

>  <r_lp_Energy>  (160) 
52.4108

>  <b_lp_Chiralities_Consistent>  (160) 
1

>  <s_lp_Variant>  (160) 
35:0-2

>  <s_i_glide_gridfile>  (160) 
pfpi4k_grid

>  <i_i_glide_lignum>  (160) 
22

>  <i_i_glide_rotatable_bonds>  (160) 
1

>  <r_i_docking_score>  (160) 
-3.20522

>  <r_i_glide_ligand_efficiency>  (160) 
-0.188542

>  <r_i_glide_ligand_efficiency_sa>  (160) 
-0.484796

>  <r_i_glide_ligand_efficiency_ln>  (160) 
-0.836171

>  <r_i_glide_gscore>  (160) 
-3.20522

>  <r_i_glide_lipo>  (160) 
-0.306936

>  <r_i_glide_hbond>  (160) 
0

>  <r_i_glide_metal>  (160) 
-0

>  <r_i_glide_rewards>  (160) 
-1.84233

>  <r_i_glide_evdw>  (160) 
-20.1523

>  <r_i_glide_ecoul>  (160) 
-0.0134308

>  <r_i_glide_erotb>  (160) 
0

>  <r_i_glide_esite>  (160) 
-0.0463303

>  <r_i_glide_emodel>  (160) 
-26.0298

>  <r_i_glide_energy>  (160) 
-20.1657

>  <r_i_glide_einternal>  (160) 
0.369271

>  <r_i_glide_intrahb_reward>  (160) 
-0

>  <i_i_glide_confnum>  (160) 
1

>  <i_i_glide_posenum>  (160) 
6

>  <r_i_glide_eff_state_penalty>  (160) 
0

>  <ligand_id>  (160) 
35

>  <original_smiles>  (160) 
CC1C2CC(c3c(C(=O)O)cnn31)C1CC2C1

>  <smiles>  (160) 
[H]c1c(C(=O)[O-])c2n([n+]1[H])C([H])(C([H])([H])[H])C1([H])C([H])([H])C2([H])C2([H])C([H])([H])C1([H])C2([H])[H]

$$$$
36:0:0
     RDKit          3D

 55 60  0  0  1  0  0  0  0  0999 V2000
    2.6831   -3.2211   -2.4521 C   0  0  0  0  0  0  0  0  0  0  0  0
    4.2408   -3.1596   -2.4167 C   0  0  0  0  0  0  0  0  0  0  0  0
    4.8177   -4.1250   -3.4549 C   0  0  0  0  0  0  0  0  0  0  0  0
    4.7074   -1.7890   -2.8843 C   0  0  1  0  0  0  0  0  0  0  0  0
    4.2671   -1.4405   -4.1938 O   0  0  0  0  0  0  0  0  0  0  0  0
    4.3448   -0.6474   -1.9480 C   0  0  0  0  0  0  0  0  0  0  0  0
    4.0738   -1.0452   -0.4817 C   0  0  0  0  0  0  0  0  0  0  0  0
    4.9287   -2.2229    0.0187 C   0  0  1  0  0  0  0  0  0  0  0  0
    6.3542   -1.6472    0.2182 C   0  0  0  0  0  0  0  0  0  0  0  0
    4.4736   -2.8534    1.3713 C   0  0  1  0  0  0  0  0  0  0  0  0
    2.9349   -2.7858    1.6277 C   0  0  0  0  0  0  0  0  0  0  0  0
    2.3518   -3.8786    2.4970 C   0  0  2  0  0  0  0  0  0  0  0  0
    2.8848   -4.0853    3.7903 O   0  0  0  0  0  0  0  0  0  0  0  0
    3.1468   -5.1236    2.8055 C   0  0  1  0  0  0  0  0  0  0  0  0
    2.5025   -6.5060    2.9537 C   0  0  1  0  0  0  0  0  0  0  0  0
    1.3039   -6.6530    2.1979 O   0  0  0  0  0  0  0  0  0  0  0  0
    3.5450   -7.4652    2.4344 C   0  0  2  0  0  0  0  0  0  0  0  0
    4.7082   -7.6305    3.2485 O   0  0  0  0  0  0  0  0  0  0  0  0
    4.8170   -6.7161    2.1407 C   0  0  2  0  0  0  0  0  0  0  0  0
    4.6213   -5.2435    2.4436 C   0  0  2  0  0  0  0  0  0  0  0  0
    5.4937   -4.8779    3.6648 C   0  0  0  0  0  0  0  0  0  0  0  0
    4.9899   -4.3037    1.2531 C   0  0  1  0  0  0  0  0  0  0  0  0
    4.6535   -4.6996   -0.2018 C   0  0  1  0  0  0  0  0  0  0  0  0
    3.3115   -5.1095   -0.3008 O   0  0  0  0  0  0  0  0  0  0  0  0
    4.9324   -3.4062   -1.0084 C   0  0  1  0  0  0  0  0  0  0  0  0
    2.2670   -2.6805   -3.3103 H   0  0  0  0  0  0  0  0  0  0  0  0
    2.2229   -2.7939   -1.5614 H   0  0  0  0  0  0  0  0  0  0  0  0
    2.2941   -4.2246   -2.5290 H   0  0  0  0  0  0  0  0  0  0  0  0
    5.8927   -3.9863   -3.5557 H   0  0  0  0  0  0  0  0  0  0  0  0
    4.3635   -4.0389   -4.4452 H   0  0  0  0  0  0  0  0  0  0  0  0
    4.6727   -5.1385   -3.1338 H   0  0  0  0  0  0  0  0  0  0  0  0
    5.7874   -1.8634   -2.8616 H   0  0  0  0  0  0  0  0  0  0  0  0
    3.3713   -1.1451   -4.1576 H   0  0  0  0  0  0  0  0  0  0  0  0
    5.1273    0.0899   -1.9925 H   0  0  0  0  0  0  0  0  0  0  0  0
    3.4538   -0.1782   -2.3397 H   0  0  0  0  0  0  0  0  0  0  0  0
    4.1950   -0.1718    0.1630 H   0  0  0  0  0  0  0  0  0  0  0  0
    3.0160   -1.2484   -0.4216 H   0  0  0  0  0  0  0  0  0  0  0  0
    7.0717   -2.3872    0.5741 H   0  0  0  0  0  0  0  0  0  0  0  0
    6.3547   -0.8194    0.9337 H   0  0  0  0  0  0  0  0  0  0  0  0
    6.7381   -1.2547   -0.7197 H   0  0  0  0  0  0  0  0  0  0  0  0
    4.9726   -2.3585    2.2083 H   0  0  0  0  0  0  0  0  0  0  0  0
    2.6712   -1.8241    2.0654 H   0  0  0  0  0  0  0  0  0  0  0  0
    2.3908   -2.8581    0.6862 H   0  0  0  0  0  0  0  0  0  0  0  0
    1.2722   -3.9700    2.4814 H   0  0  0  0  0  0  0  0  0  0  0  0
    2.3054   -6.7206    4.0018 H   0  0  0  0  0  0  0  0  0  0  0  0
    0.9840   -7.5346    2.3103 H   0  0  0  0  0  0  0  0  0  0  0  0
    3.2568   -8.3474    1.8752 H   0  0  0  0  0  0  0  0  0  0  0  0
    5.5101   -7.0225    1.3643 H   0  0  0  0  0  0  0  0  0  0  0  0
    6.5461   -5.0741    3.4606 H   0  0  0  0  0  0  0  0  0  0  0  0
    5.2133   -5.4539    4.5486 H   0  0  0  0  0  0  0  0  0  0  0  0
    5.3995   -3.8237    3.9274 H   0  0  0  0  0  0  0  0  0  0  0  0
    6.0773   -4.2619    1.2631 H   0  0  0  0  0  0  0  0  0  0  0  0
    5.2897   -5.5135   -0.5561 H   0  0  0  0  0  0  0  0  0  0  0  0
    3.1744   -5.4296   -1.2053 H   0  0  0  0  0  0  0  0  0  0  0  0
    5.9825   -3.5163   -1.2645 H   0  0  0  0  0  0  0  0  0  0  0  0
  1  2  1  0
  1 26  1  0
  1 27  1  0
  1 28  1  0
  2 25  1  0
  2  3  1  0
  2  4  1  0
  3 29  1  0
  3 30  1  0
  3 31  1  0
  4  5  1  0
  4  6  1  0
  4 32  1  6
  5 33  1  0
  6  7  1  0
  6 34  1  0
  6 35  1  0
  7  8  1  0
  7 36  1  0
  7 37  1  0
  8 25  1  0
  8  9  1  1
  8 10  1  0
  9 38  1  0
  9 39  1  0
  9 40  1  0
 10 22  1  0
 10 11  1  0
 10 41  1  1
 11 12  1  0
 11 42  1  0
 11 43  1  0
 12 14  1  0
 12 13  1  0
 12 44  1  1
 14 13  1  1
 14 20  1  0
 14 15  1  0
 15 16  1  0
 15 17  1  0
 15 45  1  1
 16 46  1  0
 17 19  1  0
 17 18  1  0
 17 47  1  6
 18 19  1  0
 19 20  1  0
 19 48  1  6
 20 21  1  1
 20 22  1  0
 21 49  1  0
 21 50  1  0
 21 51  1  0
 22 23  1  0
 22 52  1  6
 23 24  1  0
 23 25  1  0
 23 53  1  6
 24 54  1  0
 25 55  1  6
M  END
>  <i_m_ct_stereo_status>  (161) 
1

>  <s_m_source_file>  (161) 
/var/tmp/pbs.5076255.sched01/tmpuxvxg9lz/41q4u19exn.sdf

>  <i_m_source_file_index>  (161) 
23

>  <i_lp_mmshare_version>  (161) 
48012

>  <i_f3d_flags>  (161) 
0

>  <s_epik_input>  (161) 
TzFbQ0BIXShbQ0BAXTEyMylbQ0gyXVtDQEBIXTRbQ0BAXTUoW0NIM10pW0NASF0oQyhbQ0gzXSkoW0NIM10pW0NAQEhdKFtPSF0pW0NIMl1bQ0gyXTUpW0NASF0oW09IXSlbQ0BASF00W0NAXTMoW0NIM10pW0NAQEhdNltDQEBIXShPNilbQ0BASF0yW09IXQ==

>  <s_epik_cmdline>  (161) 
J2VwaWtfcHl0aG9uJywgJy1waHQnLCAnMi4wJywgJy1waCcsICc3LjAnLCAnLXRuJywgJzgnLCAnLW1hJywgJzIwMCcsICctaW1hZScsICc8aW5maWxlLm1hZT4nLCAnLW9tYWUnLCAnPG91dGZpbGUubWFlPic=

>  <r_lp_tautomer_probability>  (161) 
1

>  <r_epik_Ionization_Penalty>  (161) 
3.2191e-06

>  <r_epik_Ionization_Penalty_Charging>  (161) 
0

>  <r_epik_Ionization_Penalty_Neutral>  (161) 
3.2191e-06

>  <r_epik_State_Penalty>  (161) 
-0

>  <r_epik_Charging_Adjusted_Penalty>  (161) 
0

>  <i_epik_Tot_Q>  (161) 
0

>  <i_epik_Tot_abs_Q>  (161) 
0

>  <s_lp_Force_Field>  (161) 
OPLS3e

>  <r_lp_Energy>  (161) 
74.5331

>  <b_lp_Chiralities_Consistent>  (161) 
1

>  <s_lp_Variant>  (161) 
36:0-1

>  <s_i_glide_gridfile>  (161) 
pfpi4k_grid

>  <i_i_glide_lignum>  (161) 
23

>  <i_i_glide_rotatable_bonds>  (161) 
3

>  <r_i_docking_score>  (161) 
-4.03499

>  <r_i_glide_ligand_efficiency>  (161) 
-0.1614

>  <r_i_glide_ligand_efficiency_sa>  (161) 
-0.471935

>  <r_i_glide_ligand_efficiency_ln>  (161) 
-0.956413

>  <r_i_glide_gscore>  (161) 
-4.03499

>  <r_i_glide_lipo>  (161) 
-0.174329

>  <r_i_glide_hbond>  (161) 
-0.507647

>  <r_i_glide_metal>  (161) 
-0

>  <r_i_glide_rewards>  (161) 
-1.01966

>  <r_i_glide_evdw>  (161) 
-16.2412

>  <r_i_glide_ecoul>  (161) 
-10.1419

>  <r_i_glide_erotb>  (161) 
0

>  <r_i_glide_esite>  (161) 
0

>  <r_i_glide_emodel>  (161) 
-30.3626

>  <r_i_glide_energy>  (161) 
-26.3831

>  <r_i_glide_einternal>  (161) 
0.918429

>  <r_i_glide_intrahb_reward>  (161) 
-0

>  <i_i_glide_confnum>  (161) 
1

>  <i_i_glide_posenum>  (161) 
37

>  <r_i_glide_eff_state_penalty>  (161) 
0

>  <ligand_id>  (161) 
36

>  <original_smiles>  (161) 
CC1(C)C(O)CCC2(C)C3CC4OC45C(O)C4OC4C5(C)C3C(O)C12

>  <smiles>  (161) 
[H]OC1([H])C2([H])C(C([H])([H])[H])(C([H])([H])[H])C([H])(O[H])C([H])([H])C([H])([H])C2(C([H])([H])[H])C2([H])C([H])([H])C3([H])OC34C([H])(O[H])C3([H])OC3([H])C4(C([H])([H])[H])C12[H]

$$$$
36:0:1
     RDKit          3D

 55 60  0  0  1  0  0  0  0  0999 V2000
    2.4954   -2.5212   -2.3340 C   0  0  0  0  0  0  0  0  0  0  0  0
    3.8768   -2.7691   -2.8877 C   0  0  0  0  0  0  0  0  0  0  0  0
    3.7390   -3.6422   -4.1351 C   0  0  0  0  0  0  0  0  0  0  0  0
    4.4490   -1.4498   -3.4031 C   0  0  1  0  0  0  0  0  0  0  0  0
    3.7396   -0.8044   -4.4492 O   0  0  0  0  0  0  0  0  0  0  0  0
    4.7299   -0.4035   -2.3177 C   0  0  0  0  0  0  0  0  0  0  0  0
    4.8933   -0.9346   -0.8857 C   0  0  0  0  0  0  0  0  0  0  0  0
    5.5482   -2.3457   -0.8071 C   0  0  1  0  0  0  0  0  0  0  0  0
    7.0524   -2.2609   -1.1389 C   0  0  0  0  0  0  0  0  0  0  0  0
    5.4701   -3.0158    0.6023 C   0  0  1  0  0  0  0  0  0  0  0  0
    4.2012   -2.6173    1.4091 C   0  0  0  0  0  0  0  0  0  0  0  0
    3.6833   -3.6590    2.3690 C   0  0  2  0  0  0  0  0  0  0  0  0
    4.5607   -4.1673    3.3636 O   0  0  0  0  0  0  0  0  0  0  0  0
    4.1694   -5.0947    2.3072 C   0  0  1  0  0  0  0  0  0  0  0  0
    3.2556   -6.2836    2.6262 C   0  0  1  0  0  0  0  0  0  0  0  0
    1.8947   -6.0040    2.3749 O   0  0  0  0  0  0  0  0  0  0  0  0
    3.7150   -7.3850    1.7244 C   0  0  2  0  0  0  0  0  0  0  0  0
    4.9983   -7.9502    2.0155 O   0  0  0  0  0  0  0  0  0  0  0  0
    4.9430   -6.9226    0.9903 C   0  0  2  0  0  0  0  0  0  0  0  0
    5.3127   -5.5229    1.4030 C   0  0  2  0  0  0  0  0  0  0  0  0
    6.6333   -5.5820    2.1841 C   0  0  0  0  0  0  0  0  0  0  0  0
    5.4961   -4.5103    0.2370 C   0  0  1  0  0  0  0  0  0  0  0  0
    4.5886   -4.5760   -0.9668 C   0  0  1  0  0  0  0  0  0  0  0  0
    3.2517   -4.6725   -0.5278 O   0  0  0  0  0  0  0  0  0  0  0  0
    4.9015   -3.3349   -1.8237 C   0  0  1  0  0  0  0  0  0  0  0  0
    1.9712   -1.7476   -2.8937 H   0  0  0  0  0  0  0  0  0  0  0  0
    2.6105   -2.1603   -1.3091 H   0  0  0  0  0  0  0  0  0  0  0  0
    1.8475   -3.3973   -2.3357 H   0  0  0  0  0  0  0  0  0  0  0  0
    4.6964   -3.7845   -4.6390 H   0  0  0  0  0  0  0  0  0  0  0  0
    2.9960   -3.1802   -4.7891 H   0  0  0  0  0  0  0  0  0  0  0  0
    3.3348   -4.6541   -3.9434 H   0  0  0  0  0  0  0  0  0  0  0  0
    5.4102   -1.7751   -3.8367 H   0  0  0  0  0  0  0  0  0  0  0  0
    2.9207   -0.4902   -4.1026 H   0  0  0  0  0  0  0  0  0  0  0  0
    5.6725    0.0953   -2.4554 H   0  0  0  0  0  0  0  0  0  0  0  0
    4.0123    0.4106   -2.4214 H   0  0  0  0  0  0  0  0  0  0  0  0
    5.5161   -0.2569   -0.3017 H   0  0  0  0  0  0  0  0  0  0  0  0
    3.9220   -0.8477   -0.4020 H   0  0  0  0  0  0  0  0  0  0  0  0
    7.6096   -3.2145   -1.0882 H   0  0  0  0  0  0  0  0  0  0  0  0
    7.5299   -1.5625   -0.4572 H   0  0  0  0  0  0  0  0  0  0  0  0
    7.1559   -1.9458   -2.1703 H   0  0  0  0  0  0  0  0  0  0  0  0
    6.3531   -2.7827    1.1979 H   0  0  0  0  0  0  0  0  0  0  0  0
    4.4013   -1.7096    1.9742 H   0  0  0  0  0  0  0  0  0  0  0  0
    3.3661   -2.4046    0.7522 H   0  0  0  0  0  0  0  0  0  0  0  0
    2.6716   -3.4776    2.7349 H   0  0  0  0  0  0  0  0  0  0  0  0
    3.3784   -6.6081    3.6556 H   0  0  0  0  0  0  0  0  0  0  0  0
    1.5997   -5.3672    3.0065 H   0  0  0  0  0  0  0  0  0  0  0  0
    3.0048   -8.0782    1.2535 H   0  0  0  0  0  0  0  0  0  0  0  0
    5.1367   -7.2509   -0.0232 H   0  0  0  0  0  0  0  0  0  0  0  0
    7.4311   -5.9950    1.5704 H   0  0  0  0  0  0  0  0  0  0  0  0
    6.5404   -6.1851    3.0922 H   0  0  0  0  0  0  0  0  0  0  0  0
    6.9322   -4.5756    2.4617 H   0  0  0  0  0  0  0  0  0  0  0  0
    6.4637   -4.7492   -0.1825 H   0  0  0  0  0  0  0  0  0  0  0  0
    4.7905   -5.4576   -1.5534 H   0  0  0  0  0  0  0  0  0  0  0  0
    2.8092   -5.0643   -1.2758 H   0  0  0  0  0  0  0  0  0  0  0  0
    5.7230   -3.6606   -2.4688 H   0  0  0  0  0  0  0  0  0  0  0  0
  1  2  1  0
  1 26  1  0
  1 27  1  0
  1 28  1  0
  2 25  1  0
  2  3  1  0
  2  4  1  0
  3 29  1  0
  3 30  1  0
  3 31  1  0
  4  5  1  0
  4  6  1  0
  4 32  1  6
  5 33  1  0
  6  7  1  0
  6 34  1  0
  6 35  1  0
  7  8  1  0
  7 36  1  0
  7 37  1  0
  8 25  1  0
  8  9  1  6
  8 10  1  0
  9 38  1  0
  9 39  1  0
  9 40  1  0
 10 22  1  0
 10 11  1  0
 10 41  1  1
 11 12  1  0
 11 42  1  0
 11 43  1  0
 12 14  1  0
 12 13  1  0
 12 44  1  1
 14 13  1  1
 14 20  1  0
 14 15  1  0
 15 16  1  0
 15 17  1  0
 15 45  1  1
 16 46  1  0
 17 19  1  0
 17 18  1  0
 17 47  1  6
 18 19  1  0
 19 20  1  0
 19 48  1  6
 20 21  1  1
 20 22  1  0
 21 49  1  0
 21 50  1  0
 21 51  1  0
 22 23  1  0
 22 52  1  6
 23 24  1  0
 23 25  1  0
 23 53  1  6
 24 54  1  0
 25 55  1  6
M  END
>  <i_m_ct_stereo_status>  (162) 
1

>  <s_m_source_file>  (162) 
/var/tmp/pbs.5076255.sched01/tmpuxvxg9lz/41q4u19exn.sdf

>  <i_m_source_file_index>  (162) 
23

>  <i_lp_mmshare_version>  (162) 
48012

>  <i_f3d_flags>  (162) 
0

>  <s_epik_input>  (162) 
TzFbQ0BIXShbQ0BAXTEyMylbQ0gyXVtDQEBIXTRbQ0BAXTUoW0NIM10pW0NASF0oQyhbQ0gzXSkoW0NIM10pW0NAQEhdKFtPSF0pW0NIMl1bQ0gyXTUpW0NASF0oW09IXSlbQ0BASF00W0NAXTMoW0NIM10pW0NAQEhdNltDQEBIXShPNilbQ0BASF0yW09IXQ==

>  <s_epik_cmdline>  (162) 
J2VwaWtfcHl0aG9uJywgJy1waHQnLCAnMi4wJywgJy1waCcsICc3LjAnLCAnLXRuJywgJzgnLCAnLW1hJywgJzIwMCcsICctaW1hZScsICc8aW5maWxlLm1hZT4nLCAnLW9tYWUnLCAnPG91dGZpbGUubWFlPic=

>  <r_lp_tautomer_probability>  (162) 
1

>  <r_epik_Ionization_Penalty>  (162) 
3.2191e-06

>  <r_epik_Ionization_Penalty_Charging>  (162) 
0

>  <r_epik_Ionization_Penalty_Neutral>  (162) 
3.2191e-06

>  <r_epik_State_Penalty>  (162) 
-0

>  <r_epik_Charging_Adjusted_Penalty>  (162) 
0

>  <i_epik_Tot_Q>  (162) 
0

>  <i_epik_Tot_abs_Q>  (162) 
0

>  <s_lp_Force_Field>  (162) 
OPLS3e

>  <r_lp_Energy>  (162) 
74.5331

>  <b_lp_Chiralities_Consistent>  (162) 
1

>  <s_lp_Variant>  (162) 
36:0-1

>  <s_i_glide_gridfile>  (162) 
pfpi4k_grid

>  <i_i_glide_lignum>  (162) 
23

>  <i_i_glide_rotatable_bonds>  (162) 
3

>  <r_i_docking_score>  (162) 
-3.32096

>  <r_i_glide_ligand_efficiency>  (162) 
-0.132838

>  <r_i_glide_ligand_efficiency_sa>  (162) 
-0.388421

>  <r_i_glide_ligand_efficiency_ln>  (162) 
-0.787166

>  <r_i_glide_gscore>  (162) 
-3.32096

>  <r_i_glide_lipo>  (162) 
-0.576437

>  <r_i_glide_hbond>  (162) 
-0.0456278

>  <r_i_glide_metal>  (162) 
-0

>  <r_i_glide_rewards>  (162) 
-1.01966

>  <r_i_glide_evdw>  (162) 
-11.5638

>  <r_i_glide_ecoul>  (162) 
-7.34023

>  <r_i_glide_erotb>  (162) 
0

>  <r_i_glide_esite>  (162) 
0

>  <r_i_glide_emodel>  (162) 
-21.4905

>  <r_i_glide_energy>  (162) 
-18.904

>  <r_i_glide_einternal>  (162) 
1.14053

>  <r_i_glide_intrahb_reward>  (162) 
-0

>  <i_i_glide_confnum>  (162) 
1

>  <i_i_glide_posenum>  (162) 
20

>  <r_i_glide_eff_state_penalty>  (162) 
0

>  <ligand_id>  (162) 
36

>  <original_smiles>  (162) 
CC1(C)C(O)CCC2(C)C3CC4OC45C(O)C4OC4C5(C)C3C(O)C12

>  <smiles>  (162) 
[H]OC1([H])C2([H])C(C([H])([H])[H])(C([H])([H])[H])C([H])(O[H])C([H])([H])C([H])([H])C2(C([H])([H])[H])C2([H])C([H])([H])C3([H])OC34C([H])(O[H])C3([H])OC3([H])C4(C([H])([H])[H])C12[H]

$$$$
36:0:2
     RDKit          3D

 55 60  0  0  1  0  0  0  0  0999 V2000
    2.2928   -2.8282   -2.8151 C   0  0  0  0  0  0  0  0  0  0  0  0
    3.8604   -2.8292   -2.8909 C   0  0  0  0  0  0  0  0  0  0  0  0
    4.3167   -3.8076   -3.9906 C   0  0  0  0  0  0  0  0  0  0  0  0
    4.3525   -1.4776   -3.3960 C   0  0  1  0  0  0  0  0  0  0  0  0
    3.8353   -1.0679   -4.6709 O   0  0  0  0  0  0  0  0  0  0  0  0
    4.2222   -0.3119   -2.4342 C   0  0  0  0  0  0  0  0  0  0  0  0
    4.0565   -0.6993   -0.9373 C   0  0  0  0  0  0  0  0  0  0  0  0
    4.7858   -1.9610   -0.5143 C   0  0  1  0  0  0  0  0  0  0  0  0
    6.2587   -1.5113   -0.4478 C   0  0  0  0  0  0  0  0  0  0  0  0
    4.4176   -2.5338    0.8942 C   0  0  1  0  0  0  0  0  0  0  0  0
    2.9175   -2.3263    1.2990 C   0  0  0  0  0  0  0  0  0  0  0  0
    2.3416   -3.3738    2.2283 C   0  0  2  0  0  0  0  0  0  0  0  0
    2.9946   -3.6407    3.4433 O   0  0  0  0  0  0  0  0  0  0  0  0
    3.0571   -4.6883    2.4549 C   0  0  1  0  0  0  0  0  0  0  0  0
    2.3066   -6.0237    2.6376 C   0  0  1  0  0  0  0  0  0  0  0  0
    1.0483   -6.0854    1.9749 O   0  0  0  0  0  0  0  0  0  0  0  0
    3.2204   -7.0586    2.0292 C   0  0  2  0  0  0  0  0  0  0  0  0
    4.4199   -7.3230    2.7295 O   0  0  0  0  0  0  0  0  0  0  0  0
    4.5022   -6.4248    1.6244 C   0  0  2  0  0  0  0  0  0  0  0  0
    4.4692   -4.9424    1.9444 C   0  0  2  0  0  0  0  0  0  0  0  0
    5.4786   -4.6570    3.0751 C   0  0  0  0  0  0  0  0  0  0  0  0
    4.8120   -4.0200    0.7358 C   0  0  1  0  0  0  0  0  0  0  0  0
    4.2389   -4.3762   -0.6473 C   0  0  1  0  0  0  0  0  0  0  0  0
    2.8590   -4.6217   -0.4904 O   0  0  0  0  0  0  0  0  0  0  0  0
    4.5901   -3.1417   -1.5232 C   0  0  1  0  0  0  0  0  0  0  0  0
    1.8248   -2.3000   -3.6275 H   0  0  0  0  0  0  0  0  0  0  0  0
    1.9568   -2.3554   -1.9184 H   0  0  0  0  0  0  0  0  0  0  0  0
    1.8979   -3.8403   -2.8236 H   0  0  0  0  0  0  0  0  0  0  0  0
    5.3840   -3.6751   -4.2231 H   0  0  0  0  0  0  0  0  0  0  0  0
    3.7420   -3.5583   -4.8881 H   0  0  0  0  0  0  0  0  0  0  0  0
    4.2057   -4.8325   -3.7247 H   0  0  0  0  0  0  0  0  0  0  0  0
    5.4114   -1.6241   -3.5119 H   0  0  0  0  0  0  0  0  0  0  0  0
    2.8868   -0.9923   -4.6116 H   0  0  0  0  0  0  0  0  0  0  0  0
    5.0464    0.3790   -2.5969 H   0  0  0  0  0  0  0  0  0  0  0  0
    3.3238    0.2358   -2.7247 H   0  0  0  0  0  0  0  0  0  0  0  0
    4.3336    0.1333   -0.2863 H   0  0  0  0  0  0  0  0  0  0  0  0
    3.0026   -0.8189   -0.7953 H   0  0  0  0  0  0  0  0  0  0  0  0
    6.9433   -2.3144   -0.1667 H   0  0  0  0  0  0  0  0  0  0  0  0
    6.3761   -0.6784    0.2574 H   0  0  0  0  0  0  0  0  0  0  0  0
    6.5191   -1.1863   -1.4358 H   0  0  0  0  0  0  0  0  0  0  0  0
    5.0189   -2.0747    1.6804 H   0  0  0  0  0  0  0  0  0  0  0  0
    2.7766   -1.3453    1.7528 H   0  0  0  0  0  0  0  0  0  0  0  0
    2.2708   -2.3220    0.4197 H   0  0  0  0  0  0  0  0  0  0  0  0
    1.2676   -3.3457    2.3473 H   0  0  0  0  0  0  0  0  0  0  0  0
    2.1691   -6.2294    3.7039 H   0  0  0  0  0  0  0  0  0  0  0  0
    0.7232   -6.9817    2.0317 H   0  0  0  0  0  0  0  0  0  0  0  0
    2.7928   -7.9176    1.4944 H   0  0  0  0  0  0  0  0  0  0  0  0
    5.0865   -6.7804    0.7648 H   0  0  0  0  0  0  0  0  0  0  0  0
    6.4854   -4.9315    2.7536 H   0  0  0  0  0  0  0  0  0  0  0  0
    5.2263   -5.2212    3.9744 H   0  0  0  0  0  0  0  0  0  0  0  0
    5.4773   -3.5958    3.3338 H   0  0  0  0  0  0  0  0  0  0  0  0
    5.8884   -4.0767    0.6186 H   0  0  0  0  0  0  0  0  0  0  0  0
    4.6927   -5.2516   -1.0767 H   0  0  0  0  0  0  0  0  0  0  0  0
    2.4546   -3.7651   -0.6575 H   0  0  0  0  0  0  0  0  0  0  0  0
    5.6046   -3.3324   -1.8622 H   0  0  0  0  0  0  0  0  0  0  0  0
  1  2  1  0
  1 26  1  0
  1 27  1  0
  1 28  1  0
  2 25  1  0
  2  3  1  0
  2  4  1  0
  3 29  1  0
  3 30  1  0
  3 31  1  0
  4  5  1  0
  4  6  1  0
  4 32  1  6
  5 33  1  0
  6  7  1  0
  6 34  1  0
  6 35  1  0
  7  8  1  0
  7 36  1  0
  7 37  1  0
  8 25  1  0
  8  9  1  1
  8 10  1  0
  9 38  1  0
  9 39  1  0
  9 40  1  0
 10 22  1  0
 10 11  1  0
 10 41  1  1
 11 12  1  0
 11 42  1  0
 11 43  1  0
 12 14  1  0
 12 13  1  0
 12 44  1  1
 14 13  1  1
 14 20  1  0
 14 15  1  0
 15 16  1  0
 15 17  1  0
 15 45  1  1
 16 46  1  0
 17 19  1  0
 17 18  1  0
 17 47  1  6
 18 19  1  0
 19 20  1  0
 19 48  1  6
 20 21  1  1
 20 22  1  0
 21 49  1  0
 21 50  1  0
 21 51  1  0
 22 23  1  0
 22 52  1  6
 23 24  1  0
 23 25  1  0
 23 53  1  6
 24 54  1  0
 25 55  1  6
M  END
>  <i_m_ct_stereo_status>  (163) 
1

>  <s_m_source_file>  (163) 
/var/tmp/pbs.5076255.sched01/tmpuxvxg9lz/41q4u19exn.sdf

>  <i_m_source_file_index>  (163) 
23

>  <i_lp_mmshare_version>  (163) 
48012

>  <i_f3d_flags>  (163) 
0

>  <s_epik_input>  (163) 
TzFbQ0BIXShbQ0BAXTEyMylbQ0gyXVtDQEBIXTRbQ0BAXTUoW0NIM10pW0NASF0oQyhbQ0gzXSkoW0NIM10pW0NAQEhdKFtPSF0pW0NIMl1bQ0gyXTUpW0NASF0oW09IXSlbQ0BASF00W0NAXTMoW0NIM10pW0NAQEhdNltDQEBIXShPNilbQ0BASF0yW09IXQ==

>  <s_epik_cmdline>  (163) 
J2VwaWtfcHl0aG9uJywgJy1waHQnLCAnMi4wJywgJy1waCcsICc3LjAnLCAnLXRuJywgJzgnLCAnLW1hJywgJzIwMCcsICctaW1hZScsICc8aW5maWxlLm1hZT4nLCAnLW9tYWUnLCAnPG91dGZpbGUubWFlPic=

>  <r_lp_tautomer_probability>  (163) 
1

>  <r_epik_Ionization_Penalty>  (163) 
3.2191e-06

>  <r_epik_Ionization_Penalty_Charging>  (163) 
0

>  <r_epik_Ionization_Penalty_Neutral>  (163) 
3.2191e-06

>  <r_epik_State_Penalty>  (163) 
-0

>  <r_epik_Charging_Adjusted_Penalty>  (163) 
0

>  <i_epik_Tot_Q>  (163) 
0

>  <i_epik_Tot_abs_Q>  (163) 
0

>  <s_lp_Force_Field>  (163) 
OPLS3e

>  <r_lp_Energy>  (163) 
74.5331

>  <b_lp_Chiralities_Consistent>  (163) 
1

>  <s_lp_Variant>  (163) 
36:0-1

>  <s_i_glide_gridfile>  (163) 
pfpi4k_grid

>  <i_i_glide_lignum>  (163) 
23

>  <i_i_glide_rotatable_bonds>  (163) 
3

>  <r_i_docking_score>  (163) 
-3.296

>  <r_i_glide_ligand_efficiency>  (163) 
-0.13184

>  <r_i_glide_ligand_efficiency_sa>  (163) 
-0.385502

>  <r_i_glide_ligand_efficiency_ln>  (163) 
-0.78125

>  <r_i_glide_gscore>  (163) 
-3.296

>  <r_i_glide_lipo>  (163) 
-0.45819

>  <r_i_glide_hbond>  (163) 
-0.32

>  <r_i_glide_metal>  (163) 
-0

>  <r_i_glide_rewards>  (163) 
-1.01966

>  <r_i_glide_evdw>  (163) 
-13.6485

>  <r_i_glide_ecoul>  (163) 
-5.43809

>  <r_i_glide_erotb>  (163) 
0

>  <r_i_glide_esite>  (163) 
0

>  <r_i_glide_emodel>  (163) 
-21.1668

>  <r_i_glide_energy>  (163) 
-19.0866

>  <r_i_glide_einternal>  (163) 
0.750599

>  <r_i_glide_intrahb_reward>  (163) 
-0

>  <i_i_glide_confnum>  (163) 
1

>  <i_i_glide_posenum>  (163) 
26

>  <r_i_glide_eff_state_penalty>  (163) 
0

>  <ligand_id>  (163) 
36

>  <original_smiles>  (163) 
CC1(C)C(O)CCC2(C)C3CC4OC45C(O)C4OC4C5(C)C3C(O)C12

>  <smiles>  (163) 
[H]OC1([H])C2([H])C(C([H])([H])[H])(C([H])([H])[H])C([H])(O[H])C([H])([H])C([H])([H])C2(C([H])([H])[H])C2([H])C([H])([H])C3([H])OC34C([H])(O[H])C3([H])OC3([H])C4(C([H])([H])[H])C12[H]

$$$$
37:0:0
     RDKit          3D

 64 69  0  0  1  0  0  0  0  0999 V2000
   -1.6391   -8.7358    2.2976 C   0  0  0  0  0  0  0  0  0  0  0  0
   -0.1686   -8.8503    2.7367 C   0  0  1  0  0  0  0  0  0  0  0  0
    0.2119  -10.1879    2.4843 O   0  0  0  0  0  0  0  0  0  0  0  0
    0.7478   -7.9249    1.9242 C   0  0  0  0  0  0  0  0  0  0  0  0
    0.8115   -6.6006    2.6941 C   0  0  0  0  0  0  0  0  0  0  0  0
    0.2250   -6.8642    4.0979 C   0  0  1  0  0  0  0  0  0  0  0  0
    0.0285   -8.3967    4.2071 C   0  0  2  0  0  0  0  0  0  0  0  0
    1.2018   -9.0915    4.9188 C   0  0  0  0  0  0  0  0  0  0  0  0
    1.5913   -8.3747    6.2202 C   0  0  0  0  0  0  0  0  0  0  0  0
    2.0662   -6.9005    6.0134 C   0  0  1  0  0  0  0  0  0  0  0  0
    3.3321   -6.9475    5.1162 C   0  0  0  0  0  0  0  0  0  0  0  0
    0.9284   -6.1164    5.2814 C   0  0  2  0  0  0  0  0  0  0  0  0
   -0.0984   -5.5412    6.2849 C   0  0  0  0  0  0  0  0  0  0  0  0
    0.5045   -4.6489    7.4209 C   0  0  1  0  0  0  0  0  0  0  0  0
   -0.2146   -3.2745    7.3168 C   0  0  0  0  0  0  0  0  0  0  0  0
    0.2359   -5.1685    8.9071 C   0  0  2  0  0  0  0  0  0  0  0  0
    1.1306   -4.5174   10.0017 C   0  0  0  0  0  0  0  0  0  0  0  0
    2.2780   -3.8532    9.7307 C   0  0  0  0  0  0  0  0  0  0  0  0
    2.5097   -3.4928    8.2942 C   0  0  1  0  0  0  0  0  0  0  0  0
    3.7490   -3.3976    7.4360 C   0  0  0  0  0  0  0  0  0  0  0  0
    4.1340   -2.0093    6.9152 C   0  0  0  0  0  0  0  0  0  0  0  0
    5.0260   -4.1617    7.8139 C   0  0  0  0  0  0  0  0  0  0  0  0
    2.9282   -4.0074    6.3580 O   0  0  0  0  0  0  0  0  0  0  0  0
    2.0544   -4.6201    7.3576 C   0  0  2  0  0  0  0  0  0  0  0  0
    2.4951   -6.1533    7.3539 C   0  0  1  0  0  0  0  0  0  0  0  0
    2.0922   -6.9086    8.6538 C   0  0  0  0  0  0  0  0  0  0  0  0
    0.6357   -6.6364    9.0114 C   0  0  0  0  0  0  0  0  0  0  0  0
   -0.1467   -7.5116    9.3791 O   0  0  0  0  0  0  0  0  0  0  0  0
   -2.0114   -7.7150    2.3759 H   0  0  0  0  0  0  0  0  0  0  0  0
   -2.2803   -9.3749    2.9041 H   0  0  0  0  0  0  0  0  0  0  0  0
   -1.7659   -9.0530    1.2678 H   0  0  0  0  0  0  0  0  0  0  0  0
    0.1416  -10.3405    1.5505 H   0  0  0  0  0  0  0  0  0  0  0  0
    1.7529   -8.3487    1.8778 H   0  0  0  0  0  0  0  0  0  0  0  0
    0.4132   -7.8001    0.8922 H   0  0  0  0  0  0  0  0  0  0  0  0
    1.8312   -6.2175    2.7173 H   0  0  0  0  0  0  0  0  0  0  0  0
    0.2151   -5.8508    2.1818 H   0  0  0  0  0  0  0  0  0  0  0  0
   -0.7854   -6.4618    4.0342 H   0  0  0  0  0  0  0  0  0  0  0  0
   -0.8716   -8.6153    4.7881 H   0  0  0  0  0  0  0  0  0  0  0  0
    0.9068  -10.1144    5.1606 H   0  0  0  0  0  0  0  0  0  0  0  0
    2.0585   -9.1927    4.2536 H   0  0  0  0  0  0  0  0  0  0  0  0
    0.7161   -8.4123    6.8694 H   0  0  0  0  0  0  0  0  0  0  0  0
    2.3613   -8.9673    6.7176 H   0  0  0  0  0  0  0  0  0  0  0  0
    3.7753   -5.9608    4.9914 H   0  0  0  0  0  0  0  0  0  0  0  0
    3.1364   -7.3276    4.1167 H   0  0  0  0  0  0  0  0  0  0  0  0
    4.0948   -7.5977    5.5498 H   0  0  0  0  0  0  0  0  0  0  0  0
    1.3868   -5.2385    4.8270 H   0  0  0  0  0  0  0  0  0  0  0  0
   -0.8049   -4.9521    5.7007 H   0  0  0  0  0  0  0  0  0  0  0  0
   -0.7018   -6.3364    6.7014 H   0  0  0  0  0  0  0  0  0  0  0  0
   -0.0749   -2.6471    8.1977 H   0  0  0  0  0  0  0  0  0  0  0  0
   -1.2935   -3.4161    7.2434 H   0  0  0  0  0  0  0  0  0  0  0  0
    0.1129   -2.7175    6.4361 H   0  0  0  0  0  0  0  0  0  0  0  0
   -0.8154   -5.0614    9.1761 H   0  0  0  0  0  0  0  0  0  0  0  0
    0.8597   -4.7295   11.0285 H   0  0  0  0  0  0  0  0  0  0  0  0
    2.9220   -3.4453   10.4952 H   0  0  0  0  0  0  0  0  0  0  0  0
    2.0032   -2.5432    8.1466 H   0  0  0  0  0  0  0  0  0  0  0  0
    4.6042   -1.4046    7.6921 H   0  0  0  0  0  0  0  0  0  0  0  0
    3.2615   -1.4570    6.5607 H   0  0  0  0  0  0  0  0  0  0  0  0
    4.8282   -2.0764    6.0782 H   0  0  0  0  0  0  0  0  0  0  0  0
    5.7405   -3.5015    8.3078 H   0  0  0  0  0  0  0  0  0  0  0  0
    5.5216   -4.5629    6.9297 H   0  0  0  0  0  0  0  0  0  0  0  0
    4.8468   -4.9760    8.5145 H   0  0  0  0  0  0  0  0  0  0  0  0
    3.5746   -6.2253    7.3830 H   0  0  0  0  0  0  0  0  0  0  0  0
    2.2741   -7.9814    8.6029 H   0  0  0  0  0  0  0  0  0  0  0  0
    2.7100   -6.5627    9.4813 H   0  0  0  0  0  0  0  0  0  0  0  0
  1  2  1  0
  1 29  1  0
  1 30  1  0
  1 31  1  0
  2  7  1  0
  2  3  1  1
  2  4  1  0
  3 32  1  0
  4  5  1  0
  4 33  1  0
  4 34  1  0
  5  6  1  0
  5 35  1  0
  5 36  1  0
  6 12  1  0
  6  7  1  0
  6 37  1  6
  7  8  1  0
  7 38  1  1
  8  9  1  0
  8 39  1  0
  8 40  1  0
  9 10  1  0
  9 41  1  0
  9 42  1  0
 10 25  1  0
 10 11  1  6
 10 12  1  0
 11 43  1  0
 11 44  1  0
 11 45  1  0
 12 13  1  0
 12 46  1  6
 13 14  1  0
 13 47  1  0
 13 48  1  0
 14 24  1  0
 14 15  1  1
 14 16  1  0
 15 49  1  0
 15 50  1  0
 15 51  1  0
 16 27  1  0
 16 17  1  0
 16 52  1  1
 17 18  2  0
 17 53  1  0
 18 19  1  0
 18 54  1  0
 19 24  1  0
 19 20  1  0
 19 55  1  6
 20 21  1  0
 20 22  1  0
 20 23  1  0
 21 56  1  0
 21 57  1  0
 21 58  1  0
 22 59  1  0
 22 60  1  0
 22 61  1  0
 24 23  1  6
 24 25  1  0
 25 26  1  0
 25 62  1  6
 26 27  1  0
 26 63  1  0
 26 64  1  0
 27 28  2  0
M  END
>  <i_m_ct_stereo_status>  (164) 
1

>  <s_m_source_file>  (164) 
/var/tmp/pbs.5076255.sched01/tmpuxvxg9lz/41q4u19exn.sdf

>  <i_m_source_file_index>  (164) 
24

>  <i_lp_mmshare_version>  (164) 
48012

>  <i_f3d_flags>  (164) 
0

>  <s_epik_input>  (164) 
W0NIMl0xW0NIMl1bQ0BAXShbQ0gzXSkoW09IXSlbQ0BASF0oW0NIMl1bQ0gyXTIpW0NASF0xW0NAQEhdKFtDSDJdMylbQ0BAXTIoW0NIM10pW0NAQEhdNFtDSDJdQyg9TylbQ0BIXShbQ0BdMyhbQ0BdNDU2KVtDSDNdKVtDSF09W0NIXVtDQEhdNUMoTzYpKFtDSDNdKVtDSDNd

>  <s_epik_cmdline>  (164) 
J2VwaWtfcHl0aG9uJywgJy1waHQnLCAnMi4wJywgJy1waCcsICc3LjAnLCAnLXRuJywgJzgnLCAnLW1hJywgJzIwMCcsICctaW1hZScsICc8aW5maWxlLm1hZT4nLCAnLW9tYWUnLCAnPG91dGZpbGUubWFlPic=

>  <r_lp_tautomer_probability>  (164) 
1

>  <r_epik_Ionization_Penalty>  (164) 
2.17737e-06

>  <r_epik_Ionization_Penalty_Charging>  (164) 
0

>  <r_epik_Ionization_Penalty_Neutral>  (164) 
2.17737e-06

>  <r_epik_State_Penalty>  (164) 
-0

>  <r_epik_Charging_Adjusted_Penalty>  (164) 
0

>  <i_epik_Tot_Q>  (164) 
0

>  <i_epik_Tot_abs_Q>  (164) 
0

>  <s_lp_Force_Field>  (164) 
OPLS3e

>  <r_lp_Energy>  (164) 
90.7993

>  <b_lp_Chiralities_Consistent>  (164) 
1

>  <s_lp_Variant>  (164) 
37:0-1

>  <s_i_glide_gridfile>  (164) 
pfpi4k_grid

>  <i_i_glide_lignum>  (164) 
24

>  <i_i_glide_rotatable_bonds>  (164) 
1

>  <r_i_docking_score>  (164) 
-3.11631

>  <r_i_glide_ligand_efficiency>  (164) 
-0.111297

>  <r_i_glide_ligand_efficiency_sa>  (164) 
-0.337963

>  <r_i_glide_ligand_efficiency_ln>  (164) 
-0.719337

>  <r_i_glide_gscore>  (164) 
-3.11631

>  <r_i_glide_lipo>  (164) 
-0.196146

>  <r_i_glide_hbond>  (164) 
-0.608

>  <r_i_glide_metal>  (164) 
-0

>  <r_i_glide_rewards>  (164) 
-0.787149

>  <r_i_glide_evdw>  (164) 
-15.2433

>  <r_i_glide_ecoul>  (164) 
-4.94275

>  <r_i_glide_erotb>  (164) 
0

>  <r_i_glide_esite>  (164) 
-0.0214429

>  <r_i_glide_emodel>  (164) 
-24.4679

>  <r_i_glide_energy>  (164) 
-20.186

>  <r_i_glide_einternal>  (164) 
0.0627546

>  <r_i_glide_intrahb_reward>  (164) 
-0

>  <i_i_glide_confnum>  (164) 
2

>  <i_i_glide_posenum>  (164) 
20

>  <r_i_glide_eff_state_penalty>  (164) 
0

>  <ligand_id>  (164) 
37

>  <original_smiles>  (164) 
CC1(O)CCC2C1CCC1(C)C2CC2(C)C3C=CC4C(C)(C)OC42C1CC3=O

>  <smiles>  (164) 
[H]OC1(C([H])([H])[H])C([H])([H])C([H])([H])C2([H])C1([H])C([H])([H])C([H])([H])C1(C([H])([H])[H])C2([H])C([H])([H])C2(C([H])([H])[H])C3([H])C(=O)C([H])([H])C1([H])C21OC(C([H])([H])[H])(C([H])([H])[H])C1([H])C([H])=C3[H]

$$$$
37:0:1
     RDKit          3D

 64 69  0  0  1  0  0  0  0  0999 V2000
    0.4501  -10.0938    6.1472 C   0  0  0  0  0  0  0  0  0  0  0  0
    1.4787  -10.2015    5.0121 C   0  0  1  0  0  0  0  0  0  0  0  0
    2.2152  -11.3804    5.2752 O   0  0  0  0  0  0  0  0  0  0  0  0
    0.7878  -10.2770    3.6392 C   0  0  0  0  0  0  0  0  0  0  0  0
    0.6517   -8.8242    3.1511 C   0  0  0  0  0  0  0  0  0  0  0  0
    1.5639   -7.9613    4.0509 C   0  0  1  0  0  0  0  0  0  0  0  0
    2.3828   -8.9474    4.9148 C   0  0  2  0  0  0  0  0  0  0  0  0
    3.7722   -9.2337    4.3134 C   0  0  0  0  0  0  0  0  0  0  0  0
    4.5045   -7.9441    3.9137 C   0  0  0  0  0  0  0  0  0  0  0  0
    3.7616   -7.1161    2.8221 C   0  0  1  0  0  0  0  0  0  0  0  0
    3.6757   -8.0058    1.5559 C   0  0  0  0  0  0  0  0  0  0  0  0
    2.3240   -6.7904    3.3416 C   0  0  2  0  0  0  0  0  0  0  0  0
    2.3136   -5.5044    4.2007 C   0  0  0  0  0  0  0  0  0  0  0  0
    2.9120   -4.2368    3.4942 C   0  0  1  0  0  0  0  0  0  0  0  0
    1.7929   -3.1575    3.5119 C   0  0  0  0  0  0  0  0  0  0  0  0
    4.1570   -3.5745    4.2384 C   0  0  2  0  0  0  0  0  0  0  0  0
    4.9799   -2.5723    3.3757 C   0  0  0  0  0  0  0  0  0  0  0  0
    4.9134   -2.5155    2.0266 C   0  0  0  0  0  0  0  0  0  0  0  0
    3.7698   -3.2469    1.3933 C   0  0  1  0  0  0  0  0  0  0  0  0
    3.6249   -4.0045    0.0972 C   0  0  0  0  0  0  0  0  0  0  0  0
    2.6698   -3.4232   -0.9478 C   0  0  0  0  0  0  0  0  0  0  0  0
    4.8529   -4.5796   -0.6240 C   0  0  0  0  0  0  0  0  0  0  0  0
    2.8135   -4.9736    0.8747 O   0  0  0  0  0  0  0  0  0  0  0  0
    3.5025   -4.5807    2.1033 C   0  0  2  0  0  0  0  0  0  0  0  0
    4.5114   -5.7831    2.3757 C   0  0  1  0  0  0  0  0  0  0  0  0
    5.6957   -5.3886    3.3064 C   0  0  0  0  0  0  0  0  0  0  0  0
    5.1917   -4.6492    4.5417 C   0  0  0  0  0  0  0  0  0  0  0  0
    5.6107   -4.8736    5.6722 O   0  0  0  0  0  0  0  0  0  0  0  0
   -0.2067   -9.2310    6.0379 H   0  0  0  0  0  0  0  0  0  0  0  0
    0.9490  -10.0211    7.1120 H   0  0  0  0  0  0  0  0  0  0  0  0
   -0.1800  -10.9847    6.1809 H   0  0  0  0  0  0  0  0  0  0  0  0
    1.9300  -11.7414    6.1273 H   0  0  0  0  0  0  0  0  0  0  0  0
    1.4085  -10.8228    2.9272 H   0  0  0  0  0  0  0  0  0  0  0  0
   -0.1755  -10.7902    3.6782 H   0  0  0  0  0  0  0  0  0  0  0  0
    0.8876   -8.7455    2.0887 H   0  0  0  0  0  0  0  0  0  0  0  0
   -0.3818   -8.4922    3.2626 H   0  0  0  0  0  0  0  0  0  0  0  0
    0.8651   -7.5024    4.7486 H   0  0  0  0  0  0  0  0  0  0  0  0
    2.5409   -8.5295    5.9111 H   0  0  0  0  0  0  0  0  0  0  0  0
    4.3751   -9.7511    5.0613 H   0  0  0  0  0  0  0  0  0  0  0  0
    3.7050   -9.9302    3.4765 H   0  0  0  0  0  0  0  0  0  0  0  0
    4.6230   -7.3589    4.8253 H   0  0  0  0  0  0  0  0  0  0  0  0
    5.5129   -8.2066    3.5870 H   0  0  0  0  0  0  0  0  0  0  0  0
    3.2526   -7.4511    0.7242 H   0  0  0  0  0  0  0  0  0  0  0  0
    3.0638   -8.8953    1.6894 H   0  0  0  0  0  0  0  0  0  0  0  0
    4.6637   -8.3563    1.2470 H   0  0  0  0  0  0  0  0  0  0  0  0
    1.7148   -6.5495    2.4713 H   0  0  0  0  0  0  0  0  0  0  0  0
    1.2694   -5.3063    4.4520 H   0  0  0  0  0  0  0  0  0  0  0  0
    2.7819   -5.6854    5.1657 H   0  0  0  0  0  0  0  0  0  0  0  0
    2.1516   -2.1513    3.2821 H   0  0  0  0  0  0  0  0  0  0  0  0
    1.3538   -3.0697    4.5065 H   0  0  0  0  0  0  0  0  0  0  0  0
    0.9886   -3.4033    2.8175 H   0  0  0  0  0  0  0  0  0  0  0  0
    3.8498   -3.0964    5.1686 H   0  0  0  0  0  0  0  0  0  0  0  0
    5.7227   -1.9913    3.9073 H   0  0  0  0  0  0  0  0  0  0  0  0
    5.5211   -1.8497    1.4280 H   0  0  0  0  0  0  0  0  0  0  0  0
    2.9357   -2.5519    1.3968 H   0  0  0  0  0  0  0  0  0  0  0  0
    3.1087   -2.5760   -1.4781 H   0  0  0  0  0  0  0  0  0  0  0  0
    1.7565   -3.0553   -0.4842 H   0  0  0  0  0  0  0  0  0  0  0  0
    2.3696   -4.1652   -1.6856 H   0  0  0  0  0  0  0  0  0  0  0  0
    5.1584   -3.9299   -1.4465 H   0  0  0  0  0  0  0  0  0  0  0  0
    4.6367   -5.5558   -1.0595 H   0  0  0  0  0  0  0  0  0  0  0  0
    5.7271   -4.6684    0.0190 H   0  0  0  0  0  0  0  0  0  0  0  0
    5.0310   -6.0458    1.4632 H   0  0  0  0  0  0  0  0  0  0  0  0
    6.3150   -6.2348    3.6020 H   0  0  0  0  0  0  0  0  0  0  0  0
    6.3723   -4.7233    2.7714 H   0  0  0  0  0  0  0  0  0  0  0  0
  1  2  1  0
  1 29  1  0
  1 30  1  0
  1 31  1  0
  2  7  1  0
  2  3  1  1
  2  4  1  0
  3 32  1  0
  4  5  1  0
  4 33  1  0
  4 34  1  0
  5  6  1  0
  5 35  1  0
  5 36  1  0
  6 12  1  0
  6  7  1  0
  6 37  1  1
  7  8  1  0
  7 38  1  1
  8  9  1  0
  8 39  1  0
  8 40  1  0
  9 10  1  0
  9 41  1  0
  9 42  1  0
 10 25  1  0
 10 11  1  6
 10 12  1  0
 11 43  1  0
 11 44  1  0
 11 45  1  0
 12 13  1  0
 12 46  1  6
 13 14  1  0
 13 47  1  0
 13 48  1  0
 14 24  1  0
 14 15  1  6
 14 16  1  0
 15 49  1  0
 15 50  1  0
 15 51  1  0
 16 27  1  0
 16 17  1  0
 16 52  1  1
 17 18  2  0
 17 53  1  0
 18 19  1  0
 18 54  1  0
 19 24  1  0
 19 20  1  0
 19 55  1  6
 20 21  1  0
 20 22  1  0
 20 23  1  0
 21 56  1  0
 21 57  1  0
 21 58  1  0
 22 59  1  0
 22 60  1  0
 22 61  1  0
 24 23  1  6
 24 25  1  0
 25 26  1  0
 25 62  1  6
 26 27  1  0
 26 63  1  0
 26 64  1  0
 27 28  2  0
M  END
>  <i_m_ct_stereo_status>  (165) 
1

>  <s_m_source_file>  (165) 
/var/tmp/pbs.5076255.sched01/tmpuxvxg9lz/41q4u19exn.sdf

>  <i_m_source_file_index>  (165) 
24

>  <i_lp_mmshare_version>  (165) 
48012

>  <i_f3d_flags>  (165) 
0

>  <s_epik_input>  (165) 
W0NIMl0xW0NIMl1bQ0BAXShbQ0gzXSkoW09IXSlbQ0BASF0oW0NIMl1bQ0gyXTIpW0NASF0xW0NAQEhdKFtDSDJdMylbQ0BAXTIoW0NIM10pW0NAQEhdNFtDSDJdQyg9TylbQ0BIXShbQ0BdMyhbQ0BdNDU2KVtDSDNdKVtDSF09W0NIXVtDQEhdNUMoTzYpKFtDSDNdKVtDSDNd

>  <s_epik_cmdline>  (165) 
J2VwaWtfcHl0aG9uJywgJy1waHQnLCAnMi4wJywgJy1waCcsICc3LjAnLCAnLXRuJywgJzgnLCAnLW1hJywgJzIwMCcsICctaW1hZScsICc8aW5maWxlLm1hZT4nLCAnLW9tYWUnLCAnPG91dGZpbGUubWFlPic=

>  <r_lp_tautomer_probability>  (165) 
1

>  <r_epik_Ionization_Penalty>  (165) 
2.17737e-06

>  <r_epik_Ionization_Penalty_Charging>  (165) 
0

>  <r_epik_Ionization_Penalty_Neutral>  (165) 
2.17737e-06

>  <r_epik_State_Penalty>  (165) 
-0

>  <r_epik_Charging_Adjusted_Penalty>  (165) 
0

>  <i_epik_Tot_Q>  (165) 
0

>  <i_epik_Tot_abs_Q>  (165) 
0

>  <s_lp_Force_Field>  (165) 
OPLS3e

>  <r_lp_Energy>  (165) 
90.7993

>  <b_lp_Chiralities_Consistent>  (165) 
1

>  <s_lp_Variant>  (165) 
37:0-1

>  <s_i_glide_gridfile>  (165) 
pfpi4k_grid

>  <i_i_glide_lignum>  (165) 
24

>  <i_i_glide_rotatable_bonds>  (165) 
1

>  <r_i_docking_score>  (165) 
-2.49675

>  <r_i_glide_ligand_efficiency>  (165) 
-0.0891696

>  <r_i_glide_ligand_efficiency_sa>  (165) 
-0.270771

>  <r_i_glide_ligand_efficiency_ln>  (165) 
-0.576323

>  <r_i_glide_gscore>  (165) 
-2.49675

>  <r_i_glide_lipo>  (165) 
-0.128818

>  <r_i_glide_hbond>  (165) 
-0.16

>  <r_i_glide_metal>  (165) 
-0

>  <r_i_glide_rewards>  (165) 
-0.787899

>  <r_i_glide_evdw>  (165) 
-16.6096

>  <r_i_glide_ecoul>  (165) 
-3.93035

>  <r_i_glide_erotb>  (165) 
0

>  <r_i_glide_esite>  (165) 
0

>  <r_i_glide_emodel>  (165) 
-23.2931

>  <r_i_glide_energy>  (165) 
-20.5399

>  <r_i_glide_einternal>  (165) 
1.23696

>  <r_i_glide_intrahb_reward>  (165) 
-0

>  <i_i_glide_confnum>  (165) 
2

>  <i_i_glide_posenum>  (165) 
19

>  <r_i_glide_eff_state_penalty>  (165) 
0

>  <ligand_id>  (165) 
37

>  <original_smiles>  (165) 
CC1(O)CCC2C1CCC1(C)C2CC2(C)C3C=CC4C(C)(C)OC42C1CC3=O

>  <smiles>  (165) 
[H]OC1(C([H])([H])[H])C([H])([H])C([H])([H])C2([H])C1([H])C([H])([H])C([H])([H])C1(C([H])([H])[H])C2([H])C([H])([H])C2(C([H])([H])[H])C3([H])C(=O)C([H])([H])C1([H])C21OC(C([H])([H])[H])(C([H])([H])[H])C1([H])C([H])=C3[H]

$$$$
37:0:2
     RDKit          3D

 64 69  0  0  1  0  0  0  0  0999 V2000
   -0.8945   -8.0689    4.8617 C   0  0  0  0  0  0  0  0  0  0  0  0
    0.3081   -8.4008    3.9656 C   0  0  1  0  0  0  0  0  0  0  0  0
    0.7919   -9.6427    4.4350 O   0  0  0  0  0  0  0  0  0  0  0  0
   -0.0996   -8.5147    2.4911 C   0  0  0  0  0  0  0  0  0  0  0  0
    0.0676   -7.1100    1.8933 C   0  0  0  0  0  0  0  0  0  0  0  0
    0.8940   -6.2852    2.9063 C   0  0  1  0  0  0  0  0  0  0  0  0
    1.3809   -7.2808    3.9836 C   0  0  2  0  0  0  0  0  0  0  0  0
    2.8125   -7.7816    3.7167 C   0  0  0  0  0  0  0  0  0  0  0  0
    3.7760   -6.6287    3.3936 C   0  0  0  0  0  0  0  0  0  0  0  0
    3.3882   -5.8230    2.1147 C   0  0  1  0  0  0  0  0  0  0  0  0
    3.4366   -6.8083    0.9191 C   0  0  0  0  0  0  0  0  0  0  0  0
    1.9339   -5.2839    2.2993 C   0  0  2  0  0  0  0  0  0  0  0  0
    1.9239   -3.9273    3.0463 C   0  0  0  0  0  0  0  0  0  0  0  0
    2.8158   -2.8109    2.3982 C   0  0  1  0  0  0  0  0  0  0  0  0
    1.8740   -1.6108    2.1092 C   0  0  0  0  0  0  0  0  0  0  0  0
    3.9655   -2.2327    3.3405 C   0  0  2  0  0  0  0  0  0  0  0  0
    5.0727   -1.4200    2.6066 C   0  0  0  0  0  0  0  0  0  0  0  0
    5.2839   -1.4795    1.2710 C   0  0  0  0  0  0  0  0  0  0  0  0
    4.2037   -2.1322    0.4610 C   0  0  1  0  0  0  0  0  0  0  0  0
    4.2171   -2.9874   -0.7835 C   0  0  0  0  0  0  0  0  0  0  0  0
    3.5711   -2.4014   -2.0433 C   0  0  0  0  0  0  0  0  0  0  0  0
    5.4767   -3.7665   -1.1886 C   0  0  0  0  0  0  0  0  0  0  0  0
    3.1501   -3.7866   -0.1250 O   0  0  0  0  0  0  0  0  0  0  0  0
    3.6234   -3.3536    1.1884 C   0  0  2  0  0  0  0  0  0  0  0  0
    4.3864   -4.6366    1.7497 C   0  0  1  0  0  0  0  0  0  0  0  0
    5.3987   -4.2975    2.8801 C   0  0  0  0  0  0  0  0  0  0  0  0
    4.7641   -3.3908    3.9277 C   0  0  0  0  0  0  0  0  0  0  0  0
    4.9092   -3.5578    5.1378 O   0  0  0  0  0  0  0  0  0  0  0  0
   -1.3831   -7.1394    4.5728 H   0  0  0  0  0  0  0  0  0  0  0  0
   -0.5775   -7.9801    5.8997 H   0  0  0  0  0  0  0  0  0  0  0  0
   -1.6450   -8.8561    4.8174 H   0  0  0  0  0  0  0  0  0  0  0  0
    0.0569  -10.2299    4.5525 H   0  0  0  0  0  0  0  0  0  0  0  0
    0.5808   -9.1944    1.9767 H   0  0  0  0  0  0  0  0  0  0  0  0
   -1.1080   -8.9128    2.3564 H   0  0  0  0  0  0  0  0  0  0  0  0
    0.5251   -7.1687    0.9054 H   0  0  0  0  0  0  0  0  0  0  0  0
   -0.9121   -6.6553    1.7572 H   0  0  0  0  0  0  0  0  0  0  0  0
    0.1489   -5.6808    3.4206 H   0  0  0  0  0  0  0  0  0  0  0  0
    1.3916   -6.7918    4.9604 H   0  0  0  0  0  0  0  0  0  0  0  0
    3.1760   -8.2935    4.6086 H   0  0  0  0  0  0  0  0  0  0  0  0
    2.8232   -8.5378    2.9317 H   0  0  0  0  0  0  0  0  0  0  0  0
    3.7884   -5.9768    4.2673 H   0  0  0  0  0  0  0  0  0  0  0  0
    4.7843   -7.0366    3.3047 H   0  0  0  0  0  0  0  0  0  0  0  0
    3.2614   -6.2913   -0.0234 H   0  0  0  0  0  0  0  0  0  0  0  0
    2.6977   -7.6024    0.9899 H   0  0  0  0  0  0  0  0  0  0  0  0
    4.4100   -7.2985    0.8491 H   0  0  0  0  0  0  0  0  0  0  0  0
    1.5609   -5.0595    1.3024 H   0  0  0  0  0  0  0  0  0  0  0  0
    0.8882   -3.5865    3.0598 H   0  0  0  0  0  0  0  0  0  0  0  0
    2.1605   -4.0724    4.0989 H   0  0  0  0  0  0  0  0  0  0  0  0
    2.3994   -0.6816    1.8864 H   0  0  0  0  0  0  0  0  0  0  0  0
    1.2561   -1.3795    2.9754 H   0  0  0  0  0  0  0  0  0  0  0  0
    1.1988   -1.8286    1.2806 H   0  0  0  0  0  0  0  0  0  0  0  0
    3.5438   -1.6374    4.1506 H   0  0  0  0  0  0  0  0  0  0  0  0
    5.7689   -0.8853    3.2411 H   0  0  0  0  0  0  0  0  0  0  0  0
    6.0850   -0.9517    0.7756 H   0  0  0  0  0  0  0  0  0  0  0  0
    3.4851   -1.3469    0.2424 H   0  0  0  0  0  0  0  0  0  0  0  0
    4.2176   -1.6639   -2.5220 H   0  0  0  0  0  0  0  0  0  0  0  0
    2.6260   -1.9018   -1.8180 H   0  0  0  0  0  0  0  0  0  0  0  0
    3.3497   -3.1796   -2.7738 H   0  0  0  0  0  0  0  0  0  0  0  0
    6.0277   -3.2405   -1.9702 H   0  0  0  0  0  0  0  0  0  0  0  0
    5.2135   -4.7455   -1.5889 H   0  0  0  0  0  0  0  0  0  0  0  0
    6.1827   -3.8995   -0.3700 H   0  0  0  0  0  0  0  0  0  0  0  0
    5.0376   -5.0414    0.9852 H   0  0  0  0  0  0  0  0  0  0  0  0
    5.8270   -5.1797    3.3551 H   0  0  0  0  0  0  0  0  0  0  0  0
    6.2481   -3.7681    2.4521 H   0  0  0  0  0  0  0  0  0  0  0  0
  1  2  1  0
  1 29  1  0
  1 30  1  0
  1 31  1  0
  2  7  1  0
  2  3  1  1
  2  4  1  0
  3 32  1  0
  4  5  1  0
  4 33  1  0
  4 34  1  0
  5  6  1  0
  5 35  1  0
  5 36  1  0
  6 12  1  0
  6  7  1  0
  6 37  1  1
  7  8  1  0
  7 38  1  1
  8  9  1  0
  8 39  1  0
  8 40  1  0
  9 10  1  0
  9 41  1  0
  9 42  1  0
 10 25  1  0
 10 11  1  6
 10 12  1  0
 11 43  1  0
 11 44  1  0
 11 45  1  0
 12 13  1  0
 12 46  1  6
 13 14  1  0
 13 47  1  0
 13 48  1  0
 14 24  1  0
 14 15  1  6
 14 16  1  0
 15 49  1  0
 15 50  1  0
 15 51  1  0
 16 27  1  0
 16 17  1  0
 16 52  1  1
 17 18  2  0
 17 53  1  0
 18 19  1  0
 18 54  1  0
 19 24  1  0
 19 20  1  0
 19 55  1  6
 20 21  1  0
 20 22  1  0
 20 23  1  0
 21 56  1  0
 21 57  1  0
 21 58  1  0
 22 59  1  0
 22 60  1  0
 22 61  1  0
 24 23  1  6
 24 25  1  0
 25 26  1  0
 25 62  1  6
 26 27  1  0
 26 63  1  0
 26 64  1  0
 27 28  2  0
M  END
>  <i_m_ct_stereo_status>  (166) 
1

>  <s_m_source_file>  (166) 
/var/tmp/pbs.5076255.sched01/tmpuxvxg9lz/41q4u19exn.sdf

>  <i_m_source_file_index>  (166) 
24

>  <i_lp_mmshare_version>  (166) 
48012

>  <i_f3d_flags>  (166) 
0

>  <s_epik_input>  (166) 
W0NIMl0xW0NIMl1bQ0BAXShbQ0gzXSkoW09IXSlbQ0BASF0oW0NIMl1bQ0gyXTIpW0NASF0xW0NAQEhdKFtDSDJdMylbQ0BAXTIoW0NIM10pW0NAQEhdNFtDSDJdQyg9TylbQ0BIXShbQ0BdMyhbQ0BdNDU2KVtDSDNdKVtDSF09W0NIXVtDQEhdNUMoTzYpKFtDSDNdKVtDSDNd

>  <s_epik_cmdline>  (166) 
J2VwaWtfcHl0aG9uJywgJy1waHQnLCAnMi4wJywgJy1waCcsICc3LjAnLCAnLXRuJywgJzgnLCAnLW1hJywgJzIwMCcsICctaW1hZScsICc8aW5maWxlLm1hZT4nLCAnLW9tYWUnLCAnPG91dGZpbGUubWFlPic=

>  <r_lp_tautomer_probability>  (166) 
1

>  <r_epik_Ionization_Penalty>  (166) 
2.17737e-06

>  <r_epik_Ionization_Penalty_Charging>  (166) 
0

>  <r_epik_Ionization_Penalty_Neutral>  (166) 
2.17737e-06

>  <r_epik_State_Penalty>  (166) 
-0

>  <r_epik_Charging_Adjusted_Penalty>  (166) 
0

>  <i_epik_Tot_Q>  (166) 
0

>  <i_epik_Tot_abs_Q>  (166) 
0

>  <s_lp_Force_Field>  (166) 
OPLS3e

>  <r_lp_Energy>  (166) 
90.7993

>  <b_lp_Chiralities_Consistent>  (166) 
1

>  <s_lp_Variant>  (166) 
37:0-1

>  <s_i_glide_gridfile>  (166) 
pfpi4k_grid

>  <i_i_glide_lignum>  (166) 
24

>  <i_i_glide_rotatable_bonds>  (166) 
1

>  <r_i_docking_score>  (166) 
-2.30423

>  <r_i_glide_ligand_efficiency>  (166) 
-0.082294

>  <r_i_glide_ligand_efficiency_sa>  (166) 
-0.249893

>  <r_i_glide_ligand_efficiency_ln>  (166) 
-0.531885

>  <r_i_glide_gscore>  (166) 
-2.30423

>  <r_i_glide_lipo>  (166) 
-0.338844

>  <r_i_glide_hbond>  (166) 
0

>  <r_i_glide_metal>  (166) 
-0

>  <r_i_glide_rewards>  (166) 
-0.824362

>  <r_i_glide_evdw>  (166) 
-22.2265

>  <r_i_glide_ecoul>  (166) 
-0.197997

>  <r_i_glide_erotb>  (166) 
0

>  <r_i_glide_esite>  (166) 
0

>  <r_i_glide_emodel>  (166) 
-25.456

>  <r_i_glide_energy>  (166) 
-22.4245

>  <r_i_glide_einternal>  (166) 
0.120373

>  <r_i_glide_intrahb_reward>  (166) 
-0

>  <i_i_glide_confnum>  (166) 
2

>  <i_i_glide_posenum>  (166) 
30

>  <r_i_glide_eff_state_penalty>  (166) 
0

>  <ligand_id>  (166) 
37

>  <original_smiles>  (166) 
CC1(O)CCC2C1CCC1(C)C2CC2(C)C3C=CC4C(C)(C)OC42C1CC3=O

>  <smiles>  (166) 
[H]OC1(C([H])([H])[H])C([H])([H])C([H])([H])C2([H])C1([H])C([H])([H])C([H])([H])C1(C([H])([H])[H])C2([H])C([H])([H])C2(C([H])([H])[H])C3([H])C(=O)C([H])([H])C1([H])C21OC(C([H])([H])[H])(C([H])([H])[H])C1([H])C([H])=C3[H]

$$$$
38:0:0
     RDKit          3D

 61 65  0  0  1  0  0  0  0  0999 V2000
    4.3277   -1.4207    5.4060 C   0  0  0  0  0  0  0  0  0  0  0  0
    3.7194   -0.7503    4.1631 C   0  0  2  0  0  0  0  0  0  0  0  0
    4.1034    0.7516    4.0489 C   0  0  0  0  0  0  0  0  0  0  0  0
    3.0480    1.8493    4.4060 C   0  0  1  0  0  0  0  0  0  0  0  0
    2.9625    2.7921    3.3600 O   0  0  0  0  0  0  0  0  0  0  0  0
    1.6644    1.2671    4.8724 C   0  0  2  0  0  0  0  0  0  0  0  0
    1.1525    0.0855    4.0642 C   0  0  1  0  0  0  0  0  0  0  0  0
    1.1498   -0.0507    2.4867 C   0  0  1  0  0  0  0  0  0  0  0  0
    1.8529    0.8734    1.4982 C   0  0  0  0  0  0  0  0  0  0  0  0
    1.7002   -1.4572    2.6382 C   0  0  0  0  0  0  0  0  0  0  0  0
    2.2103   -1.0667    4.0191 C   0  0  1  0  0  0  0  0  0  0  0  0
   -0.1830   -0.1176    4.7667 C   0  0  2  0  0  0  0  0  0  0  0  0
   -1.2039    0.8998    4.0903 C   0  0  0  0  0  0  0  0  0  0  0  0
   -0.8023    2.4188    3.7863 C   0  0  1  0  0  0  0  0  0  0  0  0
   -2.0505    3.2089    3.3408 C   0  0  0  0  0  0  0  0  0  0  0  0
    0.1483    3.2220    4.7746 C   0  0  1  0  0  0  0  0  0  0  0  0
   -0.5169    4.3297    5.3756 O   0  0  0  0  0  0  0  0  0  0  0  0
    0.6827    2.2100    5.7825 C   0  0  1  0  0  0  0  0  0  0  0  0
   -0.5945    2.0597    6.8062 C   0  0  1  0  0  0  0  0  0  0  0  0
   -1.9351    1.7701    6.5429 O   0  0  0  0  0  0  0  0  0  0  0  0
    0.2047    0.9815    7.3231 C   0  0  1  0  0  0  0  0  0  0  0  0
   -0.0216   -0.2810    6.3711 C   0  0  0  0  0  0  0  0  0  0  0  0
    1.3424    2.1264    7.2322 C   0  0  0  0  0  0  0  0  0  0  0  0
    2.6931    1.4993    7.6854 C   0  0  0  0  0  0  0  0  0  0  0  0
    1.4162    3.4513    8.0745 C   0  0  0  0  0  0  0  0  0  0  0  0
    3.9260   -1.0194    6.3285 H   0  0  0  0  0  0  0  0  0  0  0  0
    5.4087   -1.2808    5.4259 H   0  0  0  0  0  0  0  0  0  0  0  0
    4.1515   -2.4941    5.4035 H   0  0  0  0  0  0  0  0  0  0  0  0
    4.2342   -1.2367    3.3362 H   0  0  0  0  0  0  0  0  0  0  0  0
    4.9638    0.9325    4.6971 H   0  0  0  0  0  0  0  0  0  0  0  0
    4.5045    0.9180    3.0552 H   0  0  0  0  0  0  0  0  0  0  0  0
    3.4599    2.4488    5.2096 H   0  0  0  0  0  0  0  0  0  0  0  0
    3.8350    2.8615    2.9413 H   0  0  0  0  0  0  0  0  0  0  0  0
    2.1493    0.6553    5.6001 H   0  0  0  0  0  0  0  0  0  0  0  0
    0.1527   -0.2234    2.1099 H   0  0  0  0  0  0  0  0  0  0  0  0
    2.9257    0.8828    1.6236 H   0  0  0  0  0  0  0  0  0  0  0  0
    1.4675    1.8871    1.5514 H   0  0  0  0  0  0  0  0  0  0  0  0
    1.6841    0.5395    0.4835 H   0  0  0  0  0  0  0  0  0  0  0  0
    0.9204   -2.2269    2.6663 H   0  0  0  0  0  0  0  0  0  0  0  0
    2.4817   -1.6935    1.9186 H   0  0  0  0  0  0  0  0  0  0  0  0
    1.9001   -1.8584    4.6934 H   0  0  0  0  0  0  0  0  0  0  0  0
   -0.5502   -1.0955    4.4627 H   0  0  0  0  0  0  0  0  0  0  0  0
   -1.4548    0.5024    3.1100 H   0  0  0  0  0  0  0  0  0  0  0  0
   -2.1961    0.7854    4.5157 H   0  0  0  0  0  0  0  0  0  0  0  0
   -0.2083    2.3635    2.8794 H   0  0  0  0  0  0  0  0  0  0  0  0
   -2.7624    3.3371    4.1560 H   0  0  0  0  0  0  0  0  0  0  0  0
   -2.5679    2.6845    2.5355 H   0  0  0  0  0  0  0  0  0  0  0  0
   -1.7807    4.1950    2.9606 H   0  0  0  0  0  0  0  0  0  0  0  0
    0.9337    3.7020    4.1973 H   0  0  0  0  0  0  0  0  0  0  0  0
    0.1552    4.8848    5.7523 H   0  0  0  0  0  0  0  0  0  0  0  0
   -0.7349    2.8777    7.5167 H   0  0  0  0  0  0  0  0  0  0  0  0
   -2.3036    2.5764    6.2071 H   0  0  0  0  0  0  0  0  0  0  0  0
   -0.0330    0.7953    8.3694 H   0  0  0  0  0  0  0  0  0  0  0  0
   -0.9334   -0.7695    6.7084 H   0  0  0  0  0  0  0  0  0  0  0  0
    0.7475   -1.0190    6.5831 H   0  0  0  0  0  0  0  0  0  0  0  0
    2.8516    1.6021    8.7602 H   0  0  0  0  0  0  0  0  0  0  0  0
    3.5777    1.9270    7.2132 H   0  0  0  0  0  0  0  0  0  0  0  0
    2.7176    0.4156    7.5459 H   0  0  0  0  0  0  0  0  0  0  0  0
    1.1329    3.2793    9.1140 H   0  0  0  0  0  0  0  0  0  0  0  0
    0.7894    4.2548    7.6904 H   0  0  0  0  0  0  0  0  0  0  0  0
    2.4217    3.8835    8.0772 H   0  0  0  0  0  0  0  0  0  0  0  0
  1  2  1  0
  1 26  1  0
  1 27  1  0
  1 28  1  0
  2 11  1  0
  2  3  1  0
  2 29  1  6
  3  4  1  0
  3 30  1  0
  3 31  1  0
  4  5  1  0
  4  6  1  0
  4 32  1  1
  5 33  1  0
  6 18  1  0
  6  7  1  0
  6 34  1  1
  7 11  1  0
  7  8  1  6
  7 12  1  0
  8  9  1  0
  8 10  1  0
  8 35  1  6
  9 36  1  0
  9 37  1  0
  9 38  1  0
 10 11  1  0
 10 39  1  0
 10 40  1  0
 11 41  1  1
 12 22  1  0
 12 13  1  0
 12 42  1  6
 13 14  1  0
 13 43  1  0
 13 44  1  0
 14 15  1  0
 14 16  1  0
 14 45  1  6
 15 46  1  0
 15 47  1  0
 15 48  1  0
 16 17  1  0
 16 18  1  0
 16 49  1  6
 17 50  1  0
 18 23  1  1
 18 19  1  0
 19 20  1  0
 19 21  1  0
 19 51  1  1
 20 52  1  0
 21 22  1  0
 21 23  1  0
 21 53  1  1
 22 54  1  0
 22 55  1  0
 23 24  1  0
 23 25  1  0
 24 56  1  0
 24 57  1  0
 24 58  1  0
 25 59  1  0
 25 60  1  0
 25 61  1  0
M  END
>  <i_m_ct_stereo_status>  (167) 
1

>  <s_m_source_file>  (167) 
/var/tmp/pbs.5076255.sched01/tmpuxvxg9lz/41q4u19exn.sdf

>  <i_m_source_file_index>  (167) 
25

>  <i_lp_mmshare_version>  (167) 
48012

>  <i_f3d_flags>  (167) 
0

>  <s_epik_input>  (167) 
W0NIM11bQ0BIXTFbQ0gyXVtDQEhdMltDQEhdKFtDSDNdKVtDSDJdW0NAQEhdKFtPSF0pW0NASF0oW0NAQF0xMjMpW0NAQF00NVtDQEhdKFtPSF0pW0NASF0oW0NIM10pW0NIMl1bQ0BASF0zW0NIMl1bQ0BIXShbQ0BASF00W09IXSlDNShbQ0gzXSlbQ0gzXQ==

>  <s_epik_cmdline>  (167) 
J2VwaWtfcHl0aG9uJywgJy1waHQnLCAnMi4wJywgJy1waCcsICc3LjAnLCAnLXRuJywgJzgnLCAnLW1hJywgJzIwMCcsICctaW1hZScsICc8aW5maWxlLm1hZT4nLCAnLW9tYWUnLCAnPG91dGZpbGUubWFlPic=

>  <r_lp_tautomer_probability>  (167) 
1

>  <r_epik_Ionization_Penalty>  (167) 
5.09795e-06

>  <r_epik_Ionization_Penalty_Charging>  (167) 
0

>  <r_epik_Ionization_Penalty_Neutral>  (167) 
5.09795e-06

>  <r_epik_State_Penalty>  (167) 
-0

>  <r_epik_Charging_Adjusted_Penalty>  (167) 
0

>  <i_epik_Tot_Q>  (167) 
0

>  <i_epik_Tot_abs_Q>  (167) 
0

>  <s_lp_Force_Field>  (167) 
OPLS3e

>  <r_lp_Energy>  (167) 
222.864

>  <b_lp_Chiralities_Consistent>  (167) 
1

>  <s_lp_Variant>  (167) 
38:0-1

>  <s_i_glide_gridfile>  (167) 
pfpi4k_grid

>  <i_i_glide_lignum>  (167) 
25

>  <i_i_glide_rotatable_bonds>  (167) 
3

>  <r_i_docking_score>  (167) 
-2.84996

>  <r_i_glide_ligand_efficiency>  (167) 
-0.113998

>  <r_i_glide_ligand_efficiency_sa>  (167) 
-0.333333

>  <r_i_glide_ligand_efficiency_ln>  (167) 
-0.675525

>  <r_i_glide_gscore>  (167) 
-2.84996

>  <r_i_glide_lipo>  (167) 
-0.00894215

>  <r_i_glide_hbond>  (167) 
-0.32

>  <r_i_glide_metal>  (167) 
-0

>  <r_i_glide_rewards>  (167) 
-1.03282

>  <r_i_glide_evdw>  (167) 
-15.3737

>  <r_i_glide_ecoul>  (167) 
-4.79672

>  <r_i_glide_erotb>  (167) 
0

>  <r_i_glide_esite>  (167) 
0

>  <r_i_glide_emodel>  (167) 
-22.8631

>  <r_i_glide_energy>  (167) 
-20.1704

>  <r_i_glide_einternal>  (167) 
2.66169

>  <r_i_glide_intrahb_reward>  (167) 
-0

>  <i_i_glide_confnum>  (167) 
1

>  <i_i_glide_posenum>  (167) 
2

>  <r_i_glide_eff_state_penalty>  (167) 
0

>  <ligand_id>  (167) 
38

>  <original_smiles>  (167) 
CC1CC(O)C2C3(C(C)CC13)C1CC(C)C(O)C23C(O)C(C1)C3(C)C

>  <smiles>  (167) 
[H]OC1([H])C([H])([H])C([H])(C([H])([H])[H])C2([H])C([H])([H])C([H])(C([H])([H])[H])C23C2([H])C([H])([H])C([H])(C([H])([H])[H])C([H])(O[H])C4(C([H])(O[H])C([H])(C2([H])[H])C4(C([H])([H])[H])C([H])([H])[H])C13[H]

$$$$
38:0:1
     RDKit          3D

 61 65  0  0  1  0  0  0  0  0999 V2000
    4.1216    0.1276    6.2730 C   0  0  0  0  0  0  0  0  0  0  0  0
    3.2664   -0.0317    5.0015 C   0  0  2  0  0  0  0  0  0  0  0  0
    3.5516    1.1043    3.9622 C   0  0  0  0  0  0  0  0  0  0  0  0
    2.5123    2.2552    3.7766 C   0  0  1  0  0  0  0  0  0  0  0  0
    2.2132    2.3906    2.4052 O   0  0  0  0  0  0  0  0  0  0  0  0
    1.2820    2.1414    4.7227 C   0  0  2  0  0  0  0  0  0  0  0  0
    0.6858    0.7417    4.8695 C   0  0  1  0  0  0  0  0  0  0  0  0
    0.4089   -0.2993    3.7056 C   0  0  1  0  0  0  0  0  0  0  0  0
    0.8938   -0.1861    2.2611 C   0  0  0  0  0  0  0  0  0  0  0  0
    1.0619   -1.3715    4.5579 C   0  0  0  0  0  0  0  0  0  0  0  0
    1.7716   -0.2789    5.3410 C   0  0  1  0  0  0  0  0  0  0  0  0
   -0.4955    1.0659    5.7731 C   0  0  2  0  0  0  0  0  0  0  0  0
   -1.6731    1.5525    4.8129 C   0  0  0  0  0  0  0  0  0  0  0  0
   -1.4009    2.5802    3.6066 C   0  0  1  0  0  0  0  0  0  0  0  0
   -2.7391    3.0426    3.0016 C   0  0  0  0  0  0  0  0  0  0  0  0
   -0.3392    3.7542    3.7593 C   0  0  1  0  0  0  0  0  0  0  0  0
   -0.9148    5.0490    3.6622 O   0  0  0  0  0  0  0  0  0  0  0  0
    0.4297    3.4993    5.0500 C   0  0  1  0  0  0  0  0  0  0  0  0
   -0.6497    4.0493    6.1704 C   0  0  1  0  0  0  0  0  0  0  0  0
   -2.0073    3.7343    6.3620 O   0  0  0  0  0  0  0  0  0  0  0  0
    0.2770    3.4544    7.0832 C   0  0  1  0  0  0  0  0  0  0  0  0
   -0.0521    1.8817    7.1154 C   0  0  0  0  0  0  0  0  0  0  0  0
    1.3267    4.2485    6.1358 C   0  0  0  0  0  0  0  0  0  0  0  0
    2.7613    3.9154    6.6375 C   0  0  0  0  0  0  0  0  0  0  0  0
    1.4632    5.8027    6.0023 C   0  0  0  0  0  0  0  0  0  0  0  0
    3.8634    1.0190    6.8361 H   0  0  0  0  0  0  0  0  0  0  0  0
    5.1809    0.1835    6.0284 H   0  0  0  0  0  0  0  0  0  0  0  0
    4.0005   -0.7269    6.9363 H   0  0  0  0  0  0  0  0  0  0  0  0
    3.6630   -0.9409    4.5453 H   0  0  0  0  0  0  0  0  0  0  0  0
    4.5040    1.5698    4.2192 H   0  0  0  0  0  0  0  0  0  0  0  0
    3.7696    0.6433    2.9999 H   0  0  0  0  0  0  0  0  0  0  0  0
    3.0249    3.1902    3.9881 H   0  0  0  0  0  0  0  0  0  0  0  0
    1.6735    3.1531    2.2668 H   0  0  0  0  0  0  0  0  0  0  0  0
    1.9000    2.0414    5.5898 H   0  0  0  0  0  0  0  0  0  0  0  0
   -0.6304   -0.5973    3.6763 H   0  0  0  0  0  0  0  0  0  0  0  0
    1.9747   -0.1486    2.1765 H   0  0  0  0  0  0  0  0  0  0  0  0
    0.4713    0.6787    1.7520 H   0  0  0  0  0  0  0  0  0  0  0  0
    0.6079   -1.0613    1.6778 H   0  0  0  0  0  0  0  0  0  0  0  0
    0.3472   -1.9316    5.1628 H   0  0  0  0  0  0  0  0  0  0  0  0
    1.7203   -2.0426    4.0038 H   0  0  0  0  0  0  0  0  0  0  0  0
    1.6426   -0.4992    6.3984 H   0  0  0  0  0  0  0  0  0  0  0  0
   -0.8568    0.1174    6.1746 H   0  0  0  0  0  0  0  0  0  0  0  0
   -2.0670    0.6715    4.3140 H   0  0  0  0  0  0  0  0  0  0  0  0
   -2.5784    1.7695    5.3693 H   0  0  0  0  0  0  0  0  0  0  0  0
   -0.9694    1.9649    2.8227 H   0  0  0  0  0  0  0  0  0  0  0  0
   -3.3071    3.6591    3.6964 H   0  0  0  0  0  0  0  0  0  0  0  0
   -3.3576    2.1867    2.7460 H   0  0  0  0  0  0  0  0  0  0  0  0
   -2.5912    3.6120    2.0861 H   0  0  0  0  0  0  0  0  0  0  0  0
    0.3103    3.7513    2.8925 H   0  0  0  0  0  0  0  0  0  0  0  0
   -0.6006    5.4126    2.8408 H   0  0  0  0  0  0  0  0  0  0  0  0
   -0.7369    5.1358    6.2632 H   0  0  0  0  0  0  0  0  0  0  0  0
   -2.0743    2.7971    6.2781 H   0  0  0  0  0  0  0  0  0  0  0  0
    0.2274    3.9183    8.0671 H   0  0  0  0  0  0  0  0  0  0  0  0
   -0.8593    1.7422    7.8320 H   0  0  0  0  0  0  0  0  0  0  0  0
    0.7830    1.3615    7.5803 H   0  0  0  0  0  0  0  0  0  0  0  0
    3.0929    4.6264    7.3943 H   0  0  0  0  0  0  0  0  0  0  0  0
    3.5228    3.9354    5.8615 H   0  0  0  0  0  0  0  0  0  0  0  0
    2.8161    2.9606    7.1603 H   0  0  0  0  0  0  0  0  0  0  0  0
    1.3739    6.2929    6.9744 H   0  0  0  0  0  0  0  0  0  0  0  0
    0.7384    6.2582    5.3276 H   0  0  0  0  0  0  0  0  0  0  0  0
    2.4311    6.0884    5.5816 H   0  0  0  0  0  0  0  0  0  0  0  0
  1  2  1  0
  1 26  1  0
  1 27  1  0
  1 28  1  0
  2 11  1  0
  2  3  1  0
  2 29  1  6
  3  4  1  0
  3 30  1  0
  3 31  1  0
  4  5  1  0
  4  6  1  0
  4 32  1  1
  5 33  1  0
  6 18  1  0
  6  7  1  0
  6 34  1  1
  7 11  1  0
  7  8  1  6
  7 12  1  0
  8  9  1  0
  8 10  1  0
  8 35  1  6
  9 36  1  0
  9 37  1  0
  9 38  1  0
 10 11  1  0
 10 39  1  0
 10 40  1  0
 11 41  1  1
 12 22  1  0
 12 13  1  0
 12 42  1  1
 13 14  1  0
 13 43  1  0
 13 44  1  0
 14 15  1  0
 14 16  1  0
 14 45  1  6
 15 46  1  0
 15 47  1  0
 15 48  1  0
 16 17  1  0
 16 18  1  0
 16 49  1  6
 17 50  1  0
 18 23  1  6
 18 19  1  0
 19 20  1  0
 19 21  1  0
 19 51  1  1
 20 52  1  0
 21 22  1  0
 21 23  1  0
 21 53  1  1
 22 54  1  0
 22 55  1  0
 23 24  1  0
 23 25  1  0
 24 56  1  0
 24 57  1  0
 24 58  1  0
 25 59  1  0
 25 60  1  0
 25 61  1  0
M  END
>  <i_m_ct_stereo_status>  (168) 
1

>  <s_m_source_file>  (168) 
/var/tmp/pbs.5076255.sched01/tmpuxvxg9lz/41q4u19exn.sdf

>  <i_m_source_file_index>  (168) 
25

>  <i_lp_mmshare_version>  (168) 
48012

>  <i_f3d_flags>  (168) 
0

>  <s_epik_input>  (168) 
W0NIM11bQ0BIXTFbQ0gyXVtDQEhdMltDQEhdKFtDSDNdKVtDSDJdW0NAQEhdKFtPSF0pW0NASF0oW0NAQF0xMjMpW0NAQF00NVtDQEhdKFtPSF0pW0NASF0oW0NIM10pW0NIMl1bQ0BASF0zW0NIMl1bQ0BIXShbQ0BASF00W09IXSlDNShbQ0gzXSlbQ0gzXQ==

>  <s_epik_cmdline>  (168) 
J2VwaWtfcHl0aG9uJywgJy1waHQnLCAnMi4wJywgJy1waCcsICc3LjAnLCAnLXRuJywgJzgnLCAnLW1hJywgJzIwMCcsICctaW1hZScsICc8aW5maWxlLm1hZT4nLCAnLW9tYWUnLCAnPG91dGZpbGUubWFlPic=

>  <r_lp_tautomer_probability>  (168) 
1

>  <r_epik_Ionization_Penalty>  (168) 
5.09795e-06

>  <r_epik_Ionization_Penalty_Charging>  (168) 
0

>  <r_epik_Ionization_Penalty_Neutral>  (168) 
5.09795e-06

>  <r_epik_State_Penalty>  (168) 
-0

>  <r_epik_Charging_Adjusted_Penalty>  (168) 
0

>  <i_epik_Tot_Q>  (168) 
0

>  <i_epik_Tot_abs_Q>  (168) 
0

>  <s_lp_Force_Field>  (168) 
OPLS3e

>  <r_lp_Energy>  (168) 
222.864

>  <b_lp_Chiralities_Consistent>  (168) 
1

>  <s_lp_Variant>  (168) 
38:0-1

>  <s_i_glide_gridfile>  (168) 
pfpi4k_grid

>  <i_i_glide_lignum>  (168) 
25

>  <i_i_glide_rotatable_bonds>  (168) 
3

>  <r_i_docking_score>  (168) 
-2.63615

>  <r_i_glide_ligand_efficiency>  (168) 
-0.105446

>  <r_i_glide_ligand_efficiency_sa>  (168) 
-0.308326

>  <r_i_glide_ligand_efficiency_ln>  (168) 
-0.624846

>  <r_i_glide_gscore>  (168) 
-2.63615

>  <r_i_glide_lipo>  (168) 
-0.000199692

>  <r_i_glide_hbond>  (168) 
0

>  <r_i_glide_metal>  (168) 
-0

>  <r_i_glide_rewards>  (168) 
-1.03282

>  <r_i_glide_evdw>  (168) 
-14.2787

>  <r_i_glide_ecoul>  (168) 
-5.92796

>  <r_i_glide_erotb>  (168) 
0

>  <r_i_glide_esite>  (168) 
0

>  <r_i_glide_emodel>  (168) 
-23.1224

>  <r_i_glide_energy>  (168) 
-20.2066

>  <r_i_glide_einternal>  (168) 
1.78562

>  <r_i_glide_intrahb_reward>  (168) 
-0

>  <i_i_glide_confnum>  (168) 
2

>  <i_i_glide_posenum>  (168) 
36

>  <r_i_glide_eff_state_penalty>  (168) 
0

>  <ligand_id>  (168) 
38

>  <original_smiles>  (168) 
CC1CC(O)C2C3(C(C)CC13)C1CC(C)C(O)C23C(O)C(C1)C3(C)C

>  <smiles>  (168) 
[H]OC1([H])C([H])([H])C([H])(C([H])([H])[H])C2([H])C([H])([H])C([H])(C([H])([H])[H])C23C2([H])C([H])([H])C([H])(C([H])([H])[H])C([H])(O[H])C4(C([H])(O[H])C([H])(C2([H])[H])C4(C([H])([H])[H])C([H])([H])[H])C13[H]

$$$$
38:0:2
     RDKit          3D

 61 65  0  0  1  0  0  0  0  0999 V2000
    3.2529   -1.2389    6.1008 C   0  0  0  0  0  0  0  0  0  0  0  0
    3.0497   -0.4315    4.8056 C   0  0  2  0  0  0  0  0  0  0  0  0
    3.6569    1.0017    4.8884 C   0  0  0  0  0  0  0  0  0  0  0  0
    2.7065    2.2261    5.0877 C   0  0  1  0  0  0  0  0  0  0  0  0
    3.0191    3.2362    4.1595 O   0  0  0  0  0  0  0  0  0  0  0  0
    1.1896    1.8429    5.1914 C   0  0  2  0  0  0  0  0  0  0  0  0
    0.7146    0.7883    4.2041 C   0  0  1  0  0  0  0  0  0  0  0  0
    1.0534    0.7181    2.6622 C   0  0  1  0  0  0  0  0  0  0  0  0
    2.0924    1.5618    1.9284 C   0  0  0  0  0  0  0  0  0  0  0  0
    1.3625   -0.7596    2.8239 C   0  0  0  0  0  0  0  0  0  0  0  0
    1.5817   -0.5084    4.3093 C   0  0  1  0  0  0  0  0  0  0  0  0
   -0.7670    0.7589    4.5751 C   0  0  2  0  0  0  0  0  0  0  0  0
   -1.4522    1.9471    3.7646 C   0  0  0  0  0  0  0  0  0  0  0  0
   -0.7777    3.3994    3.6772 C   0  0  1  0  0  0  0  0  0  0  0  0
   -1.7650    4.3878    3.0346 C   0  0  0  0  0  0  0  0  0  0  0  0
    0.0281    4.0090    4.9082 C   0  0  1  0  0  0  0  0  0  0  0  0
   -0.5823    5.1846    5.4253 O   0  0  0  0  0  0  0  0  0  0  0  0
    0.1738    2.8878    5.9301 C   0  0  1  0  0  0  0  0  0  0  0  0
   -1.3158    2.8881    6.6302 C   0  0  1  0  0  0  0  0  0  0  0  0
   -2.5852    2.8321    6.0487 O   0  0  0  0  0  0  0  0  0  0  0  0
   -0.8267    1.6838    7.2316 C   0  0  1  0  0  0  0  0  0  0  0  0
   -1.0047    0.5105    6.1601 C   0  0  0  0  0  0  0  0  0  0  0  0
    0.4543    2.6428    7.4815 C   0  0  0  0  0  0  0  0  0  0  0  0
    1.5599    1.7953    8.1738 C   0  0  0  0  0  0  0  0  0  0  0  0
    0.5105    3.9034    8.4156 C   0  0  0  0  0  0  0  0  0  0  0  0
    2.7097   -0.8203    6.9397 H   0  0  0  0  0  0  0  0  0  0  0  0
    4.3087   -1.2682    6.3734 H   0  0  0  0  0  0  0  0  0  0  0  0
    2.9352   -2.2719    5.9807 H   0  0  0  0  0  0  0  0  0  0  0  0
    3.6695   -0.9599    4.0823 H   0  0  0  0  0  0  0  0  0  0  0  0
    4.3547    1.0184    5.7291 H   0  0  0  0  0  0  0  0  0  0  0  0
    4.3103    1.1571    4.0298 H   0  0  0  0  0  0  0  0  0  0  0  0
    2.9870    2.7095    6.0168 H   0  0  0  0  0  0  0  0  0  0  0  0
    2.8997    2.8926    3.2819 H   0  0  0  0  0  0  0  0  0  0  0  0
    1.3973    1.1331    5.9605 H   0  0  0  0  0  0  0  0  0  0  0  0
    0.1582    0.7113    2.0573 H   0  0  0  0  0  0  0  0  0  0  0  0
    3.0983    1.4008    2.2919 H   0  0  0  0  0  0  0  0  0  0  0  0
    1.8430    2.6207    1.9503 H   0  0  0  0  0  0  0  0  0  0  0  0
    2.1164    1.2673    0.8867 H   0  0  0  0  0  0  0  0  0  0  0  0
    0.5054   -1.4103    2.6203 H   0  0  0  0  0  0  0  0  0  0  0  0
    2.2501   -1.0804    2.2831 H   0  0  0  0  0  0  0  0  0  0  0  0
    1.0218   -1.2728    4.8344 H   0  0  0  0  0  0  0  0  0  0  0  0
   -1.1865   -0.1388    4.1236 H   0  0  0  0  0  0  0  0  0  0  0  0
   -1.5157    1.6327    2.7268 H   0  0  0  0  0  0  0  0  0  0  0  0
   -2.5299    1.9679    3.9209 H   0  0  0  0  0  0  0  0  0  0  0  0
   -0.0069    3.2917    2.9191 H   0  0  0  0  0  0  0  0  0  0  0  0
   -2.6121    4.5672    3.6868 H   0  0  0  0  0  0  0  0  0  0  0  0
   -2.1538    3.9785    2.0949 H   0  0  0  0  0  0  0  0  0  0  0  0
   -1.2850    5.3364    2.7921 H   0  0  0  0  0  0  0  0  0  0  0  0
    0.9832    4.3832    4.5616 H   0  0  0  0  0  0  0  0  0  0  0  0
    0.0053    5.5384    6.0904 H   0  0  0  0  0  0  0  0  0  0  0  0
   -1.5163    3.6907    7.3461 H   0  0  0  0  0  0  0  0  0  0  0  0
   -2.5065    2.2446    5.3045 H   0  0  0  0  0  0  0  0  0  0  0  0
   -1.3249    1.4939    8.1793 H   0  0  0  0  0  0  0  0  0  0  0  0
   -2.0308    0.1508    6.2471 H   0  0  0  0  0  0  0  0  0  0  0  0
   -0.4126   -0.3475    6.4790 H   0  0  0  0  0  0  0  0  0  0  0  0
    1.4788    1.8292    9.2608 H   0  0  0  0  0  0  0  0  0  0  0  0
    2.5781    2.1038    7.9438 H   0  0  0  0  0  0  0  0  0  0  0  0
    1.4653    0.7283    7.9613 H   0  0  0  0  0  0  0  0  0  0  0  0
   -0.0263    3.7345    9.3511 H   0  0  0  0  0  0  0  0  0  0  0  0
    0.1060    4.8070    7.9641 H   0  0  0  0  0  0  0  0  0  0  0  0
    1.5371    4.1778    8.6711 H   0  0  0  0  0  0  0  0  0  0  0  0
  1  2  1  0
  1 26  1  0
  1 27  1  0
  1 28  1  0
  2 11  1  0
  2  3  1  0
  2 29  1  6
  3  4  1  0
  3 30  1  0
  3 31  1  0
  4  5  1  0
  4  6  1  0
  4 32  1  1
  5 33  1  0
  6 18  1  0
  6  7  1  0
  6 34  1  1
  7 11  1  0
  7  8  1  6
  7 12  1  0
  8  9  1  0
  8 10  1  0
  8 35  1  6
  9 36  1  0
  9 37  1  0
  9 38  1  0
 10 11  1  0
 10 39  1  0
 10 40  1  0
 11 41  1  1
 12 22  1  0
 12 13  1  0
 12 42  1  6
 13 14  1  0
 13 43  1  0
 13 44  1  0
 14 15  1  0
 14 16  1  0
 14 45  1  6
 15 46  1  0
 15 47  1  0
 15 48  1  0
 16 17  1  0
 16 18  1  0
 16 49  1  6
 17 50  1  0
 18 23  1  1
 18 19  1  0
 19 20  1  0
 19 21  1  0
 19 51  1  1
 20 52  1  0
 21 22  1  0
 21 23  1  0
 21 53  1  1
 22 54  1  0
 22 55  1  0
 23 24  1  0
 23 25  1  0
 24 56  1  0
 24 57  1  0
 24 58  1  0
 25 59  1  0
 25 60  1  0
 25 61  1  0
M  END
>  <i_m_ct_stereo_status>  (169) 
1

>  <s_m_source_file>  (169) 
/var/tmp/pbs.5076255.sched01/tmpuxvxg9lz/41q4u19exn.sdf

>  <i_m_source_file_index>  (169) 
25

>  <i_lp_mmshare_version>  (169) 
48012

>  <i_f3d_flags>  (169) 
0

>  <s_epik_input>  (169) 
W0NIM11bQ0BIXTFbQ0gyXVtDQEhdMltDQEhdKFtDSDNdKVtDSDJdW0NAQEhdKFtPSF0pW0NASF0oW0NAQF0xMjMpW0NAQF00NVtDQEhdKFtPSF0pW0NASF0oW0NIM10pW0NIMl1bQ0BASF0zW0NIMl1bQ0BIXShbQ0BASF00W09IXSlDNShbQ0gzXSlbQ0gzXQ==

>  <s_epik_cmdline>  (169) 
J2VwaWtfcHl0aG9uJywgJy1waHQnLCAnMi4wJywgJy1waCcsICc3LjAnLCAnLXRuJywgJzgnLCAnLW1hJywgJzIwMCcsICctaW1hZScsICc8aW5maWxlLm1hZT4nLCAnLW9tYWUnLCAnPG91dGZpbGUubWFlPic=

>  <r_lp_tautomer_probability>  (169) 
1

>  <r_epik_Ionization_Penalty>  (169) 
5.09795e-06

>  <r_epik_Ionization_Penalty_Charging>  (169) 
0

>  <r_epik_Ionization_Penalty_Neutral>  (169) 
5.09795e-06

>  <r_epik_State_Penalty>  (169) 
-0

>  <r_epik_Charging_Adjusted_Penalty>  (169) 
0

>  <i_epik_Tot_Q>  (169) 
0

>  <i_epik_Tot_abs_Q>  (169) 
0

>  <s_lp_Force_Field>  (169) 
OPLS3e

>  <r_lp_Energy>  (169) 
222.864

>  <b_lp_Chiralities_Consistent>  (169) 
1

>  <s_lp_Variant>  (169) 
38:0-1

>  <s_i_glide_gridfile>  (169) 
pfpi4k_grid

>  <i_i_glide_lignum>  (169) 
25

>  <i_i_glide_rotatable_bonds>  (169) 
3

>  <r_i_docking_score>  (169) 
-2.31785

>  <r_i_glide_ligand_efficiency>  (169) 
-0.0927142

>  <r_i_glide_ligand_efficiency_sa>  (169) 
-0.271098

>  <r_i_glide_ligand_efficiency_ln>  (169) 
-0.549401

>  <r_i_glide_gscore>  (169) 
-2.31785

>  <r_i_glide_lipo>  (169) 
-0.0399829

>  <r_i_glide_hbond>  (169) 
0

>  <r_i_glide_metal>  (169) 
-0

>  <r_i_glide_rewards>  (169) 
-1.03282

>  <r_i_glide_evdw>  (169) 
-16.2186

>  <r_i_glide_ecoul>  (169) 
-2.89413

>  <r_i_glide_erotb>  (169) 
0

>  <r_i_glide_esite>  (169) 
0

>  <r_i_glide_emodel>  (169) 
-22.2379

>  <r_i_glide_energy>  (169) 
-19.1127

>  <r_i_glide_einternal>  (169) 
0.434513

>  <r_i_glide_intrahb_reward>  (169) 
-0

>  <i_i_glide_confnum>  (169) 
1

>  <i_i_glide_posenum>  (169) 
18

>  <r_i_glide_eff_state_penalty>  (169) 
0

>  <ligand_id>  (169) 
38

>  <original_smiles>  (169) 
CC1CC(O)C2C3(C(C)CC13)C1CC(C)C(O)C23C(O)C(C1)C3(C)C

>  <smiles>  (169) 
[H]OC1([H])C([H])([H])C([H])(C([H])([H])[H])C2([H])C([H])([H])C([H])(C([H])([H])[H])C23C2([H])C([H])([H])C([H])(C([H])([H])[H])C([H])(O[H])C4(C([H])(O[H])C([H])(C2([H])[H])C4(C([H])([H])[H])C([H])([H])[H])C13[H]

$$$$
40:0:0
     RDKit          3D

 79 83  0  0  1  0  0  0  0  0999 V2000
    2.8015   -3.1414   -3.9771 C   0  0  0  0  0  0  0  0  0  0  0  0
    4.1791   -3.0907   -3.6399 O   0  0  0  0  0  0  0  0  0  0  0  0
    4.4135   -2.7778   -2.3265 C   0  0  0  0  0  0  0  0  0  0  0  0
    4.8633   -3.7040   -1.4635 C   0  0  0  0  0  0  0  0  0  0  0  0
    5.2222   -3.4637    0.0118 C   0  0  1  0  0  0  0  0  0  0  0  0
    6.7419   -3.7498    0.1244 C   0  0  0  0  0  0  0  0  0  0  0  0
    4.9572   -1.9844    0.3687 C   0  0  0  0  0  0  0  0  0  0  0  0
    4.5141   -1.0596   -0.5008 C   0  0  0  0  0  0  0  0  0  0  0  0
    4.2586   -1.3804   -1.9128 C   0  0  0  0  0  0  0  0  0  0  0  0
    3.9598   -0.5022   -2.7243 O   0  0  0  0  0  0  0  0  0  0  0  0
    5.1670   -1.5974    1.8273 C   0  0  0  0  0  0  0  0  0  0  0  0
    5.0782   -2.7759    2.8084 C   0  0  0  0  0  0  0  0  0  0  0  0
    4.0601   -3.8905    2.4091 C   0  0  1  0  0  0  0  0  0  0  0  0
    2.6829   -3.1430    2.3638 C   0  0  0  0  0  0  0  0  0  0  0  0
    4.3327   -4.3956    0.9263 C   0  0  2  0  0  0  0  0  0  0  0  0
    4.7007   -5.8946    0.8341 C   0  0  0  0  0  0  0  0  0  0  0  0
    3.7299   -6.8227    1.5841 C   0  0  0  0  0  0  0  0  0  0  0  0
    3.1597   -6.2778    2.9270 C   0  0  2  0  0  0  0  0  0  0  0  0
    4.0462   -5.1000    3.4830 C   0  0  1  0  0  0  0  0  0  0  0  0
    5.4913   -5.6182    3.7889 C   0  0  0  0  0  0  0  0  0  0  0  0
    3.4349   -4.6212    4.8340 C   0  0  0  0  0  0  0  0  0  0  0  0
    2.9974   -5.7275    5.8055 C   0  0  0  0  0  0  0  0  0  0  0  0
    1.9530   -6.7544    5.2426 C   0  0  2  0  0  0  0  0  0  0  0  0
    0.6763   -5.9350    4.8574 C   0  0  0  0  0  0  0  0  0  0  0  0
    1.5680   -7.8170    6.4057 C   0  0  0  0  0  0  0  0  0  0  0  0
    1.3163   -7.1012    7.7670 C   0  0  0  0  0  0  0  0  0  0  0  0
    0.2601   -8.6343    6.1520 C   0  0  0  0  0  0  0  0  0  0  0  0
    2.7394   -8.8200    6.6545 C   0  0  1  0  0  0  0  0  0  0  0  0
    2.4271   -9.8339    7.6043 O   0  0  0  0  0  0  0  0  0  0  0  0
    3.2656   -9.4660    5.3713 C   0  0  0  0  0  0  0  0  0  0  0  0
    3.7369   -8.3954    4.3818 C   0  0  0  0  0  0  0  0  0  0  0  0
    2.6192   -7.3980    3.9357 C   0  0  2  0  0  0  0  0  0  0  0  0
    1.5998   -8.2222    3.0913 C   0  0  0  0  0  0  0  0  0  0  0  0
    2.7019   -3.4450   -5.0086 H   0  0  0  0  0  0  0  0  0  0  0  0
    2.3145   -2.1688   -3.9001 H   0  0  0  0  0  0  0  0  0  0  0  0
    2.2596   -3.8531   -3.3550 H   0  0  0  0  0  0  0  0  0  0  0  0
    5.0103   -4.7098   -1.8329 H   0  0  0  0  0  0  0  0  0  0  0  0
    7.3202   -3.0519   -0.4825 H   0  0  0  0  0  0  0  0  0  0  0  0
    6.9841   -4.7459   -0.2340 H   0  0  0  0  0  0  0  0  0  0  0  0
    7.1314   -3.6832    1.1359 H   0  0  0  0  0  0  0  0  0  0  0  0
    4.3261   -0.0411   -0.1799 H   0  0  0  0  0  0  0  0  0  0  0  0
    6.1282   -1.0929    1.9263 H   0  0  0  0  0  0  0  0  0  0  0  0
    4.3994   -0.8657    2.0810 H   0  0  0  0  0  0  0  0  0  0  0  0
    6.0862   -3.1627    2.8850 H   0  0  0  0  0  0  0  0  0  0  0  0
    4.8665   -2.3875    3.8060 H   0  0  0  0  0  0  0  0  0  0  0  0
    1.8204   -3.7989    2.3199 H   0  0  0  0  0  0  0  0  0  0  0  0
    2.5969   -2.4949    1.4919 H   0  0  0  0  0  0  0  0  0  0  0  0
    2.5487   -2.4806    3.2195 H   0  0  0  0  0  0  0  0  0  0  0  0
    3.3559   -4.3727    0.4358 H   0  0  0  0  0  0  0  0  0  0  0  0
    4.7419   -6.2161   -0.2088 H   0  0  0  0  0  0  0  0  0  0  0  0
    5.7062   -6.0596    1.2167 H   0  0  0  0  0  0  0  0  0  0  0  0
    2.8811   -7.0005    0.9226 H   0  0  0  0  0  0  0  0  0  0  0  0
    4.2035   -7.7956    1.7060 H   0  0  0  0  0  0  0  0  0  0  0  0
    2.2438   -5.7968    2.6005 H   0  0  0  0  0  0  0  0  0  0  0  0
    5.7854   -5.4789    4.8275 H   0  0  0  0  0  0  0  0  0  0  0  0
    6.2699   -5.1579    3.1914 H   0  0  0  0  0  0  0  0  0  0  0  0
    5.6165   -6.6729    3.5623 H   0  0  0  0  0  0  0  0  0  0  0  0
    4.1506   -3.9821    5.3490 H   0  0  0  0  0  0  0  0  0  0  0  0
    2.5689   -3.9859    4.6950 H   0  0  0  0  0  0  0  0  0  0  0  0
    3.8838   -6.2338    6.1789 H   0  0  0  0  0  0  0  0  0  0  0  0
    2.5935   -5.1993    6.6648 H   0  0  0  0  0  0  0  0  0  0  0  0
   -0.0932   -6.5442    4.3897 H   0  0  0  0  0  0  0  0  0  0  0  0
    0.8666   -5.1419    4.1432 H   0  0  0  0  0  0  0  0  0  0  0  0
    0.2237   -5.4540    5.7224 H   0  0  0  0  0  0  0  0  0  0  0  0
    0.9323   -7.7859    8.5219 H   0  0  0  0  0  0  0  0  0  0  0  0
    0.5981   -6.2853    7.6932 H   0  0  0  0  0  0  0  0  0  0  0  0
    2.2335   -6.6988    8.1980 H   0  0  0  0  0  0  0  0  0  0  0  0
   -0.1113   -9.0818    7.0736 H   0  0  0  0  0  0  0  0  0  0  0  0
    0.3980   -9.4885    5.4974 H   0  0  0  0  0  0  0  0  0  0  0  0
   -0.5694   -8.0482    5.7698 H   0  0  0  0  0  0  0  0  0  0  0  0
    3.5679   -8.2689    7.1017 H   0  0  0  0  0  0  0  0  0  0  0  0
    1.9017  -10.5344    7.2247 H   0  0  0  0  0  0  0  0  0  0  0  0
    4.1089  -10.1079    5.6245 H   0  0  0  0  0  0  0  0  0  0  0  0
    2.5252  -10.1220    4.9174 H   0  0  0  0  0  0  0  0  0  0  0  0
    4.5376   -7.8699    4.8928 H   0  0  0  0  0  0  0  0  0  0  0  0
    4.1998   -8.8917    3.5327 H   0  0  0  0  0  0  0  0  0  0  0  0
    1.0657   -8.9755    3.6493 H   0  0  0  0  0  0  0  0  0  0  0  0
    2.0981   -8.7785    2.3009 H   0  0  0  0  0  0  0  0  0  0  0  0
    0.8493   -7.5940    2.6115 H   0  0  0  0  0  0  0  0  0  0  0  0
  1  2  1  0
  1 34  1  0
  1 35  1  0
  1 36  1  0
  2  3  1  0
  3  9  1  0
  3  4  2  0
  4  5  1  0
  4 37  1  0
  5 15  1  0
  5  6  1  6
  5  7  1  0
  6 38  1  0
  6 39  1  0
  6 40  1  0
  7  8  2  0
  7 11  1  0
  8  9  1  0
  8 41  1  0
  9 10  2  0
 11 12  1  0
 11 42  1  0
 11 43  1  0
 12 13  1  0
 12 44  1  0
 12 45  1  0
 13 19  1  0
 13 14  1  6
 13 15  1  0
 14 46  1  0
 14 47  1  0
 14 48  1  0
 15 16  1  0
 15 49  1  6
 16 17  1  0
 16 50  1  0
 16 51  1  0
 17 18  1  0
 17 52  1  0
 17 53  1  0
 18 32  1  0
 18 19  1  0
 18 54  1  6
 19 20  1  1
 19 21  1  0
 20 55  1  0
 20 56  1  0
 20 57  1  0
 21 22  1  0
 21 58  1  0
 21 59  1  0
 22 23  1  0
 22 60  1  0
 22 61  1  0
 23 32  1  0
 23 24  1  6
 23 25  1  0
 24 62  1  0
 24 63  1  0
 24 64  1  0
 25 26  1  0
 25 27  1  0
 25 28  1  0
 26 65  1  0
 26 66  1  0
 26 67  1  0
 27 68  1  0
 27 69  1  0
 27 70  1  0
 28 29  1  0
 28 30  1  0
 28 71  1  1
 29 72  1  0
 30 31  1  0
 30 73  1  0
 30 74  1  0
 31 32  1  0
 31 75  1  0
 31 76  1  0
 32 33  1  6
 33 77  1  0
 33 78  1  0
 33 79  1  0
M  END
>  <i_m_ct_stereo_status>  (170) 
1

>  <s_m_source_file>  (170) 
/var/tmp/pbs.5076255.sched01/tmpuxvxg9lz/41q4u19exn.sdf

>  <i_m_source_file_index>  (170) 
27

>  <i_lp_mmshare_version>  (170) 
48012

>  <i_f3d_flags>  (170) 
0

>  <s_epik_input>  (170) 
W0NIM11PQyg9W0NIXTEpQyg9TylbQ0hdPUMoW0NAXTEyW0NIM10pW0NIMl1bQ0gyXVtDQEBdMyhbQ0gzXSlbQ0BASF0yW0NIMl1bQ0gyXVtDQEBIXTRbQ0BdMyhbQ0gzXSlbQ0gyXVtDSDJdW0NAQF01KFtDSDNdKVtDQF00KFtDSDNdKVtDSDJdW0NIMl1bQ0BIXShbT0hdKUM1KFtDSDNdKVtDSDNd

>  <s_epik_cmdline>  (170) 
J2VwaWtfcHl0aG9uJywgJy1waHQnLCAnMi4wJywgJy1waCcsICc3LjAnLCAnLXRuJywgJzgnLCAnLW1hJywgJzIwMCcsICctaW1hZScsICc8aW5maWxlLm1hZT4nLCAnLW9tYWUnLCAnPG91dGZpbGUubWFlPic=

>  <r_lp_tautomer_probability>  (170) 
1

>  <r_epik_Ionization_Penalty>  (170) 
3.0784e-06

>  <r_epik_Ionization_Penalty_Charging>  (170) 
0

>  <r_epik_Ionization_Penalty_Neutral>  (170) 
3.0784e-06

>  <r_epik_State_Penalty>  (170) 
-0

>  <r_epik_Charging_Adjusted_Penalty>  (170) 
0

>  <i_epik_Tot_Q>  (170) 
0

>  <i_epik_Tot_abs_Q>  (170) 
0

>  <s_lp_Force_Field>  (170) 
OPLS3e

>  <r_lp_Energy>  (170) 
120.316

>  <b_lp_Chiralities_Consistent>  (170) 
1

>  <s_lp_Variant>  (170) 
40:0-1

>  <s_i_glide_gridfile>  (170) 
pfpi4k_grid

>  <i_i_glide_lignum>  (170) 
27

>  <i_i_glide_rotatable_bonds>  (170) 
2

>  <r_i_docking_score>  (170) 
-3.05254

>  <r_i_glide_ligand_efficiency>  (170) 
-0.0925011

>  <r_i_glide_ligand_efficiency_sa>  (170) 
-0.2967

>  <r_i_glide_ligand_efficiency_ln>  (170) 
-0.678868

>  <r_i_glide_gscore>  (170) 
-3.05254

>  <r_i_glide_lipo>  (170) 
-0.62341

>  <r_i_glide_hbond>  (170) 
-0.125571

>  <r_i_glide_metal>  (170) 
-0

>  <r_i_glide_rewards>  (170) 
-0.30897

>  <r_i_glide_evdw>  (170) 
-26.5196

>  <r_i_glide_ecoul>  (170) 
-4.1536

>  <r_i_glide_erotb>  (170) 
0

>  <r_i_glide_esite>  (170) 
-0.0455679

>  <r_i_glide_emodel>  (170) 
-34.5863

>  <r_i_glide_energy>  (170) 
-30.6732

>  <r_i_glide_einternal>  (170) 
3.45156

>  <r_i_glide_intrahb_reward>  (170) 
-0

>  <i_i_glide_confnum>  (170) 
2

>  <i_i_glide_posenum>  (170) 
1

>  <r_i_glide_eff_state_penalty>  (170) 
0

>  <ligand_id>  (170) 
40

>  <original_smiles>  (170) 
COC1=CC2(C)C(=CC1=O)CCC1(C)C2CCC2C1(C)CCC1(C)C(C)(C)C(O)CCC21C

>  <smiles>  (170) 
[H]OC1([H])C([H])([H])C([H])([H])C2(C([H])([H])[H])C3([H])C([H])([H])C([H])([H])C4([H])C5(C([H])([H])[H])C([H])=C(OC([H])([H])[H])C(=O)C([H])=C5C([H])([H])C([H])([H])C4(C([H])([H])[H])C3(C([H])([H])[H])C([H])([H])C([H])([H])C2(C([H])([H])[H])C1(C([H])([H])[H])C([H])([H])[H]

$$$$
40:0:1
     RDKit          3D

 79 83  0  0  1  0  0  0  0  0999 V2000
    5.1320   -3.8929   -4.0454 C   0  0  0  0  0  0  0  0  0  0  0  0
    4.5074   -2.7634   -3.4705 O   0  0  0  0  0  0  0  0  0  0  0  0
    4.6318   -2.6436   -2.1135 C   0  0  0  0  0  0  0  0  0  0  0  0
    4.8650   -3.7070   -1.3098 C   0  0  0  0  0  0  0  0  0  0  0  0
    5.1144   -3.6407    0.1900 C   0  0  1  0  0  0  0  0  0  0  0  0
    6.5608   -4.1588    0.3769 C   0  0  0  0  0  0  0  0  0  0  0  0
    5.0241   -2.1742    0.6616 C   0  0  0  0  0  0  0  0  0  0  0  0
    4.7951   -1.1156   -0.1450 C   0  0  0  0  0  0  0  0  0  0  0  0
    4.6140   -1.2663   -1.5885 C   0  0  0  0  0  0  0  0  0  0  0  0
    4.5000   -0.2709   -2.3288 O   0  0  0  0  0  0  0  0  0  0  0  0
    5.1531   -1.9593    2.1659 C   0  0  0  0  0  0  0  0  0  0  0  0
    4.8138   -3.2150    3.0017 C   0  0  0  0  0  0  0  0  0  0  0  0
    3.6810   -4.1172    2.4059 C   0  0  1  0  0  0  0  0  0  0  0  0
    2.4364   -3.1688    2.3262 C   0  0  0  0  0  0  0  0  0  0  0  0
    4.0167   -4.5123    0.9090 C   0  0  2  0  0  0  0  0  0  0  0  0
    4.1747   -6.0354    0.6758 C   0  0  0  0  0  0  0  0  0  0  0  0
    3.0045   -6.8698    1.2246 C   0  0  0  0  0  0  0  0  0  0  0  0
    2.4122   -6.3838    2.5725 C   0  0  2  0  0  0  0  0  0  0  0  0
    3.3920   -5.4112    3.3255 C   0  0  1  0  0  0  0  0  0  0  0  0
    4.7161   -6.1737    3.6782 C   0  0  0  0  0  0  0  0  0  0  0  0
    2.7364   -4.9773    4.6662 C   0  0  0  0  0  0  0  0  0  0  0  0
    2.0605   -6.0972    5.4640 C   0  0  0  0  0  0  0  0  0  0  0  0
    0.9463   -6.8856    4.7041 C   0  0  2  0  0  0  0  0  0  0  0  0
   -0.1648   -5.8612    4.3218 C   0  0  0  0  0  0  0  0  0  0  0  0
    0.3257   -7.9764    5.7041 C   0  0  0  0  0  0  0  0  0  0  0  0
    0.0523   -7.3839    7.1246 C   0  0  0  0  0  0  0  0  0  0  0  0
   -1.0415   -8.5655    5.2358 C   0  0  0  0  0  0  0  0  0  0  0  0
    1.3027   -9.1637    5.9254 C   0  0  1  0  0  0  0  0  0  0  0  0
    0.5919  -10.1769    6.5951 O   0  0  0  0  0  0  0  0  0  0  0  0
    1.8370   -9.7669    4.6308 C   0  0  0  0  0  0  0  0  0  0  0  0
    2.5448   -8.6914    3.8063 C   0  0  0  0  0  0  0  0  0  0  0  0
    1.6239   -7.4990    3.3928 C   0  0  2  0  0  0  0  0  0  0  0  0
    0.5794   -8.0700    2.3844 C   0  0  0  0  0  0  0  0  0  0  0  0
    5.0102   -3.8557   -5.1137 H   0  0  0  0  0  0  0  0  0  0  0  0
    4.6741   -4.8307   -3.7298 H   0  0  0  0  0  0  0  0  0  0  0  0
    6.2111   -3.8548   -3.8511 H   0  0  0  0  0  0  0  0  0  0  0  0
    4.9182   -4.7090   -1.7266 H   0  0  0  0  0  0  0  0  0  0  0  0
    7.2831   -3.5063   -0.1191 H   0  0  0  0  0  0  0  0  0  0  0  0
    6.6760   -5.1421   -0.0757 H   0  0  0  0  0  0  0  0  0  0  0  0
    6.8744   -4.2582    1.4124 H   0  0  0  0  0  0  0  0  0  0  0  0
    4.7230   -0.1131    0.2515 H   0  0  0  0  0  0  0  0  0  0  0  0
    6.1708   -1.6264    2.3960 H   0  0  0  0  0  0  0  0  0  0  0  0
    4.4684   -1.1510    2.4425 H   0  0  0  0  0  0  0  0  0  0  0  0
    5.7417   -3.7597    3.1224 H   0  0  0  0  0  0  0  0  0  0  0  0
    4.5527   -2.9000    4.0145 H   0  0  0  0  0  0  0  0  0  0  0  0
    1.4968   -3.6876    2.1458 H   0  0  0  0  0  0  0  0  0  0  0  0
    2.5238   -2.4386    1.5189 H   0  0  0  0  0  0  0  0  0  0  0  0
    2.3166   -2.5788    3.2356 H   0  0  0  0  0  0  0  0  0  0  0  0
    3.1085   -4.2911    0.3402 H   0  0  0  0  0  0  0  0  0  0  0  0
    4.2542   -6.2628   -0.3873 H   0  0  0  0  0  0  0  0  0  0  0  0
    5.1129   -6.3832    1.0979 H   0  0  0  0  0  0  0  0  0  0  0  0
    2.2039   -6.8324    0.4852 H   0  0  0  0  0  0  0  0  0  0  0  0
    3.3261   -7.9105    1.2792 H   0  0  0  0  0  0  0  0  0  0  0  0
    1.6123   -5.7405    2.2327 H   0  0  0  0  0  0  0  0  0  0  0  0
    4.9292   -6.1857    4.7466 H   0  0  0  0  0  0  0  0  0  0  0  0
    5.6045   -5.7800    3.1970 H   0  0  0  0  0  0  0  0  0  0  0  0
    4.7102   -7.2065    3.3450 H   0  0  0  0  0  0  0  0  0  0  0  0
    3.4851   -4.5090    5.3051 H   0  0  0  0  0  0  0  0  0  0  0  0
    1.9830   -4.2117    4.5271 H   0  0  0  0  0  0  0  0  0  0  0  0
    2.8234   -6.7696    5.8489 H   0  0  0  0  0  0  0  0  0  0  0  0
    1.6501   -5.6013    6.3427 H   0  0  0  0  0  0  0  0  0  0  0  0
   -0.9661   -6.3031    3.7337 H   0  0  0  0  0  0  0  0  0  0  0  0
    0.2155   -5.0410    3.7179 H   0  0  0  0  0  0  0  0  0  0  0  0
   -0.6144   -5.4092    5.2043 H   0  0  0  0  0  0  0  0  0  0  0  0
   -0.4878   -8.0883    7.7630 H   0  0  0  0  0  0  0  0  0  0  0  0
   -0.5451   -6.4735    7.0928 H   0  0  0  0  0  0  0  0  0  0  0  0
    0.9662   -7.1691    7.6746 H   0  0  0  0  0  0  0  0  0  0  0  0
   -1.5340   -9.0620    6.0593 H   0  0  0  0  0  0  0  0  0  0  0  0
   -0.9424   -9.3557    4.5034 H   0  0  0  0  0  0  0  0  0  0  0  0
   -1.7662   -7.8426    4.8722 H   0  0  0  0  0  0  0  0  0  0  0  0
    2.1522   -8.8382    6.5309 H   0  0  0  0  0  0  0  0  0  0  0  0
    1.1626  -10.8870    6.9006 H   0  0  0  0  0  0  0  0  0  0  0  0
    2.5480  -10.5607    4.8719 H   0  0  0  0  0  0  0  0  0  0  0  0
    1.0511  -10.2544    4.0538 H   0  0  0  0  0  0  0  0  0  0  0  0
    3.3595   -8.3516    4.4370 H   0  0  0  0  0  0  0  0  0  0  0  0
    3.0089   -9.1750    2.9411 H   0  0  0  0  0  0  0  0  0  0  0  0
   -0.1050   -8.7926    2.7959 H   0  0  0  0  0  0  0  0  0  0  0  0
    1.0698   -8.6212    1.5821 H   0  0  0  0  0  0  0  0  0  0  0  0
   -0.0283   -7.2955    1.9180 H   0  0  0  0  0  0  0  0  0  0  0  0
  1  2  1  0
  1 34  1  0
  1 35  1  0
  1 36  1  0
  2  3  1  0
  3  9  1  0
  3  4  2  0
  4  5  1  0
  4 37  1  0
  5 15  1  0
  5  6  1  6
  5  7  1  0
  6 38  1  0
  6 39  1  0
  6 40  1  0
  7  8  2  0
  7 11  1  0
  8  9  1  0
  8 41  1  0
  9 10  2  0
 11 12  1  0
 11 42  1  0
 11 43  1  0
 12 13  1  0
 12 44  1  0
 12 45  1  0
 13 19  1  0
 13 14  1  6
 13 15  1  0
 14 46  1  0
 14 47  1  0
 14 48  1  0
 15 16  1  0
 15 49  1  6
 16 17  1  0
 16 50  1  0
 16 51  1  0
 17 18  1  0
 17 52  1  0
 17 53  1  0
 18 32  1  0
 18 19  1  0
 18 54  1  6
 19 20  1  1
 19 21  1  0
 20 55  1  0
 20 56  1  0
 20 57  1  0
 21 22  1  0
 21 58  1  0
 21 59  1  0
 22 23  1  0
 22 60  1  0
 22 61  1  0
 23 32  1  0
 23 24  1  6
 23 25  1  0
 24 62  1  0
 24 63  1  0
 24 64  1  0
 25 26  1  0
 25 27  1  0
 25 28  1  0
 26 65  1  0
 26 66  1  0
 26 67  1  0
 27 68  1  0
 27 69  1  0
 27 70  1  0
 28 29  1  0
 28 30  1  0
 28 71  1  1
 29 72  1  0
 30 31  1  0
 30 73  1  0
 30 74  1  0
 31 32  1  0
 31 75  1  0
 31 76  1  0
 32 33  1  6
 33 77  1  0
 33 78  1  0
 33 79  1  0
M  END
>  <i_m_ct_stereo_status>  (171) 
1

>  <s_m_source_file>  (171) 
/var/tmp/pbs.5076255.sched01/tmpuxvxg9lz/41q4u19exn.sdf

>  <i_m_source_file_index>  (171) 
27

>  <i_lp_mmshare_version>  (171) 
48012

>  <i_f3d_flags>  (171) 
0

>  <s_epik_input>  (171) 
W0NIM11PQyg9W0NIXTEpQyg9TylbQ0hdPUMoW0NAXTEyW0NIM10pW0NIMl1bQ0gyXVtDQEBdMyhbQ0gzXSlbQ0BASF0yW0NIMl1bQ0gyXVtDQEBIXTRbQ0BdMyhbQ0gzXSlbQ0gyXVtDSDJdW0NAQF01KFtDSDNdKVtDQF00KFtDSDNdKVtDSDJdW0NIMl1bQ0BIXShbT0hdKUM1KFtDSDNdKVtDSDNd

>  <s_epik_cmdline>  (171) 
J2VwaWtfcHl0aG9uJywgJy1waHQnLCAnMi4wJywgJy1waCcsICc3LjAnLCAnLXRuJywgJzgnLCAnLW1hJywgJzIwMCcsICctaW1hZScsICc8aW5maWxlLm1hZT4nLCAnLW9tYWUnLCAnPG91dGZpbGUubWFlPic=

>  <r_lp_tautomer_probability>  (171) 
1

>  <r_epik_Ionization_Penalty>  (171) 
3.0784e-06

>  <r_epik_Ionization_Penalty_Charging>  (171) 
0

>  <r_epik_Ionization_Penalty_Neutral>  (171) 
3.0784e-06

>  <r_epik_State_Penalty>  (171) 
-0

>  <r_epik_Charging_Adjusted_Penalty>  (171) 
0

>  <i_epik_Tot_Q>  (171) 
0

>  <i_epik_Tot_abs_Q>  (171) 
0

>  <s_lp_Force_Field>  (171) 
OPLS3e

>  <r_lp_Energy>  (171) 
120.316

>  <b_lp_Chiralities_Consistent>  (171) 
1

>  <s_lp_Variant>  (171) 
40:0-1

>  <s_i_glide_gridfile>  (171) 
pfpi4k_grid

>  <i_i_glide_lignum>  (171) 
27

>  <i_i_glide_rotatable_bonds>  (171) 
2

>  <r_i_docking_score>  (171) 
-2.81289

>  <r_i_glide_ligand_efficiency>  (171) 
-0.085239

>  <r_i_glide_ligand_efficiency_sa>  (171) 
-0.273407

>  <r_i_glide_ligand_efficiency_ln>  (171) 
-0.625572

>  <r_i_glide_gscore>  (171) 
-2.81289

>  <r_i_glide_lipo>  (171) 
-0.489681

>  <r_i_glide_hbond>  (171) 
-0.151997

>  <r_i_glide_metal>  (171) 
-0

>  <r_i_glide_rewards>  (171) 
-0.30897

>  <r_i_glide_evdw>  (171) 
-22.0534

>  <r_i_glide_ecoul>  (171) 
-4.74635

>  <r_i_glide_erotb>  (171) 
0

>  <r_i_glide_esite>  (171) 
-0.047619

>  <r_i_glide_emodel>  (171) 
-30.643

>  <r_i_glide_energy>  (171) 
-26.7997

>  <r_i_glide_einternal>  (171) 
1.28305

>  <r_i_glide_intrahb_reward>  (171) 
-0

>  <i_i_glide_confnum>  (171) 
2

>  <i_i_glide_posenum>  (171) 
14

>  <r_i_glide_eff_state_penalty>  (171) 
0

>  <ligand_id>  (171) 
40

>  <original_smiles>  (171) 
COC1=CC2(C)C(=CC1=O)CCC1(C)C2CCC2C1(C)CCC1(C)C(C)(C)C(O)CCC21C

>  <smiles>  (171) 
[H]OC1([H])C([H])([H])C([H])([H])C2(C([H])([H])[H])C3([H])C([H])([H])C([H])([H])C4([H])C5(C([H])([H])[H])C([H])=C(OC([H])([H])[H])C(=O)C([H])=C5C([H])([H])C([H])([H])C4(C([H])([H])[H])C3(C([H])([H])[H])C([H])([H])C([H])([H])C2(C([H])([H])[H])C1(C([H])([H])[H])C([H])([H])[H]

$$$$
40:0:2
     RDKit          3D

 79 83  0  0  1  0  0  0  0  0999 V2000
    4.9878   -4.2422   -4.1634 C   0  0  0  0  0  0  0  0  0  0  0  0
    4.0728   -3.3016   -3.6448 O   0  0  0  0  0  0  0  0  0  0  0  0
    4.2019   -2.9824   -2.3073 C   0  0  0  0  0  0  0  0  0  0  0  0
    4.6509   -3.8407   -1.3627 C   0  0  0  0  0  0  0  0  0  0  0  0
    4.9226   -3.5282    0.1052 C   0  0  1  0  0  0  0  0  0  0  0  0
    6.4513   -3.7346    0.2800 C   0  0  0  0  0  0  0  0  0  0  0  0
    4.5666   -2.0673    0.3875 C   0  0  0  0  0  0  0  0  0  0  0  0
    4.1103   -1.1881   -0.5436 C   0  0  0  0  0  0  0  0  0  0  0  0
    3.9316   -1.5945   -1.9412 C   0  0  0  0  0  0  0  0  0  0  0  0
    3.5878   -0.7472   -2.8017 O   0  0  0  0  0  0  0  0  0  0  0  0
    4.6788   -1.6159    1.8342 C   0  0  0  0  0  0  0  0  0  0  0  0
    4.6114   -2.7752    2.8472 C   0  0  0  0  0  0  0  0  0  0  0  0
    3.6738   -3.9565    2.4394 C   0  0  1  0  0  0  0  0  0  0  0  0
    2.2587   -3.2865    2.3021 C   0  0  0  0  0  0  0  0  0  0  0  0
    4.0400   -4.4855    0.9902 C   0  0  2  0  0  0  0  0  0  0  0  0
    4.4889   -5.9651    0.9548 C   0  0  0  0  0  0  0  0  0  0  0  0
    3.5323   -6.9239    1.6809 C   0  0  0  0  0  0  0  0  0  0  0  0
    2.8730   -6.3764    2.9827 C   0  0  2  0  0  0  0  0  0  0  0  0
    3.6692   -5.1361    3.5423 C   0  0  1  0  0  0  0  0  0  0  0  0
    5.1215   -5.5636    3.9266 C   0  0  0  0  0  0  0  0  0  0  0  0
    2.9689   -4.6513    4.8447 C   0  0  0  0  0  0  0  0  0  0  0  0
    2.5451   -5.7532    5.8270 C   0  0  0  0  0  0  0  0  0  0  0  0
    1.5847   -6.8532    5.2482 C   0  0  2  0  0  0  0  0  0  0  0  0
    0.2861   -6.1128    4.7789 C   0  0  0  0  0  0  0  0  0  0  0  0
    1.2025   -7.9009    6.4250 C   0  0  0  0  0  0  0  0  0  0  0  0
    0.8463   -7.1611    7.7506 C   0  0  0  0  0  0  0  0  0  0  0  0
   -0.0442   -8.7988    6.1332 C   0  0  0  0  0  0  0  0  0  0  0  0
    2.4144   -8.8260    6.7591 C   0  0  1  0  0  0  0  0  0  0  0  0
    2.1135   -9.8185    7.7256 O   0  0  0  0  0  0  0  0  0  0  0  0
    3.0339   -9.4833    5.5267 C   0  0  0  0  0  0  0  0  0  0  0  0
    3.4927   -8.4154    4.5253 C   0  0  0  0  0  0  0  0  0  0  0  0
    2.3444   -7.4919    3.9973 C   0  0  2  0  0  0  0  0  0  0  0  0
    1.4134   -8.3981    3.1304 C   0  0  0  0  0  0  0  0  0  0  0  0
    4.8488   -4.3956   -5.2246 H   0  0  0  0  0  0  0  0  0  0  0  0
    4.9024   -5.2214   -3.7017 H   0  0  0  0  0  0  0  0  0  0  0  0
    5.9995   -3.8628   -4.0084 H   0  0  0  0  0  0  0  0  0  0  0  0
    4.8772   -4.8660   -1.6108 H   0  0  0  0  0  0  0  0  0  0  0  0
    7.0148   -3.0262   -0.3300 H   0  0  0  0  0  0  0  0  0  0  0  0
    6.7565   -4.7255   -0.0449 H   0  0  0  0  0  0  0  0  0  0  0  0
    6.7971   -3.6195    1.3011 H   0  0  0  0  0  0  0  0  0  0  0  0
    3.8516   -0.1874   -0.2607 H   0  0  0  0  0  0  0  0  0  0  0  0
    5.6079   -1.0553    1.9622 H   0  0  0  0  0  0  0  0  0  0  0  0
    3.8567   -0.9215    2.0305 H   0  0  0  0  0  0  0  0  0  0  0  0
    5.6367   -3.1019    2.9932 H   0  0  0  0  0  0  0  0  0  0  0  0
    4.3241   -2.3710    3.8179 H   0  0  0  0  0  0  0  0  0  0  0  0
    1.4374   -3.9938    2.2467 H   0  0  0  0  0  0  0  0  0  0  0  0
    2.1787   -2.6713    1.4018 H   0  0  0  0  0  0  0  0  0  0  0  0
    2.0455   -2.6033    3.1277 H   0  0  0  0  0  0  0  0  0  0  0  0
    3.0898   -4.5314    0.4508 H   0  0  0  0  0  0  0  0  0  0  0  0
    4.5956   -6.3216   -0.0690 H   0  0  0  0  0  0  0  0  0  0  0  0
    5.4868   -6.0687    1.3834 H   0  0  0  0  0  0  0  0  0  0  0  0
    2.7251   -7.1732    0.9830 H   0  0  0  0  0  0  0  0  0  0  0  0
    4.0550   -7.8631    1.8522 H   0  0  0  0  0  0  0  0  0  0  0  0
    1.9534   -5.9568    2.5991 H   0  0  0  0  0  0  0  0  0  0  0  0
    5.3606   -5.3799    4.9716 H   0  0  0  0  0  0  0  0  0  0  0  0
    5.9043   -5.0794    3.3503 H   0  0  0  0  0  0  0  0  0  0  0  0
    5.3159   -6.6158    3.7382 H   0  0  0  0  0  0  0  0  0  0  0  0
    3.6222   -3.9553    5.3712 H   0  0  0  0  0  0  0  0  0  0  0  0
    2.0761   -4.0704    4.6473 H   0  0  0  0  0  0  0  0  0  0  0  0
    3.4397   -6.1998    6.2582 H   0  0  0  0  0  0  0  0  0  0  0  0
    2.0737   -5.2236    6.6504 H   0  0  0  0  0  0  0  0  0  0  0  0
   -0.4283   -6.7772    4.2943 H   0  0  0  0  0  0  0  0  0  0  0  0
    0.4674   -5.3311    4.0523 H   0  0  0  0  0  0  0  0  0  0  0  0
   -0.2348   -5.6329    5.6084 H   0  0  0  0  0  0  0  0  0  0  0  0
    0.4642   -7.8420    8.5101 H   0  0  0  0  0  0  0  0  0  0  0  0
    0.0903   -6.3852    7.6196 H   0  0  0  0  0  0  0  0  0  0  0  0
    1.7214   -6.6946    8.2114 H   0  0  0  0  0  0  0  0  0  0  0  0
   -0.4433   -9.2340    7.0484 H   0  0  0  0  0  0  0  0  0  0  0  0
    0.1740   -9.6661    5.5161 H   0  0  0  0  0  0  0  0  0  0  0  0
   -0.8819   -8.2778    5.6760 H   0  0  0  0  0  0  0  0  0  0  0  0
    3.1875   -8.2233    7.2282 H   0  0  0  0  0  0  0  0  0  0  0  0
    1.7520  -10.6016    7.3209 H   0  0  0  0  0  0  0  0  0  0  0  0
    3.8987  -10.0705    5.8322 H   0  0  0  0  0  0  0  0  0  0  0  0
    2.3522  -10.1910    5.0550 H   0  0  0  0  0  0  0  0  0  0  0  0
    4.2414   -7.8301    5.0544 H   0  0  0  0  0  0  0  0  0  0  0  0
    4.0217   -8.9072    3.7148 H   0  0  0  0  0  0  0  0  0  0  0  0
    0.8909   -9.1645    3.6857 H   0  0  0  0  0  0  0  0  0  0  0  0
    1.9774   -8.9489    2.3791 H   0  0  0  0  0  0  0  0  0  0  0  0
    0.6531   -7.8258    2.5956 H   0  0  0  0  0  0  0  0  0  0  0  0
  1  2  1  0
  1 34  1  0
  1 35  1  0
  1 36  1  0
  2  3  1  0
  3  9  1  0
  3  4  2  0
  4  5  1  0
  4 37  1  0
  5 15  1  0
  5  6  1  1
  5  7  1  0
  6 38  1  0
  6 39  1  0
  6 40  1  0
  7  8  2  0
  7 11  1  0
  8  9  1  0
  8 41  1  0
  9 10  2  0
 11 12  1  0
 11 42  1  0
 11 43  1  0
 12 13  1  0
 12 44  1  0
 12 45  1  0
 13 19  1  0
 13 14  1  6
 13 15  1  0
 14 46  1  0
 14 47  1  0
 14 48  1  0
 15 16  1  0
 15 49  1  6
 16 17  1  0
 16 50  1  0
 16 51  1  0
 17 18  1  0
 17 52  1  0
 17 53  1  0
 18 32  1  0
 18 19  1  0
 18 54  1  6
 19 20  1  1
 19 21  1  0
 20 55  1  0
 20 56  1  0
 20 57  1  0
 21 22  1  0
 21 58  1  0
 21 59  1  0
 22 23  1  0
 22 60  1  0
 22 61  1  0
 23 32  1  0
 23 24  1  6
 23 25  1  0
 24 62  1  0
 24 63  1  0
 24 64  1  0
 25 26  1  0
 25 27  1  0
 25 28  1  0
 26 65  1  0
 26 66  1  0
 26 67  1  0
 27 68  1  0
 27 69  1  0
 27 70  1  0
 28 29  1  0
 28 30  1  0
 28 71  1  1
 29 72  1  0
 30 31  1  0
 30 73  1  0
 30 74  1  0
 31 32  1  0
 31 75  1  0
 31 76  1  0
 32 33  1  6
 33 77  1  0
 33 78  1  0
 33 79  1  0
M  END
>  <i_m_ct_stereo_status>  (172) 
1

>  <s_m_source_file>  (172) 
/var/tmp/pbs.5076255.sched01/tmpuxvxg9lz/41q4u19exn.sdf

>  <i_m_source_file_index>  (172) 
27

>  <i_lp_mmshare_version>  (172) 
48012

>  <i_f3d_flags>  (172) 
0

>  <s_epik_input>  (172) 
W0NIM11PQyg9W0NIXTEpQyg9TylbQ0hdPUMoW0NAXTEyW0NIM10pW0NIMl1bQ0gyXVtDQEBdMyhbQ0gzXSlbQ0BASF0yW0NIMl1bQ0gyXVtDQEBIXTRbQ0BdMyhbQ0gzXSlbQ0gyXVtDSDJdW0NAQF01KFtDSDNdKVtDQF00KFtDSDNdKVtDSDJdW0NIMl1bQ0BIXShbT0hdKUM1KFtDSDNdKVtDSDNd

>  <s_epik_cmdline>  (172) 
J2VwaWtfcHl0aG9uJywgJy1waHQnLCAnMi4wJywgJy1waCcsICc3LjAnLCAnLXRuJywgJzgnLCAnLW1hJywgJzIwMCcsICctaW1hZScsICc8aW5maWxlLm1hZT4nLCAnLW9tYWUnLCAnPG91dGZpbGUubWFlPic=

>  <r_lp_tautomer_probability>  (172) 
1

>  <r_epik_Ionization_Penalty>  (172) 
3.0784e-06

>  <r_epik_Ionization_Penalty_Charging>  (172) 
0

>  <r_epik_Ionization_Penalty_Neutral>  (172) 
3.0784e-06

>  <r_epik_State_Penalty>  (172) 
-0

>  <r_epik_Charging_Adjusted_Penalty>  (172) 
0

>  <i_epik_Tot_Q>  (172) 
0

>  <i_epik_Tot_abs_Q>  (172) 
0

>  <s_lp_Force_Field>  (172) 
OPLS3e

>  <r_lp_Energy>  (172) 
120.316

>  <b_lp_Chiralities_Consistent>  (172) 
1

>  <s_lp_Variant>  (172) 
40:0-1

>  <s_i_glide_gridfile>  (172) 
pfpi4k_grid

>  <i_i_glide_lignum>  (172) 
27

>  <i_i_glide_rotatable_bonds>  (172) 
2

>  <r_i_docking_score>  (172) 
-2.64066

>  <r_i_glide_ligand_efficiency>  (172) 
-0.0800199

>  <r_i_glide_ligand_efficiency_sa>  (172) 
-0.256667

>  <r_i_glide_ligand_efficiency_ln>  (172) 
-0.587268

>  <r_i_glide_gscore>  (172) 
-2.64066

>  <r_i_glide_lipo>  (172) 
-0.363116

>  <r_i_glide_hbond>  (172) 
-0.136205

>  <r_i_glide_metal>  (172) 
-0

>  <r_i_glide_rewards>  (172) 
-0.30897

>  <r_i_glide_evdw>  (172) 
-25.4688

>  <r_i_glide_ecoul>  (172) 
-3.40532

>  <r_i_glide_erotb>  (172) 
0

>  <r_i_glide_esite>  (172) 
-0.0481291

>  <r_i_glide_emodel>  (172) 
-32.9894

>  <r_i_glide_energy>  (172) 
-28.8741

>  <r_i_glide_einternal>  (172) 
0.971556

>  <r_i_glide_intrahb_reward>  (172) 
-0

>  <i_i_glide_confnum>  (172) 
2

>  <i_i_glide_posenum>  (172) 
11

>  <r_i_glide_eff_state_penalty>  (172) 
0

>  <ligand_id>  (172) 
40

>  <original_smiles>  (172) 
COC1=CC2(C)C(=CC1=O)CCC1(C)C2CCC2C1(C)CCC1(C)C(C)(C)C(O)CCC21C

>  <smiles>  (172) 
[H]OC1([H])C([H])([H])C([H])([H])C2(C([H])([H])[H])C3([H])C([H])([H])C([H])([H])C4([H])C5(C([H])([H])[H])C([H])=C(OC([H])([H])[H])C(=O)C([H])=C5C([H])([H])C([H])([H])C4(C([H])([H])[H])C3(C([H])([H])[H])C([H])([H])C([H])([H])C2(C([H])([H])[H])C1(C([H])([H])[H])C([H])([H])[H]

$$$$
41:0:0
     RDKit          3D

 34 40  0  0  1  0  0  0  0  0999 V2000
    2.7966   -2.9466   -2.4614 C   0  0  0  0  0  0  0  0  0  0  0  0
    3.3382   -3.0299   -1.2310 C   0  0  0  0  0  0  0  0  0  0  0  0
    2.9115   -2.6665    0.2202 C   0  0  1  0  0  0  0  0  0  0  0  0
    3.4337   -4.0504    0.3594 C   0  0  1  0  0  0  0  0  0  0  0  0
    2.5421   -5.1127    0.0116 O   0  0  0  0  0  0  0  0  0  0  0  0
    4.6068   -3.5275   -0.6724 C   0  0  1  0  0  0  0  0  0  0  0  0
    5.2961   -4.7106   -0.5347 O   0  0  0  0  0  0  0  0  0  0  0  0
    6.2454   -4.4187    0.5550 C   0  0  1  0  0  0  0  0  0  0  0  0
    5.8007   -3.6874    1.9024 C   0  0  2  0  0  0  0  0  0  0  0  0
    4.9867   -2.3142    2.0803 C   0  0  1  0  0  0  0  0  0  0  0  0
    5.7749   -1.0450    1.6792 C   0  0  0  0  0  0  0  0  0  0  0  0
    5.1127   -1.2675    0.3160 C   0  0  2  0  0  0  0  0  0  0  0  0
    3.8443   -1.7095    1.0884 C   0  0  1  0  0  0  0  0  0  0  0  0
    2.9406   -0.6117    1.6950 C   0  0  0  0  0  0  0  0  0  0  0  0
    5.6298   -2.3785   -0.6429 C   0  0  2  0  0  0  0  0  0  0  0  0
    5.8282   -1.8262   -1.9275 O   0  0  0  0  0  0  0  0  0  0  0  0
    6.8388   -3.1988   -0.2500 C   0  0  1  0  0  0  0  0  0  0  0  0
    7.0991   -3.4136    1.1522 C   0  0  2  0  0  0  0  0  0  0  0  0
    3.3475   -3.3060   -3.3209 H   0  0  0  0  0  0  0  0  0  0  0  0
    1.8151   -2.5388   -2.6083 H   0  0  0  0  0  0  0  0  0  0  0  0
    1.8522   -2.6174    0.4635 H   0  0  0  0  0  0  0  0  0  0  0  0
    3.6210   -4.2344    1.4083 H   0  0  0  0  0  0  0  0  0  0  0  0
    2.6798   -5.2923   -0.9118 H   0  0  0  0  0  0  0  0  0  0  0  0
    5.7883   -4.3513    2.7575 H   0  0  0  0  0  0  0  0  0  0  0  0
    4.6497   -2.2178    3.1188 H   0  0  0  0  0  0  0  0  0  0  0  0
    5.4743   -0.1396    2.1886 H   0  0  0  0  0  0  0  0  0  0  0  0
    6.8655   -1.0528    1.6624 H   0  0  0  0  0  0  0  0  0  0  0  0
    4.9247   -0.3107   -0.1833 H   0  0  0  0  0  0  0  0  0  0  0  0
    3.4487    0.1227    2.3185 H   0  0  0  0  0  0  0  0  0  0  0  0
    2.1691   -1.0499    2.3259 H   0  0  0  0  0  0  0  0  0  0  0  0
    2.4250   -0.0552    0.9158 H   0  0  0  0  0  0  0  0  0  0  0  0
    4.9772   -1.5940   -2.2664 H   0  0  0  0  0  0  0  0  0  0  0  0
    7.6585   -3.3322   -0.9619 H   0  0  0  0  0  0  0  0  0  0  0  0
    8.0525   -3.8222    1.5150 H   0  0  0  0  0  0  0  0  0  0  0  0
  1  2  2  0
  1 19  1  0
  1 20  1  0
  2  6  1  0
  2  3  1  0
  3 13  1  0
  3  4  1  0
  3 21  1  6
  4  5  1  0
  4  6  1  0
  4 22  1  1
  5 23  1  0
  6 15  1  0
  6  7  1  6
  8  7  1  1
  8 17  1  0
  8 18  1  0
  8  9  1  0
  9 18  1  0
  9 10  1  0
  9 24  1  1
 10 13  1  0
 10 11  1  0
 10 25  1  1
 11 12  1  0
 11 26  1  0
 11 27  1  0
 12 13  1  0
 12 15  1  0
 12 28  1  6
 13 14  1  1
 14 29  1  0
 14 30  1  0
 14 31  1  0
 15 16  1  6
 15 17  1  0
 16 32  1  0
 17 18  1  0
 17 33  1  6
 18 34  1  1
M  END
>  <i_m_ct_stereo_status>  (173) 
1

>  <s_m_source_file>  (173) 
/var/tmp/pbs.5076255.sched01/tmpuxvxg9lz/41q4u19exn.sdf

>  <i_m_source_file_index>  (173) 
28

>  <i_lp_mmshare_version>  (173) 
48012

>  <i_f3d_flags>  (173) 
0

>  <s_epik_input>  (173) 
W0NIMl09QzFbQ0BASF0oW0NASF0yW09IXSlbQ0BdKFtDSDNdKShbQ0BASF0zW0NAQF00KFtDQF0xMjUpW09IXSlbQ0BIXShbQ0gyXTMpW0NASF02W0NAQF03KE81KVtDQEBIXTRbQ0BASF02Nw==

>  <s_epik_cmdline>  (173) 
J2VwaWtfcHl0aG9uJywgJy1waHQnLCAnMi4wJywgJy1waCcsICc3LjAnLCAnLXRuJywgJzgnLCAnLW1hJywgJzIwMCcsICctaW1hZScsICc8aW5maWxlLm1hZT4nLCAnLW9tYWUnLCAnPG91dGZpbGUubWFlPic=

>  <r_lp_tautomer_probability>  (173) 
1

>  <r_epik_Ionization_Penalty>  (173) 
7.65273e-08

>  <r_epik_Ionization_Penalty_Charging>  (173) 
0

>  <r_epik_Ionization_Penalty_Neutral>  (173) 
7.65273e-08

>  <r_epik_State_Penalty>  (173) 
-0

>  <r_epik_Charging_Adjusted_Penalty>  (173) 
0

>  <i_epik_Tot_Q>  (173) 
0

>  <i_epik_Tot_abs_Q>  (173) 
0

>  <s_lp_Force_Field>  (173) 
OPLS3e

>  <r_lp_Energy>  (173) 
150.102

>  <b_lp_Chiralities_Consistent>  (173) 
1

>  <s_lp_Variant>  (173) 
41:0-1

>  <s_i_glide_gridfile>  (173) 
pfpi4k_grid

>  <i_i_glide_lignum>  (173) 
28

>  <i_i_glide_rotatable_bonds>  (173) 
2

>  <r_i_docking_score>  (173) 
-3.86601

>  <r_i_glide_ligand_efficiency>  (173) 
-0.214778

>  <r_i_glide_ligand_efficiency_sa>  (173) 
-0.562878

>  <r_i_glide_ligand_efficiency_ln>  (173) 
-0.993737

>  <r_i_glide_gscore>  (173) 
-3.86601

>  <r_i_glide_lipo>  (173) 
-0.588884

>  <r_i_glide_hbond>  (173) 
0

>  <r_i_glide_metal>  (173) 
-0

>  <r_i_glide_rewards>  (173) 
-1.74351

>  <r_i_glide_evdw>  (173) 
-16.3901

>  <r_i_glide_ecoul>  (173) 
-4.76076

>  <r_i_glide_erotb>  (173) 
0

>  <r_i_glide_esite>  (173) 
0

>  <r_i_glide_emodel>  (173) 
-24.0846

>  <r_i_glide_energy>  (173) 
-21.1508

>  <r_i_glide_einternal>  (173) 
0.62086

>  <r_i_glide_intrahb_reward>  (173) 
-0

>  <i_i_glide_confnum>  (173) 
1

>  <i_i_glide_posenum>  (173) 
25

>  <r_i_glide_eff_state_penalty>  (173) 
0

>  <ligand_id>  (173) 
41

>  <original_smiles>  (173) 
C=C1C2C(O)C13OC14C5C6CC(C62C)C3(O)C1C54

>  <smiles>  (173) 
[H]OC1([H])C2([H])C(=C([H])[H])C13OC14C5([H])C1([H])C1([H])C([H])([H])C([H])(C3(O[H])C54[H])C21C([H])([H])[H]

$$$$
41:0:1
     RDKit          3D

 34 40  0  0  1  0  0  0  0  0999 V2000
    3.1693   -1.6059   -2.1002 C   0  0  0  0  0  0  0  0  0  0  0  0
    3.7155   -2.1734   -1.0310 C   0  0  0  0  0  0  0  0  0  0  0  0
    4.5491   -1.7221    0.2086 C   0  0  1  0  0  0  0  0  0  0  0  0
    3.5230   -2.6129    0.7925 C   0  0  1  0  0  0  0  0  0  0  0  0
    2.2182   -2.0720    1.0523 O   0  0  0  0  0  0  0  0  0  0  0  0
    3.8007   -3.5584   -0.5092 C   0  0  1  0  0  0  0  0  0  0  0  0
    2.9739   -4.5314    0.0356 O   0  0  0  0  0  0  0  0  0  0  0  0
    3.9206   -5.4159    0.7334 C   0  0  1  0  0  0  0  0  0  0  0  0
    5.0359   -4.8440    1.7184 C   0  0  2  0  0  0  0  0  0  0  0  0
    6.1246   -3.7037    1.4298 C   0  0  1  0  0  0  0  0  0  0  0  0
    7.2381   -4.1082    0.4315 C   0  0  0  0  0  0  0  0  0  0  0  0
    6.3183   -3.4690   -0.6030 C   0  0  2  0  0  0  0  0  0  0  0  0
    5.9645   -2.4051    0.4619 C   0  0  1  0  0  0  0  0  0  0  0  0
    6.9843   -1.2771    0.7207 C   0  0  0  0  0  0  0  0  0  0  0  0
    5.0530   -4.2387   -1.0918 C   0  0  2  0  0  0  0  0  0  0  0  0
    5.0131   -4.2476   -2.5021 O   0  0  0  0  0  0  0  0  0  0  0  0
    4.7720   -5.6238   -0.5706 C   0  0  1  0  0  0  0  0  0  0  0  0
    5.2495   -5.9864    0.7446 C   0  0  2  0  0  0  0  0  0  0  0  0
    2.6033   -2.2023   -2.8033 H   0  0  0  0  0  0  0  0  0  0  0  0
    3.2222   -0.5394   -2.2718 H   0  0  0  0  0  0  0  0  0  0  0  0
    4.4594   -0.6871    0.5425 H   0  0  0  0  0  0  0  0  0  0  0  0
    3.8532   -2.8760    1.7907 H   0  0  0  0  0  0  0  0  0  0  0  0
    1.9046   -1.6206    0.2777 H   0  0  0  0  0  0  0  0  0  0  0  0
    4.8237   -5.0481    2.7607 H   0  0  0  0  0  0  0  0  0  0  0  0
    6.5786   -3.3849    2.3710 H   0  0  0  0  0  0  0  0  0  0  0  0
    8.1837   -3.5917    0.5644 H   0  0  0  0  0  0  0  0  0  0  0  0
    7.4723   -5.1566    0.2512 H   0  0  0  0  0  0  0  0  0  0  0  0
    6.8844   -3.0214   -1.4173 H   0  0  0  0  0  0  0  0  0  0  0  0
    8.0140   -1.5862    0.8785 H   0  0  0  0  0  0  0  0  0  0  0  0
    6.6964   -0.6777    1.5855 H   0  0  0  0  0  0  0  0  0  0  0  0
    6.9925   -0.6000   -0.1214 H   0  0  0  0  0  0  0  0  0  0  0  0
    4.2915   -4.8219   -2.7425 H   0  0  0  0  0  0  0  0  0  0  0  0
    4.6514   -6.4633   -1.2550 H   0  0  0  0  0  0  0  0  0  0  0  0
    5.2620   -7.0165    1.0714 H   0  0  0  0  0  0  0  0  0  0  0  0
  1  2  2  0
  1 19  1  0
  1 20  1  0
  2  6  1  0
  2  3  1  0
  3 13  1  0
  3  4  1  0
  3 21  1  1
  4  5  1  0
  4  6  1  0
  4 22  1  1
  5 23  1  0
  6 15  1  0
  6  7  1  6
  8  7  1  1
  8 17  1  0
  8 18  1  0
  8  9  1  0
  9 18  1  0
  9 10  1  0
  9 24  1  1
 10 13  1  0
 10 11  1  0
 10 25  1  1
 11 12  1  0
 11 26  1  0
 11 27  1  0
 12 13  1  0
 12 15  1  0
 12 28  1  6
 13 14  1  1
 14 29  1  0
 14 30  1  0
 14 31  1  0
 15 16  1  6
 15 17  1  0
 16 32  1  0
 17 18  1  0
 17 33  1  6
 18 34  1  6
M  END
>  <i_m_ct_stereo_status>  (174) 
1

>  <s_m_source_file>  (174) 
/var/tmp/pbs.5076255.sched01/tmpuxvxg9lz/41q4u19exn.sdf

>  <i_m_source_file_index>  (174) 
28

>  <i_lp_mmshare_version>  (174) 
48012

>  <i_f3d_flags>  (174) 
0

>  <s_epik_input>  (174) 
W0NIMl09QzFbQ0BASF0oW0NASF0yW09IXSlbQ0BdKFtDSDNdKShbQ0BASF0zW0NAQF00KFtDQF0xMjUpW09IXSlbQ0BIXShbQ0gyXTMpW0NASF02W0NAQF03KE81KVtDQEBIXTRbQ0BASF02Nw==

>  <s_epik_cmdline>  (174) 
J2VwaWtfcHl0aG9uJywgJy1waHQnLCAnMi4wJywgJy1waCcsICc3LjAnLCAnLXRuJywgJzgnLCAnLW1hJywgJzIwMCcsICctaW1hZScsICc8aW5maWxlLm1hZT4nLCAnLW9tYWUnLCAnPG91dGZpbGUubWFlPic=

>  <r_lp_tautomer_probability>  (174) 
1

>  <r_epik_Ionization_Penalty>  (174) 
7.65273e-08

>  <r_epik_Ionization_Penalty_Charging>  (174) 
0

>  <r_epik_Ionization_Penalty_Neutral>  (174) 
7.65273e-08

>  <r_epik_State_Penalty>  (174) 
-0

>  <r_epik_Charging_Adjusted_Penalty>  (174) 
0

>  <i_epik_Tot_Q>  (174) 
0

>  <i_epik_Tot_abs_Q>  (174) 
0

>  <s_lp_Force_Field>  (174) 
OPLS3e

>  <r_lp_Energy>  (174) 
150.102

>  <b_lp_Chiralities_Consistent>  (174) 
1

>  <s_lp_Variant>  (174) 
41:0-1

>  <s_i_glide_gridfile>  (174) 
pfpi4k_grid

>  <i_i_glide_lignum>  (174) 
28

>  <i_i_glide_rotatable_bonds>  (174) 
2

>  <r_i_docking_score>  (174) 
-3.70054

>  <r_i_glide_ligand_efficiency>  (174) 
-0.205586

>  <r_i_glide_ligand_efficiency_sa>  (174) 
-0.538787

>  <r_i_glide_ligand_efficiency_ln>  (174) 
-0.951205

>  <r_i_glide_gscore>  (174) 
-3.70054

>  <r_i_glide_lipo>  (174) 
-0.571707

>  <r_i_glide_hbond>  (174) 
0

>  <r_i_glide_metal>  (174) 
-0

>  <r_i_glide_rewards>  (174) 
-1.74351

>  <r_i_glide_evdw>  (174) 
-9.63682

>  <r_i_glide_ecoul>  (174) 
-6.02324

>  <r_i_glide_erotb>  (174) 
0

>  <r_i_glide_esite>  (174) 
0

>  <r_i_glide_emodel>  (174) 
-18.7003

>  <r_i_glide_energy>  (174) 
-15.6601

>  <r_i_glide_einternal>  (174) 
0.117081

>  <r_i_glide_intrahb_reward>  (174) 
-0

>  <i_i_glide_confnum>  (174) 
2

>  <i_i_glide_posenum>  (174) 
6

>  <r_i_glide_eff_state_penalty>  (174) 
0

>  <ligand_id>  (174) 
41

>  <original_smiles>  (174) 
C=C1C2C(O)C13OC14C5C6CC(C62C)C3(O)C1C54

>  <smiles>  (174) 
[H]OC1([H])C2([H])C(=C([H])[H])C13OC14C5([H])C1([H])C1([H])C([H])([H])C([H])(C3(O[H])C54[H])C21C([H])([H])[H]

$$$$
41:0:2
     RDKit          3D

 34 40  0  0  1  0  0  0  0  0999 V2000
    4.3571   -0.8191   -1.7749 C   0  0  0  0  0  0  0  0  0  0  0  0
    4.6933   -1.5973   -0.7327 C   0  0  0  0  0  0  0  0  0  0  0  0
    6.0010   -2.0264   -0.0194 C   0  0  1  0  0  0  0  0  0  0  0  0
    5.1049   -1.6464    1.1080 C   0  0  1  0  0  0  0  0  0  0  0  0
    4.9774   -0.2516    1.4233 O   0  0  0  0  0  0  0  0  0  0  0  0
    3.9437   -2.4280    0.2403 C   0  0  1  0  0  0  0  0  0  0  0  0
    3.0378   -2.2790    1.2721 O   0  0  0  0  0  0  0  0  0  0  0  0
    3.1974   -3.5482    2.0095 C   0  0  1  0  0  0  0  0  0  0  0  0
    4.6173   -4.1506    2.3954 C   0  0  2  0  0  0  0  0  0  0  0  0
    5.8811   -4.4261    1.4477 C   0  0  1  0  0  0  0  0  0  0  0  0
    5.6836   -5.5846    0.4443 C   0  0  0  0  0  0  0  0  0  0  0  0
    5.2166   -4.4679   -0.4958 C   0  0  2  0  0  0  0  0  0  0  0  0
    6.3295   -3.5787    0.1262 C   0  0  1  0  0  0  0  0  0  0  0  0
    7.7829   -3.7970   -0.3477 C   0  0  0  0  0  0  0  0  0  0  0  0
    3.7967   -3.8530   -0.3326 C   0  0  2  0  0  0  0  0  0  0  0  0
    3.1270   -3.8516   -1.5700 O   0  0  0  0  0  0  0  0  0  0  0  0
    2.8644   -4.4047    0.7154 C   0  0  1  0  0  0  0  0  0  0  0  0
    3.4235   -4.9692    1.9156 C   0  0  2  0  0  0  0  0  0  0  0  0
    3.3159   -0.7119   -2.0415 H   0  0  0  0  0  0  0  0  0  0  0  0
    5.0920   -0.2632   -2.3389 H   0  0  0  0  0  0  0  0  0  0  0  0
    6.8776   -1.3734   -0.0843 H   0  0  0  0  0  0  0  0  0  0  0  0
    5.5212   -2.0710    2.0169 H   0  0  0  0  0  0  0  0  0  0  0  0
    4.5746    0.1623    0.6764 H   0  0  0  0  0  0  0  0  0  0  0  0
    4.8339   -4.0625    3.4564 H   0  0  0  0  0  0  0  0  0  0  0  0
    6.7656   -4.6286    2.0561 H   0  0  0  0  0  0  0  0  0  0  0  0
    6.5924   -6.0817    0.1310 H   0  0  0  0  0  0  0  0  0  0  0  0
    4.9385   -6.3599    0.6234 H   0  0  0  0  0  0  0  0  0  0  0  0
    5.4545   -4.6921   -1.5374 H   0  0  0  0  0  0  0  0  0  0  0  0
    8.1448   -4.8192   -0.3012 H   0  0  0  0  0  0  0  0  0  0  0  0
    8.4750   -3.2142    0.2562 H   0  0  0  0  0  0  0  0  0  0  0  0
    7.9143   -3.4637   -1.3765 H   0  0  0  0  0  0  0  0  0  0  0  0
    3.0697   -4.7490   -1.8963 H   0  0  0  0  0  0  0  0  0  0  0  0
    1.8397   -4.6450    0.4439 H   0  0  0  0  0  0  0  0  0  0  0  0
    2.8303   -5.5530    2.6116 H   0  0  0  0  0  0  0  0  0  0  0  0
  1  2  2  0
  1 19  1  0
  1 20  1  0
  2  6  1  0
  2  3  1  0
  3 13  1  0
  3  4  1  0
  3 21  1  6
  4  5  1  0
  4  6  1  0
  4 22  1  1
  5 23  1  0
  6 15  1  0
  6  7  1  1
  8  7  1  6
  8 17  1  0
  8 18  1  0
  8  9  1  0
  9 18  1  0
  9 10  1  0
  9 24  1  1
 10 13  1  0
 10 11  1  0
 10 25  1  1
 11 12  1  0
 11 26  1  0
 11 27  1  0
 12 13  1  0
 12 15  1  0
 12 28  1  6
 13 14  1  6
 14 29  1  0
 14 30  1  0
 14 31  1  0
 15 16  1  6
 15 17  1  0
 16 32  1  0
 17 18  1  0
 17 33  1  6
 18 34  1  1
M  END
>  <i_m_ct_stereo_status>  (175) 
1

>  <s_m_source_file>  (175) 
/var/tmp/pbs.5076255.sched01/tmpuxvxg9lz/41q4u19exn.sdf

>  <i_m_source_file_index>  (175) 
28

>  <i_lp_mmshare_version>  (175) 
48012

>  <i_f3d_flags>  (175) 
0

>  <s_epik_input>  (175) 
W0NIMl09QzFbQ0BASF0oW0NASF0yW09IXSlbQ0BdKFtDSDNdKShbQ0BASF0zW0NAQF00KFtDQF0xMjUpW09IXSlbQ0BIXShbQ0gyXTMpW0NASF02W0NAQF03KE81KVtDQEBIXTRbQ0BASF02Nw==

>  <s_epik_cmdline>  (175) 
J2VwaWtfcHl0aG9uJywgJy1waHQnLCAnMi4wJywgJy1waCcsICc3LjAnLCAnLXRuJywgJzgnLCAnLW1hJywgJzIwMCcsICctaW1hZScsICc8aW5maWxlLm1hZT4nLCAnLW9tYWUnLCAnPG91dGZpbGUubWFlPic=

>  <r_lp_tautomer_probability>  (175) 
1

>  <r_epik_Ionization_Penalty>  (175) 
7.65273e-08

>  <r_epik_Ionization_Penalty_Charging>  (175) 
0

>  <r_epik_Ionization_Penalty_Neutral>  (175) 
7.65273e-08

>  <r_epik_State_Penalty>  (175) 
-0

>  <r_epik_Charging_Adjusted_Penalty>  (175) 
0

>  <i_epik_Tot_Q>  (175) 
0

>  <i_epik_Tot_abs_Q>  (175) 
0

>  <s_lp_Force_Field>  (175) 
OPLS3e

>  <r_lp_Energy>  (175) 
150.102

>  <b_lp_Chiralities_Consistent>  (175) 
1

>  <s_lp_Variant>  (175) 
41:0-1

>  <s_i_glide_gridfile>  (175) 
pfpi4k_grid

>  <i_i_glide_lignum>  (175) 
28

>  <i_i_glide_rotatable_bonds>  (175) 
2

>  <r_i_docking_score>  (175) 
-3.65157

>  <r_i_glide_ligand_efficiency>  (175) 
-0.202865

>  <r_i_glide_ligand_efficiency_sa>  (175) 
-0.531657

>  <r_i_glide_ligand_efficiency_ln>  (175) 
-0.938618

>  <r_i_glide_gscore>  (175) 
-3.65157

>  <r_i_glide_lipo>  (175) 
-0.543624

>  <r_i_glide_hbond>  (175) 
0

>  <r_i_glide_metal>  (175) 
-0

>  <r_i_glide_rewards>  (175) 
-1.74351

>  <r_i_glide_evdw>  (175) 
-11.9392

>  <r_i_glide_ecoul>  (175) 
-5.11654

>  <r_i_glide_erotb>  (175) 
0

>  <r_i_glide_esite>  (175) 
0

>  <r_i_glide_emodel>  (175) 
-20.3064

>  <r_i_glide_energy>  (175) 
-17.0557

>  <r_i_glide_einternal>  (175) 
0.0721461

>  <r_i_glide_intrahb_reward>  (175) 
-0

>  <i_i_glide_confnum>  (175) 
1

>  <i_i_glide_posenum>  (175) 
18

>  <r_i_glide_eff_state_penalty>  (175) 
0

>  <ligand_id>  (175) 
41

>  <original_smiles>  (175) 
C=C1C2C(O)C13OC14C5C6CC(C62C)C3(O)C1C54

>  <smiles>  (175) 
[H]OC1([H])C2([H])C(=C([H])[H])C13OC14C5([H])C1([H])C1([H])C([H])([H])C([H])(C3(O[H])C54[H])C21C([H])([H])[H]

$$$$
42:0:0
     RDKit          3D

 60 64  0  0  1  0  0  0  0  0999 V2000
   -0.1785   -9.8076    2.8857 C   0  0  0  0  0  0  0  0  0  0  0  0
    0.4088   -8.3841    2.9890 C   0  0  0  0  0  0  0  0  0  0  0  0
   -0.5058   -7.4282    2.1960 C   0  0  0  0  0  0  0  0  0  0  0  0
    0.5379   -7.9336    4.4695 C   0  0  0  0  0  0  0  0  0  0  0  0
    1.7205   -6.9713    4.5000 C   0  0  1  0  0  0  0  0  0  0  0  0
    2.7940   -7.2706    5.4293 O   0  0  0  0  0  0  0  0  0  0  0  0
    3.5241   -7.9114    4.3572 C   0  0  2  0  0  0  0  0  0  0  0  0
    5.0252   -7.6445    4.3226 C   0  0  0  0  0  0  0  0  0  0  0  0
    5.3983   -6.2965    3.6881 C   0  0  0  0  0  0  0  0  0  0  0  0
    4.7103   -5.9954    2.3122 C   0  0  1  0  0  0  0  0  0  0  0  0
    5.0211   -7.1307    1.2988 C   0  0  0  0  0  0  0  0  0  0  0  0
    3.1758   -5.9779    2.5901 C   0  0  1  0  0  0  0  0  0  0  0  0
    2.3133   -5.4296    1.4331 C   0  0  0  0  0  0  0  0  0  0  0  0
    3.0489   -4.5299    0.4636 C   0  0  0  0  0  0  0  0  0  0  0  0
    4.3367   -4.1399    0.5416 C   0  0  0  0  0  0  0  0  0  0  0  0
    4.9291   -3.2348   -0.5744 C   0  0  0  0  0  0  0  0  0  0  0  0
    4.6160   -3.8214   -1.9701 C   0  0  0  0  0  0  0  0  0  0  0  0
    4.3067   -1.8245   -0.4475 C   0  0  0  0  0  0  0  0  0  0  0  0
    6.4658   -3.0994   -0.5267 C   0  0  0  0  0  0  0  0  0  0  0  0
    7.0191   -2.2526   -1.2237 O   0  0  0  0  0  0  0  0  0  0  0  0
    7.2467   -4.0215    0.2912 C   0  0  0  0  0  0  0  0  0  0  0  0
    6.6808   -4.6919    1.3033 C   0  0  0  0  0  0  0  0  0  0  0  0
    5.2145   -4.5968    1.7285 C   0  0  2  0  0  0  0  0  0  0  0  0
    5.1517   -3.4488    2.7685 C   0  0  0  0  0  0  0  0  0  0  0  0
    2.6139   -7.2575    3.3036 C   0  0  2  0  0  0  0  0  0  0  0  0
    1.8587   -8.2951    2.4420 C   0  0  0  0  0  0  0  0  0  0  0  0
   -1.1937   -9.8417    3.2842 H   0  0  0  0  0  0  0  0  0  0  0  0
    0.4174  -10.5295    3.4476 H   0  0  0  0  0  0  0  0  0  0  0  0
   -0.2305  -10.1567    1.8551 H   0  0  0  0  0  0  0  0  0  0  0  0
   -0.1971   -6.3913    2.3148 H   0  0  0  0  0  0  0  0  0  0  0  0
   -1.5463   -7.5042    2.5179 H   0  0  0  0  0  0  0  0  0  0  0  0
   -0.4831   -7.6605    1.1289 H   0  0  0  0  0  0  0  0  0  0  0  0
   -0.3755   -7.4615    4.8296 H   0  0  0  0  0  0  0  0  0  0  0  0
    0.7122   -8.7985    5.1154 H   0  0  0  0  0  0  0  0  0  0  0  0
    1.4190   -5.9263    4.5628 H   0  0  0  0  0  0  0  0  0  0  0  0
    3.3455   -8.9849    4.4373 H   0  0  0  0  0  0  0  0  0  0  0  0
    5.4713   -7.7298    5.3150 H   0  0  0  0  0  0  0  0  0  0  0  0
    5.4918   -8.4226    3.7187 H   0  0  0  0  0  0  0  0  0  0  0  0
    5.1090   -5.5294    4.4133 H   0  0  0  0  0  0  0  0  0  0  0  0
    6.4835   -6.2381    3.6100 H   0  0  0  0  0  0  0  0  0  0  0  0
    4.6422   -6.8982    0.3021 H   0  0  0  0  0  0  0  0  0  0  0  0
    4.5656   -8.0767    1.5922 H   0  0  0  0  0  0  0  0  0  0  0  0
    6.0927   -7.3126    1.2159 H   0  0  0  0  0  0  0  0  0  0  0  0
    3.0850   -5.1848    3.3326 H   0  0  0  0  0  0  0  0  0  0  0  0
    1.8837   -6.2014    0.8043 H   0  0  0  0  0  0  0  0  0  0  0  0
    1.4846   -4.8633    1.8575 H   0  0  0  0  0  0  0  0  0  0  0  0
    2.4404   -4.1851   -0.3581 H   0  0  0  0  0  0  0  0  0  0  0  0
    4.9780   -4.8470   -2.0415 H   0  0  0  0  0  0  0  0  0  0  0  0
    5.0929   -3.2594   -2.7710 H   0  0  0  0  0  0  0  0  0  0  0  0
    3.5466   -3.8361   -2.1979 H   0  0  0  0  0  0  0  0  0  0  0  0
    4.5647   -1.3720    0.5109 H   0  0  0  0  0  0  0  0  0  0  0  0
    3.2168   -1.8528   -0.5058 H   0  0  0  0  0  0  0  0  0  0  0  0
    4.6483   -1.1470   -1.2310 H   0  0  0  0  0  0  0  0  0  0  0  0
    8.2962   -4.1295    0.0709 H   0  0  0  0  0  0  0  0  0  0  0  0
    7.3169   -5.3454    1.8879 H   0  0  0  0  0  0  0  0  0  0  0  0
    5.4869   -2.5110    2.3263 H   0  0  0  0  0  0  0  0  0  0  0  0
    5.8072   -3.6194    3.6206 H   0  0  0  0  0  0  0  0  0  0  0  0
    4.1441   -3.2702    3.1395 H   0  0  0  0  0  0  0  0  0  0  0  0
    2.3121   -9.2763    2.5781 H   0  0  0  0  0  0  0  0  0  0  0  0
    1.9199   -8.1595    1.3677 H   0  0  0  0  0  0  0  0  0  0  0  0
  1  2  1  0
  1 27  1  0
  1 28  1  0
  1 29  1  0
  2 26  1  0
  2  3  1  0
  2  4  1  0
  3 30  1  0
  3 31  1  0
  3 32  1  0
  4  5  1  0
  4 33  1  0
  4 34  1  0
  5 25  1  0
  5  6  1  0
  5 35  1  6
  6  7  1  0
  7 25  1  0
  7  8  1  0
  7 36  1  1
  8  9  1  0
  8 37  1  0
  8 38  1  0
  9 10  1  0
  9 39  1  0
  9 40  1  0
 10 23  1  0
 10 11  1  6
 10 12  1  0
 11 41  1  0
 11 42  1  0
 11 43  1  0
 12 13  1  0
 12 25  1  0
 12 44  1  1
 13 14  1  0
 13 45  1  0
 13 46  1  0
 14 15  2  0
 14 47  1  0
 15 23  1  0
 15 16  1  0
 16 17  1  0
 16 18  1  0
 16 19  1  0
 17 48  1  0
 17 49  1  0
 17 50  1  0
 18 51  1  0
 18 52  1  0
 18 53  1  0
 19 20  2  0
 19 21  1  0
 21 22  2  0
 21 54  1  0
 22 23  1  0
 22 55  1  0
 23 24  1  1
 24 56  1  0
 24 57  1  0
 24 58  1  0
 25 26  1  6
 26 59  1  0
 26 60  1  0
M  END
>  <i_m_ct_stereo_status>  (176) 
1

>  <s_m_source_file>  (176) 
/var/tmp/pbs.5076255.sched01/tmpuxvxg9lz/41q4u19exn.sdf

>  <i_m_source_file_index>  (176) 
29

>  <i_lp_mmshare_version>  (176) 
48012

>  <i_f3d_flags>  (176) 
0

>  <s_epik_input>  (176) 
W0NIM11DKFtDSDNdKShbQ0gyXTEpW0NIMl1bQ0BIXShbQ0BdMTIzKU9bQ0BASF0yW0NIMl1bQ0gyXVtDQEBdNChbQ0gzXSlbQ0BIXTNbQ0gyXVtDSF09QzVbQ0BdNChbQ0gzXSlbQ0hdPVtDSF1DKD1PKUM1KFtDSDNdKVtDSDNd

>  <s_epik_cmdline>  (176) 
J2VwaWtfcHl0aG9uJywgJy1waHQnLCAnMi4wJywgJy1waCcsICc3LjAnLCAnLXRuJywgJzgnLCAnLW1hJywgJzIwMCcsICctaW1hZScsICc8aW5maWxlLm1hZT4nLCAnLW9tYWUnLCAnPG91dGZpbGUubWFlPic=

>  <r_lp_tautomer_probability>  (176) 
1

>  <r_epik_Ionization_Penalty>  (176) 
7.27317e-11

>  <r_epik_Ionization_Penalty_Charging>  (176) 
0

>  <r_epik_Ionization_Penalty_Neutral>  (176) 
7.27317e-11

>  <r_epik_State_Penalty>  (176) 
-0

>  <r_epik_Charging_Adjusted_Penalty>  (176) 
0

>  <i_epik_Tot_Q>  (176) 
0

>  <i_epik_Tot_abs_Q>  (176) 
0

>  <s_lp_Force_Field>  (176) 
OPLS3e

>  <r_lp_Energy>  (176) 
64.0036

>  <b_lp_Chiralities_Consistent>  (176) 
1

>  <s_lp_Variant>  (176) 
42:0-1

>  <s_i_glide_gridfile>  (176) 
pfpi4k_grid

>  <i_i_glide_lignum>  (176) 
29

>  <i_i_glide_rotatable_bonds>  (176) 
0

>  <r_i_docking_score>  (176) 
-3.51444

>  <r_i_glide_ligand_efficiency>  (176) 
-0.135171

>  <r_i_glide_ligand_efficiency_sa>  (176) 
-0.400443

>  <r_i_glide_ligand_efficiency_ln>  (176) 
-0.825356

>  <r_i_glide_gscore>  (176) 
-3.51444

>  <r_i_glide_lipo>  (176) 
-0.482574

>  <r_i_glide_hbond>  (176) 
-0.16

>  <r_i_glide_metal>  (176) 
-0

>  <r_i_glide_rewards>  (176) 
-1.07863

>  <r_i_glide_evdw>  (176) 
-27.9433

>  <r_i_glide_ecoul>  (176) 
-2.64051

>  <r_i_glide_erotb>  (176) 
0

>  <r_i_glide_esite>  (176) 
0

>  <r_i_glide_emodel>  (176) 
-37.2611

>  <r_i_glide_energy>  (176) 
-30.5838

>  <r_i_glide_einternal>  (176) 
0

>  <r_i_glide_intrahb_reward>  (176) 
-0

>  <i_i_glide_confnum>  (176) 
2

>  <i_i_glide_posenum>  (176) 
40

>  <r_i_glide_eff_state_penalty>  (176) 
0

>  <ligand_id>  (176) 
42

>  <original_smiles>  (176) 
CC1(C)CC2OC3CCC4(C)C(CC=C5C(C)(C)C(=O)C=CC54C)C32C1

>  <smiles>  (176) 
[H]C1=C([H])C2(C([H])([H])[H])C(=C([H])C([H])([H])C3([H])C45C([H])([H])C(C([H])([H])[H])(C([H])([H])[H])C([H])([H])C4([H])OC5([H])C([H])([H])C([H])([H])C23C([H])([H])[H])C(C([H])([H])[H])(C([H])([H])[H])C1=O

$$$$
42:0:1
     RDKit          3D

 60 64  0  0  1  0  0  0  0  0999 V2000
   -0.5431   -9.7475    2.7381 C   0  0  0  0  0  0  0  0  0  0  0  0
    0.2378   -8.4637    3.0454 C   0  0  0  0  0  0  0  0  0  0  0  0
   -0.7020   -7.2672    2.8103 C   0  0  0  0  0  0  0  0  0  0  0  0
    0.7785   -8.4771    4.5027 C   0  0  0  0  0  0  0  0  0  0  0  0
    2.0623   -7.6559    4.4732 C   0  0  1  0  0  0  0  0  0  0  0  0
    3.2623   -8.2539    4.9445 O   0  0  0  0  0  0  0  0  0  0  0  0
    3.6172   -8.5909    3.6164 C   0  0  2  0  0  0  0  0  0  0  0  0
    5.0899   -8.4280    3.2428 C   0  0  0  0  0  0  0  0  0  0  0  0
    5.4812   -6.9753    2.9079 C   0  0  0  0  0  0  0  0  0  0  0  0
    4.5271   -6.2383    1.9118 C   0  0  1  0  0  0  0  0  0  0  0  0
    4.4302   -7.0404    0.5901 C   0  0  0  0  0  0  0  0  0  0  0  0
    3.1194   -6.2204    2.5806 C   0  0  1  0  0  0  0  0  0  0  0  0
    2.0941   -5.3048    1.8875 C   0  0  0  0  0  0  0  0  0  0  0  0
    2.6875   -4.2045    1.0283 C   0  0  0  0  0  0  0  0  0  0  0  0
    3.9974   -3.9340    0.8675 C   0  0  0  0  0  0  0  0  0  0  0  0
    4.4107   -2.7790   -0.0919 C   0  0  0  0  0  0  0  0  0  0  0  0
    3.6852   -2.9161   -1.4520 C   0  0  0  0  0  0  0  0  0  0  0  0
    4.0311   -1.4332    0.5670 C   0  0  0  0  0  0  0  0  0  0  0  0
    5.9166   -2.7696   -0.4163 C   0  0  0  0  0  0  0  0  0  0  0  0
    6.3952   -1.7906   -1.0057 O   0  0  0  0  0  0  0  0  0  0  0  0
    6.7515   -3.9159   -0.0953 C   0  0  0  0  0  0  0  0  0  0  0  0
    6.3575   -4.8185    0.8080 C   0  0  0  0  0  0  0  0  0  0  0  0
    5.0537   -4.7672    1.6020 C   0  0  2  0  0  0  0  0  0  0  0  0
    5.3847   -3.9742    2.8909 C   0  0  0  0  0  0  0  0  0  0  0  0
    2.5793   -7.6085    3.0384 C   0  0  2  0  0  0  0  0  0  0  0  0
    1.5135   -8.3019    2.1698 C   0  0  0  0  0  0  0  0  0  0  0  0
   -1.4275   -9.8215    3.3705 H   0  0  0  0  0  0  0  0  0  0  0  0
    0.0614  -10.6435    2.8952 H   0  0  0  0  0  0  0  0  0  0  0  0
   -0.9108   -9.7595    1.7209 H   0  0  0  0  0  0  0  0  0  0  0  0
   -0.2480   -6.3276    3.1234 H   0  0  0  0  0  0  0  0  0  0  0  0
   -1.6399   -7.3776    3.3623 H   0  0  0  0  0  0  0  0  0  0  0  0
   -0.9642   -7.1796    1.7527 H   0  0  0  0  0  0  0  0  0  0  0  0
    0.0457   -8.0748    5.2020 H   0  0  0  0  0  0  0  0  0  0  0  0
    0.9796   -9.5044    4.8210 H   0  0  0  0  0  0  0  0  0  0  0  0
    1.9103   -6.6426    4.8860 H   0  0  0  0  0  0  0  0  0  0  0  0
    3.3266   -9.6370    3.4341 H   0  0  0  0  0  0  0  0  0  0  0  0
    5.7471   -8.8234    4.0167 H   0  0  0  0  0  0  0  0  0  0  0  0
    5.2934   -9.0178    2.3452 H   0  0  0  0  0  0  0  0  0  0  0  0
    5.4749   -6.4424    3.8711 H   0  0  0  0  0  0  0  0  0  0  0  0
    6.5121   -6.9574    2.5685 H   0  0  0  0  0  0  0  0  0  0  0  0
    3.8634   -6.5057   -0.1758 H   0  0  0  0  0  0  0  0  0  0  0  0
    3.9412   -8.0057    0.7258 H   0  0  0  0  0  0  0  0  0  0  0  0
    5.4107   -7.2411    0.1907 H   0  0  0  0  0  0  0  0  0  0  0  0
    3.3155   -5.6710    3.5075 H   0  0  0  0  0  0  0  0  0  0  0  0
    1.4301   -5.8343    1.2096 H   0  0  0  0  0  0  0  0  0  0  0  0
    1.4622   -4.8299    2.6428 H   0  0  0  0  0  0  0  0  0  0  0  0
    1.9584   -3.5906    0.5281 H   0  0  0  0  0  0  0  0  0  0  0  0
    3.8843   -3.8967   -1.8956 H   0  0  0  0  0  0  0  0  0  0  0  0
    4.0272   -2.1717   -2.1706 H   0  0  0  0  0  0  0  0  0  0  0  0
    2.6045   -2.7996   -1.3862 H   0  0  0  0  0  0  0  0  0  0  0  0
    4.5697   -1.2974    1.5096 H   0  0  0  0  0  0  0  0  0  0  0  0
    2.9664   -1.3760    0.7965 H   0  0  0  0  0  0  0  0  0  0  0  0
    4.2675   -0.5766   -0.0634 H   0  0  0  0  0  0  0  0  0  0  0  0
    7.6891   -4.0012   -0.6158 H   0  0  0  0  0  0  0  0  0  0  0  0
    7.0200   -5.6518    0.9956 H   0  0  0  0  0  0  0  0  0  0  0  0
    5.7462   -2.9719    2.6483 H   0  0  0  0  0  0  0  0  0  0  0  0
    6.1666   -4.4446    3.4734 H   0  0  0  0  0  0  0  0  0  0  0  0
    4.5193   -3.8403    3.5407 H   0  0  0  0  0  0  0  0  0  0  0  0
    1.8488   -9.3099    1.9128 H   0  0  0  0  0  0  0  0  0  0  0  0
    1.3317   -7.8644    1.1983 H   0  0  0  0  0  0  0  0  0  0  0  0
  1  2  1  0
  1 27  1  0
  1 28  1  0
  1 29  1  0
  2 26  1  0
  2  3  1  0
  2  4  1  0
  3 30  1  0
  3 31  1  0
  3 32  1  0
  4  5  1  0
  4 33  1  0
  4 34  1  0
  5 25  1  0
  5  6  1  0
  5 35  1  1
  6  7  1  0
  7 25  1  0
  7  8  1  0
  7 36  1  1
  8  9  1  0
  8 37  1  0
  8 38  1  0
  9 10  1  0
  9 39  1  0
  9 40  1  0
 10 23  1  0
 10 11  1  6
 10 12  1  0
 11 41  1  0
 11 42  1  0
 11 43  1  0
 12 13  1  0
 12 25  1  0
 12 44  1  1
 13 14  1  0
 13 45  1  0
 13 46  1  0
 14 15  2  0
 14 47  1  0
 15 23  1  0
 15 16  1  0
 16 17  1  0
 16 18  1  0
 16 19  1  0
 17 48  1  0
 17 49  1  0
 17 50  1  0
 18 51  1  0
 18 52  1  0
 18 53  1  0
 19 20  2  0
 19 21  1  0
 21 22  2  0
 21 54  1  0
 22 23  1  0
 22 55  1  0
 23 24  1  1
 24 56  1  0
 24 57  1  0
 24 58  1  0
 25 26  1  6
 26 59  1  0
 26 60  1  0
M  END
>  <i_m_ct_stereo_status>  (177) 
1

>  <s_m_source_file>  (177) 
/var/tmp/pbs.5076255.sched01/tmpuxvxg9lz/41q4u19exn.sdf

>  <i_m_source_file_index>  (177) 
29

>  <i_lp_mmshare_version>  (177) 
48012

>  <i_f3d_flags>  (177) 
0

>  <s_epik_input>  (177) 
W0NIM11DKFtDSDNdKShbQ0gyXTEpW0NIMl1bQ0BIXShbQ0BdMTIzKU9bQ0BASF0yW0NIMl1bQ0gyXVtDQEBdNChbQ0gzXSlbQ0BIXTNbQ0gyXVtDSF09QzVbQ0BdNChbQ0gzXSlbQ0hdPVtDSF1DKD1PKUM1KFtDSDNdKVtDSDNd

>  <s_epik_cmdline>  (177) 
J2VwaWtfcHl0aG9uJywgJy1waHQnLCAnMi4wJywgJy1waCcsICc3LjAnLCAnLXRuJywgJzgnLCAnLW1hJywgJzIwMCcsICctaW1hZScsICc8aW5maWxlLm1hZT4nLCAnLW9tYWUnLCAnPG91dGZpbGUubWFlPic=

>  <r_lp_tautomer_probability>  (177) 
1

>  <r_epik_Ionization_Penalty>  (177) 
7.27317e-11

>  <r_epik_Ionization_Penalty_Charging>  (177) 
0

>  <r_epik_Ionization_Penalty_Neutral>  (177) 
7.27317e-11

>  <r_epik_State_Penalty>  (177) 
-0

>  <r_epik_Charging_Adjusted_Penalty>  (177) 
0

>  <i_epik_Tot_Q>  (177) 
0

>  <i_epik_Tot_abs_Q>  (177) 
0

>  <s_lp_Force_Field>  (177) 
OPLS3e

>  <r_lp_Energy>  (177) 
64.0036

>  <b_lp_Chiralities_Consistent>  (177) 
1

>  <s_lp_Variant>  (177) 
42:0-1

>  <s_i_glide_gridfile>  (177) 
pfpi4k_grid

>  <i_i_glide_lignum>  (177) 
29

>  <i_i_glide_rotatable_bonds>  (177) 
0

>  <r_i_docking_score>  (177) 
-3.23293

>  <r_i_glide_ligand_efficiency>  (177) 
-0.124343

>  <r_i_glide_ligand_efficiency_sa>  (177) 
-0.368367

>  <r_i_glide_ligand_efficiency_ln>  (177) 
-0.759243

>  <r_i_glide_gscore>  (177) 
-3.23293

>  <r_i_glide_lipo>  (177) 
-0.438865

>  <r_i_glide_hbond>  (177) 
-0.15195

>  <r_i_glide_metal>  (177) 
-0

>  <r_i_glide_rewards>  (177) 
-0.998282

>  <r_i_glide_evdw>  (177) 
-25.5106

>  <r_i_glide_ecoul>  (177) 
-2.45536

>  <r_i_glide_erotb>  (177) 
0

>  <r_i_glide_esite>  (177) 
0

>  <r_i_glide_emodel>  (177) 
-33.9996

>  <r_i_glide_energy>  (177) 
-27.9659

>  <r_i_glide_einternal>  (177) 
0

>  <r_i_glide_intrahb_reward>  (177) 
-0

>  <i_i_glide_confnum>  (177) 
1

>  <i_i_glide_posenum>  (177) 
20

>  <r_i_glide_eff_state_penalty>  (177) 
0

>  <ligand_id>  (177) 
42

>  <original_smiles>  (177) 
CC1(C)CC2OC3CCC4(C)C(CC=C5C(C)(C)C(=O)C=CC54C)C32C1

>  <smiles>  (177) 
[H]C1=C([H])C2(C([H])([H])[H])C(=C([H])C([H])([H])C3([H])C45C([H])([H])C(C([H])([H])[H])(C([H])([H])[H])C([H])([H])C4([H])OC5([H])C([H])([H])C([H])([H])C23C([H])([H])[H])C(C([H])([H])[H])(C([H])([H])[H])C1=O

$$$$
42:0:2
     RDKit          3D

 60 64  0  0  1  0  0  0  0  0999 V2000
    3.9034   -0.8833   -3.1457 C   0  0  0  0  0  0  0  0  0  0  0  0
    4.3058   -2.0595   -2.2329 C   0  0  0  0  0  0  0  0  0  0  0  0
    3.9456   -3.3672   -2.9552 C   0  0  0  0  0  0  0  0  0  0  0  0
    5.8175   -2.0352   -1.8863 C   0  0  0  0  0  0  0  0  0  0  0  0
    5.9512   -2.6432   -0.5004 C   0  0  1  0  0  0  0  0  0  0  0  0
    6.5893   -1.8574    0.5025 O   0  0  0  0  0  0  0  0  0  0  0  0
    5.3195   -1.4482    0.9920 C   0  0  2  0  0  0  0  0  0  0  0  0
    5.1441   -1.3871    2.5088 C   0  0  0  0  0  0  0  0  0  0  0  0
    4.8424   -2.7550    3.1532 C   0  0  0  0  0  0  0  0  0  0  0  0
    3.7158   -3.5887    2.4582 C   0  0  1  0  0  0  0  0  0  0  0  0
    2.4034   -2.7605    2.4232 C   0  0  0  0  0  0  0  0  0  0  0  0
    4.1936   -3.8370    0.9938 C   0  0  1  0  0  0  0  0  0  0  0  0
    3.3646   -4.8728    0.2069 C   0  0  0  0  0  0  0  0  0  0  0  0
    2.5785   -5.8490    1.0574 C   0  0  0  0  0  0  0  0  0  0  0  0
    2.5869   -5.9192    2.4038 C   0  0  0  0  0  0  0  0  0  0  0  0
    1.6775   -6.9732    3.1046 C   0  0  0  0  0  0  0  0  0  0  0  0
    0.2380   -6.9090    2.5429 C   0  0  0  0  0  0  0  0  0  0  0  0
    2.2655   -8.3783    2.8484 C   0  0  0  0  0  0  0  0  0  0  0  0
    1.5464   -6.7509    4.6250 C   0  0  0  0  0  0  0  0  0  0  0  0
    1.0277   -7.6389    5.3147 O   0  0  0  0  0  0  0  0  0  0  0  0
    1.9622   -5.4880    5.2266 C   0  0  0  0  0  0  0  0  0  0  0  0
    2.8300   -4.6888    4.5943 C   0  0  0  0  0  0  0  0  0  0  0  0
    3.4598   -4.9608    3.2304 C   0  0  2  0  0  0  0  0  0  0  0  0
    4.7740   -5.7327    3.5284 C   0  0  0  0  0  0  0  0  0  0  0  0
    4.6013   -2.5590    0.1984 C   0  0  2  0  0  0  0  0  0  0  0  0
    3.6102   -2.0076   -0.8437 C   0  0  0  0  0  0  0  0  0  0  0  0
    4.4139   -0.9412   -4.1097 H   0  0  0  0  0  0  0  0  0  0  0  0
    4.1527    0.0834   -2.7057 H   0  0  0  0  0  0  0  0  0  0  0  0
    2.8282   -0.8874   -3.3441 H   0  0  0  0  0  0  0  0  0  0  0  0
    4.3032   -4.2418   -2.4073 H   0  0  0  0  0  0  0  0  0  0  0  0
    4.3769   -3.4166   -3.9574 H   0  0  0  0  0  0  0  0  0  0  0  0
    2.8614   -3.4691   -3.0617 H   0  0  0  0  0  0  0  0  0  0  0  0
    6.4108   -2.5718   -2.6266 H   0  0  0  0  0  0  0  0  0  0  0  0
    6.1581   -1.0033   -1.8792 H   0  0  0  0  0  0  0  0  0  0  0  0
    6.3374   -3.6762   -0.5345 H   0  0  0  0  0  0  0  0  0  0  0  0
    5.1024   -0.4528    0.5774 H   0  0  0  0  0  0  0  0  0  0  0  0
    5.9988   -0.9205    2.9974 H   0  0  0  0  0  0  0  0  0  0  0  0
    4.2858   -0.7470    2.7318 H   0  0  0  0  0  0  0  0  0  0  0  0
    5.7859   -3.3189    3.1053 H   0  0  0  0  0  0  0  0  0  0  0  0
    4.6371   -2.6102    4.2093 H   0  0  0  0  0  0  0  0  0  0  0  0
    1.5684   -3.3590    2.0641 H   0  0  0  0  0  0  0  0  0  0  0  0
    2.4799   -1.8954    1.7633 H   0  0  0  0  0  0  0  0  0  0  0  0
    2.1303   -2.3850    3.4086 H   0  0  0  0  0  0  0  0  0  0  0  0
    5.1294   -4.3833    1.1503 H   0  0  0  0  0  0  0  0  0  0  0  0
    2.6166   -4.4349   -0.4481 H   0  0  0  0  0  0  0  0  0  0  0  0
    4.0303   -5.4582   -0.4319 H   0  0  0  0  0  0  0  0  0  0  0  0
    1.9875   -6.5427    0.4832 H   0  0  0  0  0  0  0  0  0  0  0  0
   -0.1538   -5.8999    2.6611 H   0  0  0  0  0  0  0  0  0  0  0  0
   -0.4377   -7.5737    3.0833 H   0  0  0  0  0  0  0  0  0  0  0  0
    0.1623   -7.1823    1.4916 H   0  0  0  0  0  0  0  0  0  0  0  0
    3.2666   -8.4618    3.2818 H   0  0  0  0  0  0  0  0  0  0  0  0
    2.3575   -8.5979    1.7845 H   0  0  0  0  0  0  0  0  0  0  0  0
    1.6592   -9.1703    3.2888 H   0  0  0  0  0  0  0  0  0  0  0  0
    1.5743   -5.2484    6.2001 H   0  0  0  0  0  0  0  0  0  0  0  0
    3.1192   -3.7783    5.0992 H   0  0  0  0  0  0  0  0  0  0  0  0
    4.5618   -6.6719    4.0430 H   0  0  0  0  0  0  0  0  0  0  0  0
    5.4490   -5.1872    4.1853 H   0  0  0  0  0  0  0  0  0  0  0  0
    5.3165   -6.0005    2.6223 H   0  0  0  0  0  0  0  0  0  0  0  0
    3.4060   -0.9563   -0.6301 H   0  0  0  0  0  0  0  0  0  0  0  0
    2.6191   -2.4412   -0.8319 H   0  0  0  0  0  0  0  0  0  0  0  0
  1  2  1  0
  1 27  1  0
  1 28  1  0
  1 29  1  0
  2 26  1  0
  2  3  1  0
  2  4  1  0
  3 30  1  0
  3 31  1  0
  3 32  1  0
  4  5  1  0
  4 33  1  0
  4 34  1  0
  5 25  1  0
  5  6  1  0
  5 35  1  6
  6  7  1  0
  7 25  1  0
  7  8  1  0
  7 36  1  6
  8  9  1  0
  8 37  1  0
  8 38  1  0
  9 10  1  0
  9 39  1  0
  9 40  1  0
 10 23  1  0
 10 11  1  6
 10 12  1  0
 11 41  1  0
 11 42  1  0
 11 43  1  0
 12 13  1  0
 12 25  1  0
 12 44  1  1
 13 14  1  0
 13 45  1  0
 13 46  1  0
 14 15  2  0
 14 47  1  0
 15 23  1  0
 15 16  1  0
 16 17  1  0
 16 18  1  0
 16 19  1  0
 17 48  1  0
 17 49  1  0
 17 50  1  0
 18 51  1  0
 18 52  1  0
 18 53  1  0
 19 20  2  0
 19 21  1  0
 21 22  2  0
 21 54  1  0
 22 23  1  0
 22 55  1  0
 23 24  1  1
 24 56  1  0
 24 57  1  0
 24 58  1  0
 25 26  1  6
 26 59  1  0
 26 60  1  0
M  END
>  <i_m_ct_stereo_status>  (178) 
1

>  <s_m_source_file>  (178) 
/var/tmp/pbs.5076255.sched01/tmpuxvxg9lz/41q4u19exn.sdf

>  <i_m_source_file_index>  (178) 
29

>  <i_lp_mmshare_version>  (178) 
48012

>  <i_f3d_flags>  (178) 
0

>  <s_epik_input>  (178) 
W0NIM11DKFtDSDNdKShbQ0gyXTEpW0NIMl1bQ0BIXShbQ0BdMTIzKU9bQ0BASF0yW0NIMl1bQ0gyXVtDQEBdNChbQ0gzXSlbQ0BIXTNbQ0gyXVtDSF09QzVbQ0BdNChbQ0gzXSlbQ0hdPVtDSF1DKD1PKUM1KFtDSDNdKVtDSDNd

>  <s_epik_cmdline>  (178) 
J2VwaWtfcHl0aG9uJywgJy1waHQnLCAnMi4wJywgJy1waCcsICc3LjAnLCAnLXRuJywgJzgnLCAnLW1hJywgJzIwMCcsICctaW1hZScsICc8aW5maWxlLm1hZT4nLCAnLW9tYWUnLCAnPG91dGZpbGUubWFlPic=

>  <r_lp_tautomer_probability>  (178) 
1

>  <r_epik_Ionization_Penalty>  (178) 
7.27317e-11

>  <r_epik_Ionization_Penalty_Charging>  (178) 
0

>  <r_epik_Ionization_Penalty_Neutral>  (178) 
7.27317e-11

>  <r_epik_State_Penalty>  (178) 
-0

>  <r_epik_Charging_Adjusted_Penalty>  (178) 
0

>  <i_epik_Tot_Q>  (178) 
0

>  <i_epik_Tot_abs_Q>  (178) 
0

>  <s_lp_Force_Field>  (178) 
OPLS3e

>  <r_lp_Energy>  (178) 
64.0036

>  <b_lp_Chiralities_Consistent>  (178) 
1

>  <s_lp_Variant>  (178) 
42:0-1

>  <s_i_glide_gridfile>  (178) 
pfpi4k_grid

>  <i_i_glide_lignum>  (178) 
29

>  <i_i_glide_rotatable_bonds>  (178) 
0

>  <r_i_docking_score>  (178) 
-2.84414

>  <r_i_glide_ligand_efficiency>  (178) 
-0.10939

>  <r_i_glide_ligand_efficiency_sa>  (178) 
-0.324068

>  <r_i_glide_ligand_efficiency_ln>  (178) 
-0.667937

>  <r_i_glide_gscore>  (178) 
-2.84414

>  <r_i_glide_lipo>  (178) 
-0.379623

>  <r_i_glide_hbond>  (178) 
0

>  <r_i_glide_metal>  (178) 
-0

>  <r_i_glide_rewards>  (178) 
-0.991871

>  <r_i_glide_evdw>  (178) 
-28.6677

>  <r_i_glide_ecoul>  (178) 
-0.235339

>  <r_i_glide_erotb>  (178) 
0

>  <r_i_glide_esite>  (178) 
-0.00395817

>  <r_i_glide_emodel>  (178) 
-34.2319

>  <r_i_glide_energy>  (178) 
-28.9031

>  <r_i_glide_einternal>  (178) 
0

>  <r_i_glide_intrahb_reward>  (178) 
-0

>  <i_i_glide_confnum>  (178) 
1

>  <i_i_glide_posenum>  (178) 
8

>  <r_i_glide_eff_state_penalty>  (178) 
0

>  <ligand_id>  (178) 
42

>  <original_smiles>  (178) 
CC1(C)CC2OC3CCC4(C)C(CC=C5C(C)(C)C(=O)C=CC54C)C32C1

>  <smiles>  (178) 
[H]C1=C([H])C2(C([H])([H])[H])C(=C([H])C([H])([H])C3([H])C45C([H])([H])C(C([H])([H])[H])(C([H])([H])[H])C([H])([H])C4([H])OC5([H])C([H])([H])C([H])([H])C23C([H])([H])[H])C(C([H])([H])[H])(C([H])([H])[H])C1=O

$$$$
43:0:0
     RDKit          3D

 79 84  0  0  1  0  0  0  0  0999 V2000
    2.5117   -3.1268    9.9236 C   0  0  0  0  0  0  0  0  0  0  0  0
    2.1166   -3.5301    8.4890 C   0  0  2  0  0  0  0  0  0  0  0  0
    0.5782   -3.6546    8.3816 C   0  0  0  0  0  0  0  0  0  0  0  0
    0.1602   -3.8430    7.0364 O   0  0  0  0  0  0  0  0  0  0  0  0
   -0.0042   -2.7490    6.1350 C   0  0  2  0  0  0  0  0  0  0  0  0
    0.4636   -1.3891    6.6809 C   0  0  0  0  0  0  0  0  0  0  0  0
   -0.8096   -0.8153    6.0786 C   0  0  1  0  0  0  0  0  0  0  0  0
   -0.7123   -0.0977    4.7906 C   0  0  0  0  0  0  0  0  0  0  0  0
   -1.3705   -2.1812    6.0701 O   0  0  0  0  0  0  0  0  0  0  0  0
    0.3815   -3.3109    4.7278 C   0  0  1  0  0  0  0  0  0  0  0  0
    1.1068   -2.3591    3.7771 C   0  0  0  0  0  0  0  0  0  0  0  0
    1.0818   -4.7311    4.6295 C   0  0  2  0  0  0  0  0  0  0  0  0
    0.0030   -5.8846    4.7566 C   0  0  0  0  0  0  0  0  0  0  0  0
    0.0775   -7.0932    3.7697 C   0  0  0  0  0  0  0  0  0  0  0  0
    0.1618   -8.5234    4.3854 C   0  0  1  0  0  0  0  0  0  0  0  0
    0.0126   -9.5985    3.2657 C   0  0  0  0  0  0  0  0  0  0  0  0
    0.9928  -10.7633    3.2845 C   0  0  0  0  0  0  0  0  0  0  0  0
    0.6250  -11.8994    3.5695 O   0  0  0  0  0  0  0  0  0  0  0  0
    2.4409  -10.4637    2.9104 C   0  0  0  0  0  0  0  0  0  0  0  0
    3.0050   -9.1804    3.5650 C   0  0  0  0  0  0  0  0  0  0  0  0
    2.7602   -8.9790    5.1060 C   0  0  2  0  0  0  0  0  0  0  0  0
    3.1366  -10.3345    5.8099 C   0  0  0  0  0  0  0  0  0  0  0  0
    1.2809   -8.6686    5.4511 C   0  0  0  0  0  0  0  0  0  0  0  0
    0.9769   -8.3733    6.7322 C   0  0  0  0  0  0  0  0  0  0  0  0
    2.0407   -8.0021    7.7472 C   0  0  0  0  0  0  0  0  0  0  0  0
    3.0796   -7.1140    7.0081 C   0  0  1  0  0  0  0  0  0  0  0  0
    3.6861   -7.8512    5.7656 C   0  0  2  0  0  0  0  0  0  0  0  0
    4.3694   -6.8025    4.8690 C   0  0  0  0  0  0  0  0  0  0  0  0
    3.3593   -5.8235    4.2909 C   0  0  0  0  0  0  0  0  0  0  0  0
    2.5408   -4.9711    5.3154 C   0  0  1  0  0  0  0  0  0  0  0  0
    3.3760   -3.6611    5.3721 C   0  0  0  0  0  0  0  0  0  0  0  0
    2.4833   -5.6479    6.7855 C   0  0  2  0  0  0  0  0  0  0  0  0
    2.9146   -4.7918    8.0384 C   0  0  0  0  0  0  0  0  0  0  0  0
    2.2060   -3.8784   10.6526 H   0  0  0  0  0  0  0  0  0  0  0  0
    2.0484   -2.1818   10.2125 H   0  0  0  0  0  0  0  0  0  0  0  0
    3.5909   -2.9966   10.0162 H   0  0  0  0  0  0  0  0  0  0  0  0
    2.4454   -2.6927    7.8869 H   0  0  0  0  0  0  0  0  0  0  0  0
    0.2386   -4.5155    8.9475 H   0  0  0  0  0  0  0  0  0  0  0  0
    0.0531   -2.8169    8.8377 H   0  0  0  0  0  0  0  0  0  0  0  0
    0.4545   -1.3146    7.7582 H   0  0  0  0  0  0  0  0  0  0  0  0
    1.3974   -1.0225    6.2772 H   0  0  0  0  0  0  0  0  0  0  0  0
   -1.3213   -0.0836    6.6932 H   0  0  0  0  0  0  0  0  0  0  0  0
    0.0072    0.6836    4.6776 H   0  0  0  0  0  0  0  0  0  0  0  0
   -1.5429   -0.0521    4.1403 H   0  0  0  0  0  0  0  0  0  0  0  0
   -0.2436   -0.6961    4.2961 H   0  0  0  0  0  0  0  0  0  0  0  0
   -0.5797   -3.4327    4.2378 H   0  0  0  0  0  0  0  0  0  0  0  0
    1.9398   -1.7973    4.1398 H   0  0  0  0  0  0  0  0  0  0  0  0
    0.5341   -1.7165    3.2096 H   0  0  0  0  0  0  0  0  0  0  0  0
    1.2047   -2.6687    2.7736 H   0  0  0  0  0  0  0  0  0  0  0  0
    1.2868   -4.7532    3.5575 H   0  0  0  0  0  0  0  0  0  0  0  0
   -0.1409   -6.2139    5.7772 H   0  0  0  0  0  0  0  0  0  0  0  0
   -0.9800   -5.4583    4.5682 H   0  0  0  0  0  0  0  0  0  0  0  0
   -0.8369   -7.0705    3.1724 H   0  0  0  0  0  0  0  0  0  0  0  0
    0.8431   -6.9509    3.0146 H   0  0  0  0  0  0  0  0  0  0  0  0
   -0.7679   -8.6256    4.9498 H   0  0  0  0  0  0  0  0  0  0  0  0
   -1.0009  -10.0036    3.2881 H   0  0  0  0  0  0  0  0  0  0  0  0
    0.1064   -9.1293    2.2851 H   0  0  0  0  0  0  0  0  0  0  0  0
    3.0490  -11.3210    3.1998 H   0  0  0  0  0  0  0  0  0  0  0  0
    2.5130  -10.3880    1.8231 H   0  0  0  0  0  0  0  0  0  0  0  0
    4.0783   -9.2049    3.3805 H   0  0  0  0  0  0  0  0  0  0  0  0
    2.6427   -8.3396    2.9788 H   0  0  0  0  0  0  0  0  0  0  0  0
    4.0679  -10.7431    5.4218 H   0  0  0  0  0  0  0  0  0  0  0  0
    2.3730  -11.1060    5.6839 H   0  0  0  0  0  0  0  0  0  0  0  0
    3.2949  -10.2517    6.8852 H   0  0  0  0  0  0  0  0  0  0  0  0
   -0.0453   -8.1498    6.9981 H   0  0  0  0  0  0  0  0  0  0  0  0
    1.5838   -7.4465    8.5683 H   0  0  0  0  0  0  0  0  0  0  0  0
    2.4776   -8.8789    8.2280 H   0  0  0  0  0  0  0  0  0  0  0  0
    3.9202   -7.0211    7.7031 H   0  0  0  0  0  0  0  0  0  0  0  0
    4.5604   -8.3779    6.1491 H   0  0  0  0  0  0  0  0  0  0  0  0
    5.1107   -6.2556    5.4504 H   0  0  0  0  0  0  0  0  0  0  0  0
    4.9326   -7.2812    4.0694 H   0  0  0  0  0  0  0  0  0  0  0  0
    3.7735   -5.2426    3.4530 H   0  0  0  0  0  0  0  0  0  0  0  0
    2.6774   -6.4671    3.7916 H   0  0  0  0  0  0  0  0  0  0  0  0
    4.3426   -3.8116    5.8546 H   0  0  0  0  0  0  0  0  0  0  0  0
    2.8689   -2.8584    5.8917 H   0  0  0  0  0  0  0  0  0  0  0  0
    3.6001   -3.2640    4.3825 H   0  0  0  0  0  0  0  0  0  0  0  0
    1.4340   -5.7728    6.9922 H   0  0  0  0  0  0  0  0  0  0  0  0
    3.9699   -4.5320    7.9543 H   0  0  0  0  0  0  0  0  0  0  0  0
    2.8788   -5.4560    8.9033 H   0  0  0  0  0  0  0  0  0  0  0  0
  1  2  1  0
  1 34  1  0
  1 35  1  0
  1 36  1  0
  2 33  1  0
  2  3  1  0
  2 37  1  6
  3  4  1  0
  3 38  1  0
  3 39  1  0
  5  4  1  1
  5  9  1  0
  5  6  1  0
  5 10  1  0
  6  7  1  0
  6 40  1  0
  6 41  1  0
  7  8  1  0
  7  9  1  0
  7 42  1  1
  8 43  1  0
  8 44  1  0
  8 45  1  0
 10 11  1  0
 10 12  1  0
 10 46  1  6
 11 47  1  0
 11 48  1  0
 11 49  1  0
 12 30  1  0
 12 13  1  0
 12 50  1  6
 13 14  1  0
 13 51  1  0
 13 52  1  0
 14 15  1  0
 14 53  1  0
 14 54  1  0
 15 23  1  0
 15 16  1  0
 15 55  1  1
 16 17  1  0
 16 56  1  0
 16 57  1  0
 17 18  2  0
 17 19  1  0
 19 20  1  0
 19 58  1  0
 19 59  1  0
 20 21  1  0
 20 60  1  0
 20 61  1  0
 21 27  1  0
 21 22  1  1
 21 23  1  0
 22 62  1  0
 22 63  1  0
 22 64  1  0
 23 24  2  0
 24 25  1  0
 24 65  1  0
 25 26  1  0
 25 66  1  0
 25 67  1  0
 26 32  1  0
 26 27  1  0
 26 68  1  1
 27 28  1  0
 27 69  1  1
 28 29  1  0
 28 70  1  0
 28 71  1  0
 29 30  1  0
 29 72  1  0
 29 73  1  0
 30 31  1  1
 30 32  1  0
 31 74  1  0
 31 75  1  0
 31 76  1  0
 32 33  1  0
 32 77  1  1
 33 78  1  0
 33 79  1  0
M  END
>  <i_m_ct_stereo_status>  (179) 
1

>  <s_m_source_file>  (179) 
/var/tmp/pbs.5076255.sched01/tmpuxvxg9lz/41q4u19exn.sdf

>  <i_m_source_file_index>  (179) 
30

>  <i_lp_mmshare_version>  (179) 
48012

>  <i_f3d_flags>  (179) 
0

>  <s_epik_input>  (179) 
W0NIM11bQ0BASF0oTzEpW0NIMl1bQ0BAXTEyT1tDSDJdW0NAQEhdKFtDSDNdKVtDSDJdW0NAQEhdM1tDQEBIXTRbQ0BIXTVbQ0BAXTYoW0NIM10pQyg9W0NIXVtDSDJdNClbQ0BIXShbQ0gyXUMoPU8pW0NIMl1bQ0gyXTYpW0NIMl1bQ0gyXVtDQEBIXShbQ0BASF0yW0NIM10pW0NAXTMoW0NIM10pW0NIMl1bQ0gyXTU=

>  <s_epik_cmdline>  (179) 
J2VwaWtfcHl0aG9uJywgJy1waHQnLCAnMi4wJywgJy1waCcsICc3LjAnLCAnLXRuJywgJzgnLCAnLW1hJywgJzIwMCcsICctaW1hZScsICc8aW5maWxlLm1hZT4nLCAnLW9tYWUnLCAnPG91dGZpbGUubWFlPic=

>  <r_lp_tautomer_probability>  (179) 
1

>  <r_epik_Ionization_Penalty>  (179) 
5.08999e-12

>  <r_epik_Ionization_Penalty_Charging>  (179) 
0

>  <r_epik_Ionization_Penalty_Neutral>  (179) 
5.08999e-12

>  <r_epik_State_Penalty>  (179) 
-0

>  <r_epik_Charging_Adjusted_Penalty>  (179) 
0

>  <i_epik_Tot_Q>  (179) 
0

>  <i_epik_Tot_abs_Q>  (179) 
0

>  <s_lp_Force_Field>  (179) 
OPLS3e

>  <r_lp_Energy>  (179) 
114.096

>  <b_lp_Chiralities_Consistent>  (179) 
1

>  <s_lp_Variant>  (179) 
43:0-1

>  <s_i_glide_gridfile>  (179) 
pfpi4k_grid

>  <i_i_glide_lignum>  (179) 
30

>  <i_i_glide_rotatable_bonds>  (179) 
0

>  <r_i_docking_score>  (179) 
2.15588

>  <r_i_glide_ligand_efficiency>  (179) 
0.0653297

>  <r_i_glide_ligand_efficiency_sa>  (179) 
0.209547

>  <r_i_glide_ligand_efficiency_ln>  (179) 
0.479457

>  <r_i_glide_gscore>  (179) 
2.15588

>  <r_i_glide_lipo>  (179) 
-0.0546374

>  <r_i_glide_hbond>  (179) 
0

>  <r_i_glide_metal>  (179) 
-0

>  <r_i_glide_rewards>  (179) 
-0.525225

>  <r_i_glide_evdw>  (179) 
-19.3406

>  <r_i_glide_ecoul>  (179) 
-2.06437

>  <r_i_glide_erotb>  (179) 
0

>  <r_i_glide_esite>  (179) 
-0.0185668

>  <r_i_glide_emodel>  (179) 
-3.84484

>  <r_i_glide_energy>  (179) 
-21.405

>  <r_i_glide_einternal>  (179) 
0

>  <r_i_glide_intrahb_reward>  (179) 
-0

>  <i_i_glide_confnum>  (179) 
1

>  <i_i_glide_posenum>  (179) 
10

>  <r_i_glide_eff_state_penalty>  (179) 
0

>  <ligand_id>  (179) 
43

>  <original_smiles>  (179) 
CC1COC2(CC(C)O2)C(C)C2CCC3CC(=O)CCC4(C)C3=CCC3C4CCC2(C)C3C1

>  <smiles>  (179) 
[H]C1=C2C3([H])C([H])([H])C(=O)C([H])([H])C([H])([H])C2(C([H])([H])[H])C2([H])C([H])([H])C([H])([H])C4(C([H])([H])[H])C([H])(C([H])([H])C3([H])[H])C([H])(C([H])([H])[H])C3(OC([H])([H])C([H])(C([H])([H])[H])C([H])([H])C4([H])C2([H])C1([H])[H])OC([H])(C([H])([H])[H])C3([H])[H]

$$$$
43:0:1
     RDKit          3D

 79 84  0  0  1  0  0  0  0  0999 V2000
    7.2870   -7.9692    2.3406 C   0  0  0  0  0  0  0  0  0  0  0  0
    6.0884   -7.0007    2.2986 C   0  0  2  0  0  0  0  0  0  0  0  0
    6.5678   -5.5533    2.5683 C   0  0  0  0  0  0  0  0  0  0  0  0
    5.5129   -4.6264    2.3580 O   0  0  0  0  0  0  0  0  0  0  0  0
    5.2094   -4.1172    1.0726 C   0  0  2  0  0  0  0  0  0  0  0  0
    5.9719   -4.7897   -0.0783 C   0  0  0  0  0  0  0  0  0  0  0  0
    6.1500   -3.3933   -0.6764 C   0  0  1  0  0  0  0  0  0  0  0  0
    5.1111   -3.0120   -1.6987 C   0  0  0  0  0  0  0  0  0  0  0  0
    5.9129   -2.8262    0.7062 O   0  0  0  0  0  0  0  0  0  0  0  0
    3.6681   -3.8575    1.0692 C   0  0  1  0  0  0  0  0  0  0  0  0
    2.9712   -4.0702   -0.2856 C   0  0  0  0  0  0  0  0  0  0  0  0
    2.8067   -4.4185    2.2894 C   0  0  2  0  0  0  0  0  0  0  0  0
    2.9413   -3.4644    3.5483 C   0  0  0  0  0  0  0  0  0  0  0  0
    1.6512   -3.0927    4.3473 C   0  0  0  0  0  0  0  0  0  0  0  0
    1.6373   -3.3961    5.8772 C   0  0  1  0  0  0  0  0  0  0  0  0
    0.3695   -2.7654    6.5338 C   0  0  0  0  0  0  0  0  0  0  0  0
   -0.4188   -3.6348    7.5071 C   0  0  0  0  0  0  0  0  0  0  0  0
   -0.4282   -3.3991    8.7151 O   0  0  0  0  0  0  0  0  0  0  0  0
   -1.2059   -4.8037    6.9161 C   0  0  0  0  0  0  0  0  0  0  0  0
   -0.4241   -5.6178    5.8554 C   0  0  0  0  0  0  0  0  0  0  0  0
    1.0439   -6.0495    6.2156 C   0  0  2  0  0  0  0  0  0  0  0  0
    1.0249   -6.6522    7.6644 C   0  0  0  0  0  0  0  0  0  0  0  0
    2.0417   -4.8558    6.2141 C   0  0  0  0  0  0  0  0  0  0  0  0
    3.3537   -5.1224    6.4016 C   0  0  0  0  0  0  0  0  0  0  0  0
    3.9202   -6.5217    6.2548 C   0  0  0  0  0  0  0  0  0  0  0  0
    3.1888   -7.1778    5.0452 C   0  0  1  0  0  0  0  0  0  0  0  0
    1.6334   -7.1844    5.2515 C   0  0  2  0  0  0  0  0  0  0  0  0
    0.9729   -7.4567    3.8904 C   0  0  0  0  0  0  0  0  0  0  0  0
    1.2249   -6.3308    2.8991 C   0  0  0  0  0  0  0  0  0  0  0  0
    2.7198   -6.0223    2.5494 C   0  0  1  0  0  0  0  0  0  0  0  0
    2.8991   -6.8386    1.2373 C   0  0  0  0  0  0  0  0  0  0  0  0
    3.7534   -6.5721    3.6749 C   0  0  2  0  0  0  0  0  0  0  0  0
    4.9444   -7.5082    3.2291 C   0  0  0  0  0  0  0  0  0  0  0  0
    7.7618   -7.9789    3.3227 H   0  0  0  0  0  0  0  0  0  0  0  0
    8.0478   -7.6904    1.6101 H   0  0  0  0  0  0  0  0  0  0  0  0
    6.9799   -8.9905    2.1116 H   0  0  0  0  0  0  0  0  0  0  0  0
    5.7390   -7.0678    1.2762 H   0  0  0  0  0  0  0  0  0  0  0  0
    6.8789   -5.4631    3.6079 H   0  0  0  0  0  0  0  0  0  0  0  0
    7.4474   -5.2873    1.9813 H   0  0  0  0  0  0  0  0  0  0  0  0
    6.9107   -5.2366    0.2343 H   0  0  0  0  0  0  0  0  0  0  0  0
    5.3818   -5.4784   -0.6801 H   0  0  0  0  0  0  0  0  0  0  0  0
    7.1442   -3.2013   -1.0967 H   0  0  0  0  0  0  0  0  0  0  0  0
    5.1663   -3.5798   -2.6076 H   0  0  0  0  0  0  0  0  0  0  0  0
    5.0744   -1.9647   -1.9091 H   0  0  0  0  0  0  0  0  0  0  0  0
    4.4817   -3.1701   -1.4277 H   0  0  0  0  0  0  0  0  0  0  0  0
    3.5971   -2.7738    1.1587 H   0  0  0  0  0  0  0  0  0  0  0  0
    3.0804   -5.0457   -0.7207 H   0  0  0  0  0  0  0  0  0  0  0  0
    3.0102   -3.4414   -0.9148 H   0  0  0  0  0  0  0  0  0  0  0  0
    1.9425   -3.7821   -0.2935 H   0  0  0  0  0  0  0  0  0  0  0  0
    1.8122   -4.1553    1.9309 H   0  0  0  0  0  0  0  0  0  0  0  0
    3.7477   -3.7552    4.2087 H   0  0  0  0  0  0  0  0  0  0  0  0
    3.3256   -2.5020    3.2103 H   0  0  0  0  0  0  0  0  0  0  0  0
    1.5171   -2.0135    4.2445 H   0  0  0  0  0  0  0  0  0  0  0  0
    0.7564   -3.4763    3.8671 H   0  0  0  0  0  0  0  0  0  0  0  0
    2.4502   -2.7841    6.2744 H   0  0  0  0  0  0  0  0  0  0  0  0
    0.6518   -1.8462    7.0494 H   0  0  0  0  0  0  0  0  0  0  0  0
   -0.3333   -2.4525    5.7606 H   0  0  0  0  0  0  0  0  0  0  0  0
   -1.5016   -5.4583    7.7368 H   0  0  0  0  0  0  0  0  0  0  0  0
   -2.1269   -4.4153    6.4799 H   0  0  0  0  0  0  0  0  0  0  0  0
   -1.0161   -6.5158    5.6831 H   0  0  0  0  0  0  0  0  0  0  0  0
   -0.4796   -5.0637    4.9233 H   0  0  0  0  0  0  0  0  0  0  0  0
    0.1784   -7.3254    7.7953 H   0  0  0  0  0  0  0  0  0  0  0  0
    0.9481   -5.8878    8.4379 H   0  0  0  0  0  0  0  0  0  0  0  0
    1.8989   -7.2491    7.9139 H   0  0  0  0  0  0  0  0  0  0  0  0
    4.0615   -4.3057    6.4087 H   0  0  0  0  0  0  0  0  0  0  0  0
    4.9919   -6.4626    6.0581 H   0  0  0  0  0  0  0  0  0  0  0  0
    3.8451   -7.0992    7.1748 H   0  0  0  0  0  0  0  0  0  0  0  0
    3.4771   -8.2322    5.0806 H   0  0  0  0  0  0  0  0  0  0  0  0
    1.4271   -8.1327    5.7518 H   0  0  0  0  0  0  0  0  0  0  0  0
    1.3608   -8.3860    3.4711 H   0  0  0  0  0  0  0  0  0  0  0  0
   -0.0975   -7.6241    4.0004 H   0  0  0  0  0  0  0  0  0  0  0  0
    0.5527   -6.3542    2.0353 H   0  0  0  0  0  0  0  0  0  0  0  0
    0.8536   -5.4847    3.4364 H   0  0  0  0  0  0  0  0  0  0  0  0
    2.8687   -7.9150    1.4132 H   0  0  0  0  0  0  0  0  0  0  0  0
    3.8230   -6.6121    0.7207 H   0  0  0  0  0  0  0  0  0  0  0  0
    2.1109   -6.6365    0.5119 H   0  0  0  0  0  0  0  0  0  0  0  0
    4.3060   -5.7038    3.9917 H   0  0  0  0  0  0  0  0  0  0  0  0
    4.5421   -8.4372    2.8239 H   0  0  0  0  0  0  0  0  0  0  0  0
    5.4576   -7.8228    4.1397 H   0  0  0  0  0  0  0  0  0  0  0  0
  1  2  1  0
  1 34  1  0
  1 35  1  0
  1 36  1  0
  2 33  1  0
  2  3  1  0
  2 37  1  6
  3  4  1  0
  3 38  1  0
  3 39  1  0
  5  4  1  1
  5  9  1  0
  5  6  1  0
  5 10  1  0
  6  7  1  0
  6 40  1  0
  6 41  1  0
  7  8  1  0
  7  9  1  0
  7 42  1  6
  8 43  1  0
  8 44  1  0
  8 45  1  0
 10 11  1  0
 10 12  1  0
 10 46  1  1
 11 47  1  0
 11 48  1  0
 11 49  1  0
 12 30  1  0
 12 13  1  0
 12 50  1  6
 13 14  1  0
 13 51  1  0
 13 52  1  0
 14 15  1  0
 14 53  1  0
 14 54  1  0
 15 23  1  0
 15 16  1  0
 15 55  1  1
 16 17  1  0
 16 56  1  0
 16 57  1  0
 17 18  2  0
 17 19  1  0
 19 20  1  0
 19 58  1  0
 19 59  1  0
 20 21  1  0
 20 60  1  0
 20 61  1  0
 21 27  1  0
 21 22  1  1
 21 23  1  0
 22 62  1  0
 22 63  1  0
 22 64  1  0
 23 24  2  0
 24 25  1  0
 24 65  1  0
 25 26  1  0
 25 66  1  0
 25 67  1  0
 26 32  1  0
 26 27  1  0
 26 68  1  6
 27 28  1  0
 27 69  1  1
 28 29  1  0
 28 70  1  0
 28 71  1  0
 29 30  1  0
 29 72  1  0
 29 73  1  0
 30 31  1  6
 30 32  1  0
 31 74  1  0
 31 75  1  0
 31 76  1  0
 32 33  1  0
 32 77  1  1
 33 78  1  0
 33 79  1  0
M  END
>  <i_m_ct_stereo_status>  (180) 
1

>  <s_m_source_file>  (180) 
/var/tmp/pbs.5076255.sched01/tmpuxvxg9lz/41q4u19exn.sdf

>  <i_m_source_file_index>  (180) 
30

>  <i_lp_mmshare_version>  (180) 
48012

>  <i_f3d_flags>  (180) 
0

>  <s_epik_input>  (180) 
W0NIM11bQ0BASF0oTzEpW0NIMl1bQ0BAXTEyT1tDSDJdW0NAQEhdKFtDSDNdKVtDSDJdW0NAQEhdM1tDQEBIXTRbQ0BIXTVbQ0BAXTYoW0NIM10pQyg9W0NIXVtDSDJdNClbQ0BIXShbQ0gyXUMoPU8pW0NIMl1bQ0gyXTYpW0NIMl1bQ0gyXVtDQEBIXShbQ0BASF0yW0NIM10pW0NAXTMoW0NIM10pW0NIMl1bQ0gyXTU=

>  <s_epik_cmdline>  (180) 
J2VwaWtfcHl0aG9uJywgJy1waHQnLCAnMi4wJywgJy1waCcsICc3LjAnLCAnLXRuJywgJzgnLCAnLW1hJywgJzIwMCcsICctaW1hZScsICc8aW5maWxlLm1hZT4nLCAnLW9tYWUnLCAnPG91dGZpbGUubWFlPic=

>  <r_lp_tautomer_probability>  (180) 
1

>  <r_epik_Ionization_Penalty>  (180) 
5.08999e-12

>  <r_epik_Ionization_Penalty_Charging>  (180) 
0

>  <r_epik_Ionization_Penalty_Neutral>  (180) 
5.08999e-12

>  <r_epik_State_Penalty>  (180) 
-0

>  <r_epik_Charging_Adjusted_Penalty>  (180) 
0

>  <i_epik_Tot_Q>  (180) 
0

>  <i_epik_Tot_abs_Q>  (180) 
0

>  <s_lp_Force_Field>  (180) 
OPLS3e

>  <r_lp_Energy>  (180) 
114.096

>  <b_lp_Chiralities_Consistent>  (180) 
1

>  <s_lp_Variant>  (180) 
43:0-1

>  <s_i_glide_gridfile>  (180) 
pfpi4k_grid

>  <i_i_glide_lignum>  (180) 
30

>  <i_i_glide_rotatable_bonds>  (180) 
0

>  <r_i_docking_score>  (180) 
2.98184

>  <r_i_glide_ligand_efficiency>  (180) 
0.0903587

>  <r_i_glide_ligand_efficiency_sa>  (180) 
0.289829

>  <r_i_glide_ligand_efficiency_ln>  (180) 
0.663145

>  <r_i_glide_gscore>  (180) 
2.98184

>  <r_i_glide_lipo>  (180) 
-0.360746

>  <r_i_glide_hbond>  (180) 
-0.114062

>  <r_i_glide_metal>  (180) 
-0

>  <r_i_glide_rewards>  (180) 
-0.367393

>  <r_i_glide_evdw>  (180) 
-19.7837

>  <r_i_glide_ecoul>  (180) 
-1.8575

>  <r_i_glide_erotb>  (180) 
0

>  <r_i_glide_esite>  (180) 
-0.0370698

>  <r_i_glide_emodel>  (180) 
-0.0612194

>  <r_i_glide_energy>  (180) 
-21.6412

>  <r_i_glide_einternal>  (180) 
0

>  <r_i_glide_intrahb_reward>  (180) 
-0

>  <i_i_glide_confnum>  (180) 
1

>  <i_i_glide_posenum>  (180) 
30

>  <r_i_glide_eff_state_penalty>  (180) 
0

>  <ligand_id>  (180) 
43

>  <original_smiles>  (180) 
CC1COC2(CC(C)O2)C(C)C2CCC3CC(=O)CCC4(C)C3=CCC3C4CCC2(C)C3C1

>  <smiles>  (180) 
[H]C1=C2C3([H])C([H])([H])C(=O)C([H])([H])C([H])([H])C2(C([H])([H])[H])C2([H])C([H])([H])C([H])([H])C4(C([H])([H])[H])C([H])(C([H])([H])C3([H])[H])C([H])(C([H])([H])[H])C3(OC([H])([H])C([H])(C([H])([H])[H])C([H])([H])C4([H])C2([H])C1([H])[H])OC([H])(C([H])([H])[H])C3([H])[H]

$$$$
43:0:2
     RDKit          3D

 79 84  0  0  1  0  0  0  0  0999 V2000
    4.4518   -2.4829    8.6554 C   0  0  0  0  0  0  0  0  0  0  0  0
    3.5945   -2.9187    7.4527 C   0  0  2  0  0  0  0  0  0  0  0  0
    2.1290   -3.1334    7.9016 C   0  0  0  0  0  0  0  0  0  0  0  0
    1.2783   -3.3622    6.7859 O   0  0  0  0  0  0  0  0  0  0  0  0
    0.7288   -2.2931    6.0257 C   0  0  2  0  0  0  0  0  0  0  0  0
    1.2747   -0.9027    6.3930 C   0  0  0  0  0  0  0  0  0  0  0  0
   -0.1630   -0.4084    6.2749 C   0  0  1  0  0  0  0  0  0  0  0  0
   -0.5463    0.2548    5.0029 C   0  0  0  0  0  0  0  0  0  0  0  0
   -0.6129   -1.8154    6.4693 O   0  0  0  0  0  0  0  0  0  0  0  0
    0.6112   -2.8329    4.5651 C   0  0  1  0  0  0  0  0  0  0  0  0
    0.8610   -1.8238    3.4506 C   0  0  0  0  0  0  0  0  0  0  0  0
    1.3150   -4.2156    4.2014 C   0  0  2  0  0  0  0  0  0  0  0  0
    0.4256   -5.4317    4.6961 C   0  0  0  0  0  0  0  0  0  0  0  0
    0.2122   -6.6409    3.7314 C   0  0  0  0  0  0  0  0  0  0  0  0
    0.5920   -8.0583    4.2558 C   0  0  1  0  0  0  0  0  0  0  0  0
    0.1159   -9.1496    3.2461 C   0  0  0  0  0  0  0  0  0  0  0  0
    1.1037  -10.2561    2.8956 C   0  0  0  0  0  0  0  0  0  0  0  0
    0.9385  -11.4142    3.2796 O   0  0  0  0  0  0  0  0  0  0  0  0
    2.3063   -9.8680    2.0326 C   0  0  0  0  0  0  0  0  0  0  0  0
    2.9918   -8.5458    2.4569 C   0  0  0  0  0  0  0  0  0  0  0  0
    3.3022   -8.3530    3.9887 C   0  0  2  0  0  0  0  0  0  0  0  0
    3.9835   -9.6759    4.4947 C   0  0  0  0  0  0  0  0  0  0  0  0
    2.0269   -8.1253    4.8471 C   0  0  0  0  0  0  0  0  0  0  0  0
    2.1868   -7.8403    6.1580 C   0  0  0  0  0  0  0  0  0  0  0  0
    3.5220   -7.3964    6.7301 C   0  0  0  0  0  0  0  0  0  0  0  0
    4.1711   -6.4544    5.6768 C   0  0  1  0  0  0  0  0  0  0  0  0
    4.3311   -7.1647    4.2898 C   0  0  2  0  0  0  0  0  0  0  0  0
    4.5873   -6.0844    3.2227 C   0  0  0  0  0  0  0  0  0  0  0  0
    3.3856   -5.1685    3.0521 C   0  0  0  0  0  0  0  0  0  0  0  0
    2.9324   -4.3623    4.3145 C   0  0  1  0  0  0  0  0  0  0  0  0
    3.6523   -3.0022    4.0884 C   0  0  0  0  0  0  0  0  0  0  0  0
    3.4484   -5.0260    5.7003 C   0  0  2  0  0  0  0  0  0  0  0  0
    4.2504   -4.1332    6.7270 C   0  0  0  0  0  0  0  0  0  0  0  0
    4.4745   -3.2472    9.4331 H   0  0  0  0  0  0  0  0  0  0  0  0
    4.0688   -1.5652    9.1076 H   0  0  0  0  0  0  0  0  0  0  0  0
    5.4828   -2.2901    8.3530 H   0  0  0  0  0  0  0  0  0  0  0  0
    3.6395   -2.0706    6.7850 H   0  0  0  0  0  0  0  0  0  0  0  0
    2.0674   -4.0071    8.5417 H   0  0  0  0  0  0  0  0  0  0  0  0
    1.7507   -2.3174    8.5196 H   0  0  0  0  0  0  0  0  0  0  0  0
    1.6486   -0.8386    7.4047 H   0  0  0  0  0  0  0  0  0  0  0  0
    1.9788   -0.4772    5.6866 H   0  0  0  0  0  0  0  0  0  0  0  0
   -0.4625    0.3048    7.0515 H   0  0  0  0  0  0  0  0  0  0  0  0
    0.0045    1.1093    4.7077 H   0  0  0  0  0  0  0  0  0  0  0  0
   -1.5627    0.2923    4.7489 H   0  0  0  0  0  0  0  0  0  0  0  0
   -0.2775   -0.2687    4.4360 H   0  0  0  0  0  0  0  0  0  0  0  0
   -0.4544   -3.0195    4.4561 H   0  0  0  0  0  0  0  0  0  0  0  0
    1.7514   -1.2424    3.4853 H   0  0  0  0  0  0  0  0  0  0  0  0
    0.1315   -1.2349    3.1823 H   0  0  0  0  0  0  0  0  0  0  0  0
    0.6273   -2.1404    2.4710 H   0  0  0  0  0  0  0  0  0  0  0  0
    1.1231   -4.2319    3.1290 H   0  0  0  0  0  0  0  0  0  0  0  0
    0.6729   -5.7598    5.6966 H   0  0  0  0  0  0  0  0  0  0  0  0
   -0.5831   -5.0598    4.8816 H   0  0  0  0  0  0  0  0  0  0  0  0
   -0.8536   -6.6817    3.5034 H   0  0  0  0  0  0  0  0  0  0  0  0
    0.6409   -6.4568    2.7532 H   0  0  0  0  0  0  0  0  0  0  0  0
   -0.0635   -8.2135    5.1167 H   0  0  0  0  0  0  0  0  0  0  0  0
   -0.7949   -9.6155    3.6245 H   0  0  0  0  0  0  0  0  0  0  0  0
   -0.1752   -8.6854    2.3027 H   0  0  0  0  0  0  0  0  0  0  0  0
    3.0313  -10.6843    2.0699 H   0  0  0  0  0  0  0  0  0  0  0  0
    1.9769   -9.7985    0.9914 H   0  0  0  0  0  0  0  0  0  0  0  0
    3.9275   -8.5099    1.9001 H   0  0  0  0  0  0  0  0  0  0  0  0
    2.3923   -7.7338    2.0510 H   0  0  0  0  0  0  0  0  0  0  0  0
    4.7359  -10.0263    3.7901 H   0  0  0  0  0  0  0  0  0  0  0  0
    3.2747  -10.4944    4.6329 H   0  0  0  0  0  0  0  0  0  0  0  0
    4.5181   -9.5701    5.4373 H   0  0  0  0  0  0  0  0  0  0  0  0
    1.3150   -7.6758    6.7723 H   0  0  0  0  0  0  0  0  0  0  0  0
    3.3552   -6.8599    7.6645 H   0  0  0  0  0  0  0  0  0  0  0  0
    4.1558   -8.2374    7.0142 H   0  0  0  0  0  0  0  0  0  0  0  0
    5.1973   -6.3068    6.0250 H   0  0  0  0  0  0  0  0  0  0  0  0
    5.3158   -7.6307    4.3260 H   0  0  0  0  0  0  0  0  0  0  0  0
    5.4520   -5.4839    3.5078 H   0  0  0  0  0  0  0  0  0  0  0  0
    4.8557   -6.5282    2.2658 H   0  0  0  0  0  0  0  0  0  0  0  0
    3.4325   -4.5729    2.1312 H   0  0  0  0  0  0  0  0  0  0  0  0
    2.6085   -5.8560    2.8286 H   0  0  0  0  0  0  0  0  0  0  0  0
    4.7354   -3.0921    4.1905 H   0  0  0  0  0  0  0  0  0  0  0  0
    3.3229   -2.2219    4.7666 H   0  0  0  0  0  0  0  0  0  0  0  0
    3.4852   -2.6020    3.0872 H   0  0  0  0  0  0  0  0  0  0  0  0
    2.5537   -5.2137    6.2690 H   0  0  0  0  0  0  0  0  0  0  0  0
    5.1881   -3.8125    6.2707 H   0  0  0  0  0  0  0  0  0  0  0  0
    4.5670   -4.7878    7.5408 H   0  0  0  0  0  0  0  0  0  0  0  0
  1  2  1  0
  1 34  1  0
  1 35  1  0
  1 36  1  0
  2 33  1  0
  2  3  1  0
  2 37  1  6
  3  4  1  0
  3 38  1  0
  3 39  1  0
  5  4  1  1
  5  9  1  0
  5  6  1  0
  5 10  1  0
  6  7  1  0
  6 40  1  0
  6 41  1  0
  7  8  1  0
  7  9  1  0
  7 42  1  1
  8 43  1  0
  8 44  1  0
  8 45  1  0
 10 11  1  0
 10 12  1  0
 10 46  1  6
 11 47  1  0
 11 48  1  0
 11 49  1  0
 12 30  1  0
 12 13  1  0
 12 50  1  6
 13 14  1  0
 13 51  1  0
 13 52  1  0
 14 15  1  0
 14 53  1  0
 14 54  1  0
 15 23  1  0
 15 16  1  0
 15 55  1  1
 16 17  1  0
 16 56  1  0
 16 57  1  0
 17 18  2  0
 17 19  1  0
 19 20  1  0
 19 58  1  0
 19 59  1  0
 20 21  1  0
 20 60  1  0
 20 61  1  0
 21 27  1  0
 21 22  1  1
 21 23  1  0
 22 62  1  0
 22 63  1  0
 22 64  1  0
 23 24  2  0
 24 25  1  0
 24 65  1  0
 25 26  1  0
 25 66  1  0
 25 67  1  0
 26 32  1  0
 26 27  1  0
 26 68  1  1
 27 28  1  0
 27 69  1  1
 28 29  1  0
 28 70  1  0
 28 71  1  0
 29 30  1  0
 29 72  1  0
 29 73  1  0
 30 31  1  6
 30 32  1  0
 31 74  1  0
 31 75  1  0
 31 76  1  0
 32 33  1  0
 32 77  1  1
 33 78  1  0
 33 79  1  0
M  END
>  <i_m_ct_stereo_status>  (181) 
1

>  <s_m_source_file>  (181) 
/var/tmp/pbs.5076255.sched01/tmpuxvxg9lz/41q4u19exn.sdf

>  <i_m_source_file_index>  (181) 
30

>  <i_lp_mmshare_version>  (181) 
48012

>  <i_f3d_flags>  (181) 
0

>  <s_epik_input>  (181) 
W0NIM11bQ0BASF0oTzEpW0NIMl1bQ0BAXTEyT1tDSDJdW0NAQEhdKFtDSDNdKVtDSDJdW0NAQEhdM1tDQEBIXTRbQ0BIXTVbQ0BAXTYoW0NIM10pQyg9W0NIXVtDSDJdNClbQ0BIXShbQ0gyXUMoPU8pW0NIMl1bQ0gyXTYpW0NIMl1bQ0gyXVtDQEBIXShbQ0BASF0yW0NIM10pW0NAXTMoW0NIM10pW0NIMl1bQ0gyXTU=

>  <s_epik_cmdline>  (181) 
J2VwaWtfcHl0aG9uJywgJy1waHQnLCAnMi4wJywgJy1waCcsICc3LjAnLCAnLXRuJywgJzgnLCAnLW1hJywgJzIwMCcsICctaW1hZScsICc8aW5maWxlLm1hZT4nLCAnLW9tYWUnLCAnPG91dGZpbGUubWFlPic=

>  <r_lp_tautomer_probability>  (181) 
1

>  <r_epik_Ionization_Penalty>  (181) 
5.08999e-12

>  <r_epik_Ionization_Penalty_Charging>  (181) 
0

>  <r_epik_Ionization_Penalty_Neutral>  (181) 
5.08999e-12

>  <r_epik_State_Penalty>  (181) 
-0

>  <r_epik_Charging_Adjusted_Penalty>  (181) 
0

>  <i_epik_Tot_Q>  (181) 
0

>  <i_epik_Tot_abs_Q>  (181) 
0

>  <s_lp_Force_Field>  (181) 
OPLS3e

>  <r_lp_Energy>  (181) 
114.096

>  <b_lp_Chiralities_Consistent>  (181) 
1

>  <s_lp_Variant>  (181) 
43:0-1

>  <s_i_glide_gridfile>  (181) 
pfpi4k_grid

>  <i_i_glide_lignum>  (181) 
30

>  <i_i_glide_rotatable_bonds>  (181) 
0

>  <r_i_docking_score>  (181) 
3.55172

>  <r_i_glide_ligand_efficiency>  (181) 
0.107628

>  <r_i_glide_ligand_efficiency_sa>  (181) 
0.34522

>  <r_i_glide_ligand_efficiency_ln>  (181) 
0.789885

>  <r_i_glide_gscore>  (181) 
3.55172

>  <r_i_glide_lipo>  (181) 
-0.0591952

>  <r_i_glide_hbond>  (181) 
0

>  <r_i_glide_metal>  (181) 
-0

>  <r_i_glide_rewards>  (181) 
-0.522038

>  <r_i_glide_evdw>  (181) 
-18.7016

>  <r_i_glide_ecoul>  (181) 
-2.22112

>  <r_i_glide_erotb>  (181) 
0

>  <r_i_glide_esite>  (181) 
-0.00711372

>  <r_i_glide_emodel>  (181) 
2.17202

>  <r_i_glide_energy>  (181) 
-20.9227

>  <r_i_glide_einternal>  (181) 
0

>  <r_i_glide_intrahb_reward>  (181) 
-0

>  <i_i_glide_confnum>  (181) 
2

>  <i_i_glide_posenum>  (181) 
17

>  <r_i_glide_eff_state_penalty>  (181) 
0

>  <ligand_id>  (181) 
43

>  <original_smiles>  (181) 
CC1COC2(CC(C)O2)C(C)C2CCC3CC(=O)CCC4(C)C3=CCC3C4CCC2(C)C3C1

>  <smiles>  (181) 
[H]C1=C2C3([H])C([H])([H])C(=O)C([H])([H])C([H])([H])C2(C([H])([H])[H])C2([H])C([H])([H])C([H])([H])C4(C([H])([H])[H])C([H])(C([H])([H])C3([H])[H])C([H])(C([H])([H])[H])C3(OC([H])([H])C([H])(C([H])([H])[H])C([H])([H])C4([H])C2([H])C1([H])[H])OC([H])(C([H])([H])[H])C3([H])[H]

$$$$
45:0:0
     RDKit          3D

 26 27  0  0  1  0  0  0  0  0999 V2000
    3.4431    0.1753   -4.3174 C   0  0  0  0  0  0  0  0  0  0  0  0
    4.1428   -1.1151   -3.8936 C   0  0  2  0  0  0  0  0  0  0  0  0
    3.2757   -2.2177   -4.1010 O   0  0  0  0  0  0  0  0  0  0  0  0
    3.6593   -3.4448   -3.5614 C   0  0  1  0  0  0  0  0  0  0  0  0
    4.5794   -4.1559   -4.3297 O   0  0  0  0  0  0  0  0  0  0  0  0
    4.2162   -3.3215   -2.1007 C   0  0  2  0  0  0  0  0  0  0  0  0
    3.1935   -2.5422   -1.2628 C   0  0  1  0  0  0  0  0  0  0  0  0
    3.2698   -2.8500    0.2526 C   0  0  0  0  0  0  0  0  0  0  0  0
    3.5186   -1.1683   -1.5161 O   0  0  0  0  0  0  0  0  0  0  0  0
    4.6243   -1.0912   -2.4232 C   0  0  1  0  0  0  0  0  0  0  0  0
    5.4156   -2.3845   -2.1984 C   0  0  1  0  0  0  0  0  0  0  0  0
    6.1713   -2.2478   -1.0093 O   0  0  0  0  0  0  0  0  0  0  0  0
    4.1237    1.0092   -4.1539 H   0  0  0  0  0  0  0  0  0  0  0  0
    2.5316    0.3563   -3.7440 H   0  0  0  0  0  0  0  0  0  0  0  0
    3.1725    0.1579   -5.3776 H   0  0  0  0  0  0  0  0  0  0  0  0
    5.0075   -1.2892   -4.5375 H   0  0  0  0  0  0  0  0  0  0  0  0
    2.7109   -4.0004   -3.5927 H   0  0  0  0  0  0  0  0  0  0  0  0
    4.7579   -4.9576   -3.8781 H   0  0  0  0  0  0  0  0  0  0  0  0
    4.4223   -4.3229   -1.7198 H   0  0  0  0  0  0  0  0  0  0  0  0
    2.1812   -2.7200   -1.6491 H   0  0  0  0  0  0  0  0  0  0  0  0
    3.0341   -3.8964    0.4195 H   0  0  0  0  0  0  0  0  0  0  0  0
    2.5443   -2.2544    0.8047 H   0  0  0  0  0  0  0  0  0  0  0  0
    4.2510   -2.6597    0.6826 H   0  0  0  0  0  0  0  0  0  0  0  0
    5.2038   -0.1991   -2.2068 H   0  0  0  0  0  0  0  0  0  0  0  0
    6.1167   -2.6493   -3.0031 H   0  0  0  0  0  0  0  0  0  0  0  0
    5.5558   -2.1029   -0.3067 H   0  0  0  0  0  0  0  0  0  0  0  0
  1  2  1  0
  1 13  1  0
  1 14  1  0
  1 15  1  0
  2 10  1  0
  2  3  1  0
  2 16  1  6
  3  4  1  0
  4  5  1  0
  4  6  1  0
  4 17  1  1
  5 18  1  0
  6 11  1  0
  6  7  1  0
  6 19  1  1
  7  8  1  0
  7  9  1  0
  7 20  1  6
  8 21  1  0
  8 22  1  0
  8 23  1  0
  9 10  1  0
 10 11  1  0
 10 24  1  1
 11 12  1  0
 11 25  1  6
 12 26  1  0
M  END
>  <i_m_ct_stereo_status>  (182) 
1

>  <s_m_source_file>  (182) 
/var/tmp/pbs.5076255.sched01/tmpuxvxg9lz/41q4u19exn.sdf

>  <i_m_source_file_index>  (182) 
32

>  <i_lp_mmshare_version>  (182) 
48012

>  <i_f3d_flags>  (182) 
0

>  <s_epik_input>  (182) 
W09IXVtDQEBIXShbQ0BIXTEyKU9bQ0BASF0oW0NIM10pW0NASF0oW0NASF0yW09IXSlPW0NAQEhdMVtDSDNd

>  <s_epik_cmdline>  (182) 
J2VwaWtfcHl0aG9uJywgJy1waHQnLCAnMi4wJywgJy1waCcsICc3LjAnLCAnLXRuJywgJzgnLCAnLW1hJywgJzIwMCcsICctaW1hZScsICc8aW5maWxlLm1hZT4nLCAnLW9tYWUnLCAnPG91dGZpbGUubWFlPic=

>  <r_lp_tautomer_probability>  (182) 
1

>  <r_epik_Ionization_Penalty>  (182) 
7.91193e-07

>  <r_epik_Ionization_Penalty_Charging>  (182) 
0

>  <r_epik_Ionization_Penalty_Neutral>  (182) 
7.91193e-07

>  <r_epik_State_Penalty>  (182) 
-0

>  <r_epik_Charging_Adjusted_Penalty>  (182) 
0

>  <i_epik_Tot_Q>  (182) 
0

>  <i_epik_Tot_abs_Q>  (182) 
0

>  <s_epik_Chemistry_Notes>  (182) 
This compound contains an acetal/aminal-like group ( X-CH(R)-Y where X, Y are N, S, or O) that may be acid/base labile, releasing an aldehyde.

>  <s_lp_Force_Field>  (182) 
OPLS3e

>  <r_lp_Energy>  (182) 
9.03818

>  <b_lp_Chiralities_Consistent>  (182) 
1

>  <s_lp_Variant>  (182) 
45:0-1

>  <s_i_glide_gridfile>  (182) 
pfpi4k_grid

>  <i_i_glide_lignum>  (182) 
32

>  <i_i_glide_rotatable_bonds>  (182) 
2

>  <r_i_docking_score>  (182) 
-4.69667

>  <r_i_glide_ligand_efficiency>  (182) 
-0.39139

>  <r_i_glide_ligand_efficiency_sa>  (182) 
-0.896058

>  <r_i_glide_ligand_efficiency_ln>  (182) 
-1.34772

>  <r_i_glide_gscore>  (182) 
-4.69667

>  <r_i_glide_lipo>  (182) 
-0.251842

>  <r_i_glide_hbond>  (182) 
-0.151036

>  <r_i_glide_metal>  (182) 
-0

>  <r_i_glide_rewards>  (182) 
-2.45347

>  <r_i_glide_evdw>  (182) 
-20.9396

>  <r_i_glide_ecoul>  (182) 
-5.28899

>  <r_i_glide_erotb>  (182) 
0

>  <r_i_glide_esite>  (182) 
0

>  <r_i_glide_emodel>  (182) 
-32.3293

>  <r_i_glide_energy>  (182) 
-26.2286

>  <r_i_glide_einternal>  (182) 
1.95275

>  <r_i_glide_intrahb_reward>  (182) 
-0

>  <i_i_glide_confnum>  (182) 
2

>  <i_i_glide_posenum>  (182) 
7

>  <r_i_glide_eff_state_penalty>  (182) 
0

>  <ligand_id>  (182) 
45

>  <original_smiles>  (182) 
CC1OC(O)C2C(C)OC1C2O

>  <smiles>  (182) 
[H]OC1([H])OC([H])(C([H])([H])[H])C2([H])OC([H])(C([H])([H])[H])C1([H])C2([H])O[H]

$$$$
45:0:1
     RDKit          3D

 26 27  0  0  1  0  0  0  0  0999 V2000
    3.4617    0.1847   -4.3023 C   0  0  0  0  0  0  0  0  0  0  0  0
    4.1562   -1.1127   -3.8848 C   0  0  2  0  0  0  0  0  0  0  0  0
    3.2787   -2.2182   -4.0823 O   0  0  0  0  0  0  0  0  0  0  0  0
    3.6719   -3.4591   -3.5310 C   0  0  1  0  0  0  0  0  0  0  0  0
    4.5983   -4.1553   -4.3244 O   0  0  0  0  0  0  0  0  0  0  0  0
    4.2552   -3.3174   -2.1006 C   0  0  2  0  0  0  0  0  0  0  0  0
    3.2577   -2.5395   -1.2333 C   0  0  1  0  0  0  0  0  0  0  0  0
    3.4018   -2.8445    0.2736 C   0  0  0  0  0  0  0  0  0  0  0  0
    3.5697   -1.1584   -1.5105 O   0  0  0  0  0  0  0  0  0  0  0  0
    4.6731   -1.0958   -2.4249 C   0  0  1  0  0  0  0  0  0  0  0  0
    5.4530   -2.3972   -2.2115 C   0  0  1  0  0  0  0  0  0  0  0  0
    6.3013   -2.3175   -1.0830 O   0  0  0  0  0  0  0  0  0  0  0  0
    4.1460    1.0150   -4.1506 H   0  0  0  0  0  0  0  0  0  0  0  0
    2.5711    0.3726   -3.7010 H   0  0  0  0  0  0  0  0  0  0  0  0
    3.1670    0.1842   -5.3489 H   0  0  0  0  0  0  0  0  0  0  0  0
    5.0015   -1.2722   -4.5529 H   0  0  0  0  0  0  0  0  0  0  0  0
    2.7468   -4.0236   -3.5483 H   0  0  0  0  0  0  0  0  0  0  0  0
    4.7855   -4.9674   -3.8807 H   0  0  0  0  0  0  0  0  0  0  0  0
    4.4630   -4.3139   -1.7068 H   0  0  0  0  0  0  0  0  0  0  0  0
    2.2209   -2.7201   -1.5588 H   0  0  0  0  0  0  0  0  0  0  0  0
    3.1827   -3.8908    0.4479 H   0  0  0  0  0  0  0  0  0  0  0  0
    2.7099   -2.2533    0.8698 H   0  0  0  0  0  0  0  0  0  0  0  0
    4.4059   -2.6506    0.6404 H   0  0  0  0  0  0  0  0  0  0  0  0
    5.2683   -0.2075   -2.2328 H   0  0  0  0  0  0  0  0  0  0  0  0
    6.1046   -2.6496   -3.0567 H   0  0  0  0  0  0  0  0  0  0  0  0
    6.3461   -3.1712   -0.6831 H   0  0  0  0  0  0  0  0  0  0  0  0
  1  2  1  0
  1 13  1  0
  1 14  1  0
  1 15  1  0
  2 10  1  0
  2  3  1  0
  2 16  1  6
  3  4  1  0
  4  5  1  0
  4  6  1  0
  4 17  1  1
  5 18  1  0
  6 11  1  0
  6  7  1  0
  6 19  1  1
  7  8  1  0
  7  9  1  0
  7 20  1  6
  8 21  1  0
  8 22  1  0
  8 23  1  0
  9 10  1  0
 10 11  1  0
 10 24  1  1
 11 12  1  0
 11 25  1  6
 12 26  1  0
M  END
>  <i_m_ct_stereo_status>  (183) 
1

>  <s_m_source_file>  (183) 
/var/tmp/pbs.5076255.sched01/tmpuxvxg9lz/41q4u19exn.sdf

>  <i_m_source_file_index>  (183) 
32

>  <i_lp_mmshare_version>  (183) 
48012

>  <i_f3d_flags>  (183) 
0

>  <s_epik_input>  (183) 
W09IXVtDQEBIXShbQ0BIXTEyKU9bQ0BASF0oW0NIM10pW0NASF0oW0NASF0yW09IXSlPW0NAQEhdMVtDSDNd

>  <s_epik_cmdline>  (183) 
J2VwaWtfcHl0aG9uJywgJy1waHQnLCAnMi4wJywgJy1waCcsICc3LjAnLCAnLXRuJywgJzgnLCAnLW1hJywgJzIwMCcsICctaW1hZScsICc8aW5maWxlLm1hZT4nLCAnLW9tYWUnLCAnPG91dGZpbGUubWFlPic=

>  <r_lp_tautomer_probability>  (183) 
1

>  <r_epik_Ionization_Penalty>  (183) 
7.91193e-07

>  <r_epik_Ionization_Penalty_Charging>  (183) 
0

>  <r_epik_Ionization_Penalty_Neutral>  (183) 
7.91193e-07

>  <r_epik_State_Penalty>  (183) 
-0

>  <r_epik_Charging_Adjusted_Penalty>  (183) 
0

>  <i_epik_Tot_Q>  (183) 
0

>  <i_epik_Tot_abs_Q>  (183) 
0

>  <s_epik_Chemistry_Notes>  (183) 
This compound contains an acetal/aminal-like group ( X-CH(R)-Y where X, Y are N, S, or O) that may be acid/base labile, releasing an aldehyde.

>  <s_lp_Force_Field>  (183) 
OPLS3e

>  <r_lp_Energy>  (183) 
9.03818

>  <b_lp_Chiralities_Consistent>  (183) 
1

>  <s_lp_Variant>  (183) 
45:0-1

>  <s_i_glide_gridfile>  (183) 
pfpi4k_grid

>  <i_i_glide_lignum>  (183) 
32

>  <i_i_glide_rotatable_bonds>  (183) 
2

>  <r_i_docking_score>  (183) 
-4.64217

>  <r_i_glide_ligand_efficiency>  (183) 
-0.386848

>  <r_i_glide_ligand_efficiency_sa>  (183) 
-0.88566

>  <r_i_glide_ligand_efficiency_ln>  (183) 
-1.33208

>  <r_i_glide_gscore>  (183) 
-4.64217

>  <r_i_glide_lipo>  (183) 
-0.248161

>  <r_i_glide_hbond>  (183) 
-0.13841

>  <r_i_glide_metal>  (183) 
-0

>  <r_i_glide_rewards>  (183) 
-2.43232

>  <r_i_glide_evdw>  (183) 
-20.794

>  <r_i_glide_ecoul>  (183) 
-5.22388

>  <r_i_glide_erotb>  (183) 
0

>  <r_i_glide_esite>  (183) 
0

>  <r_i_glide_emodel>  (183) 
-31.5047

>  <r_i_glide_energy>  (183) 
-26.0179

>  <r_i_glide_einternal>  (183) 
2.32654

>  <r_i_glide_intrahb_reward>  (183) 
-0

>  <i_i_glide_confnum>  (183) 
2

>  <i_i_glide_posenum>  (183) 
27

>  <r_i_glide_eff_state_penalty>  (183) 
0

>  <ligand_id>  (183) 
45

>  <original_smiles>  (183) 
CC1OC(O)C2C(C)OC1C2O

>  <smiles>  (183) 
[H]OC1([H])OC([H])(C([H])([H])[H])C2([H])OC([H])(C([H])([H])[H])C1([H])C2([H])O[H]

$$$$
45:0:2
     RDKit          3D

 26 27  0  0  1  0  0  0  0  0999 V2000
    2.6875   -2.2500   -3.4490 C   0  0  0  0  0  0  0  0  0  0  0  0
    3.6372   -3.0231   -2.5288 C   0  0  2  0  0  0  0  0  0  0  0  0
    3.0291   -3.2474   -1.2595 O   0  0  0  0  0  0  0  0  0  0  0  0
    3.8648   -3.7697   -0.2424 C   0  0  1  0  0  0  0  0  0  0  0  0
    4.0282   -5.1708   -0.3166 O   0  0  0  0  0  0  0  0  0  0  0  0
    5.2475   -3.0349   -0.2019 C   0  0  2  0  0  0  0  0  0  0  0  0
    5.0016   -1.5219   -0.1646 C   0  0  1  0  0  0  0  0  0  0  0  0
    6.1739   -0.7567    0.4887 C   0  0  0  0  0  0  0  0  0  0  0  0
    4.8493   -1.1455   -1.5459 O   0  0  0  0  0  0  0  0  0  0  0  0
    5.0100   -2.3089   -2.3591 C   0  0  1  0  0  0  0  0  0  0  0  0
    5.9149   -3.2453   -1.5477 C   0  0  1  0  0  0  0  0  0  0  0  0
    7.2760   -2.8558   -1.6347 O   0  0  0  0  0  0  0  0  0  0  0  0
    3.1535   -2.0923   -4.4199 H   0  0  0  0  0  0  0  0  0  0  0  0
    2.4419   -1.2695   -3.0346 H   0  0  0  0  0  0  0  0  0  0  0  0
    1.7551   -2.7849   -3.6266 H   0  0  0  0  0  0  0  0  0  0  0  0
    3.8234   -4.0055   -2.9869 H   0  0  0  0  0  0  0  0  0  0  0  0
    3.3059   -3.5704    0.6745 H   0  0  0  0  0  0  0  0  0  0  0  0
    3.8793   -5.4483   -1.2128 H   0  0  0  0  0  0  0  0  0  0  0  0
    5.8166   -3.4089    0.6551 H   0  0  0  0  0  0  0  0  0  0  0  0
    4.0551   -1.2661    0.3571 H   0  0  0  0  0  0  0  0  0  0  0  0
    6.2812   -1.0718    1.5269 H   0  0  0  0  0  0  0  0  0  0  0  0
    6.0195    0.3206    0.4834 H   0  0  0  0  0  0  0  0  0  0  0  0
    7.1295   -0.9568    0.0215 H   0  0  0  0  0  0  0  0  0  0  0  0
    5.4202   -2.0620   -3.3367 H   0  0  0  0  0  0  0  0  0  0  0  0
    5.8284   -4.2791   -1.9028 H   0  0  0  0  0  0  0  0  0  0  0  0
    7.6367   -3.0957   -2.4936 H   0  0  0  0  0  0  0  0  0  0  0  0
  1  2  1  0
  1 13  1  0
  1 14  1  0
  1 15  1  0
  2 10  1  0
  2  3  1  0
  2 16  1  6
  3  4  1  0
  4  5  1  0
  4  6  1  0
  4 17  1  1
  5 18  1  0
  6 11  1  0
  6  7  1  0
  6 19  1  1
  7  8  1  0
  7  9  1  0
  7 20  1  1
  8 21  1  0
  8 22  1  0
  8 23  1  0
  9 10  1  0
 10 11  1  0
 10 24  1  6
 11 12  1  0
 11 25  1  6
 12 26  1  0
M  END
>  <i_m_ct_stereo_status>  (184) 
1

>  <s_m_source_file>  (184) 
/var/tmp/pbs.5076255.sched01/tmpuxvxg9lz/41q4u19exn.sdf

>  <i_m_source_file_index>  (184) 
32

>  <i_lp_mmshare_version>  (184) 
48012

>  <i_f3d_flags>  (184) 
0

>  <s_epik_input>  (184) 
W09IXVtDQEBIXShbQ0BIXTEyKU9bQ0BASF0oW0NIM10pW0NASF0oW0NASF0yW09IXSlPW0NAQEhdMVtDSDNd

>  <s_epik_cmdline>  (184) 
J2VwaWtfcHl0aG9uJywgJy1waHQnLCAnMi4wJywgJy1waCcsICc3LjAnLCAnLXRuJywgJzgnLCAnLW1hJywgJzIwMCcsICctaW1hZScsICc8aW5maWxlLm1hZT4nLCAnLW9tYWUnLCAnPG91dGZpbGUubWFlPic=

>  <r_lp_tautomer_probability>  (184) 
1

>  <r_epik_Ionization_Penalty>  (184) 
7.91193e-07

>  <r_epik_Ionization_Penalty_Charging>  (184) 
0

>  <r_epik_Ionization_Penalty_Neutral>  (184) 
7.91193e-07

>  <r_epik_State_Penalty>  (184) 
-0

>  <r_epik_Charging_Adjusted_Penalty>  (184) 
0

>  <i_epik_Tot_Q>  (184) 
0

>  <i_epik_Tot_abs_Q>  (184) 
0

>  <s_epik_Chemistry_Notes>  (184) 
This compound contains an acetal/aminal-like group ( X-CH(R)-Y where X, Y are N, S, or O) that may be acid/base labile, releasing an aldehyde.

>  <s_lp_Force_Field>  (184) 
OPLS3e

>  <r_lp_Energy>  (184) 
9.03818

>  <b_lp_Chiralities_Consistent>  (184) 
1

>  <s_lp_Variant>  (184) 
45:0-1

>  <s_i_glide_gridfile>  (184) 
pfpi4k_grid

>  <i_i_glide_lignum>  (184) 
32

>  <i_i_glide_rotatable_bonds>  (184) 
2

>  <r_i_docking_score>  (184) 
-4.6113

>  <r_i_glide_ligand_efficiency>  (184) 
-0.384275

>  <r_i_glide_ligand_efficiency_sa>  (184) 
-0.87977

>  <r_i_glide_ligand_efficiency_ln>  (184) 
-1.32322

>  <r_i_glide_gscore>  (184) 
-4.6113

>  <r_i_glide_lipo>  (184) 
-0.539787

>  <r_i_glide_hbond>  (184) 
0

>  <r_i_glide_metal>  (184) 
-0

>  <r_i_glide_rewards>  (184) 
-2.2214

>  <r_i_glide_evdw>  (184) 
-17.7864

>  <r_i_glide_ecoul>  (184) 
-6.39168

>  <r_i_glide_erotb>  (184) 
0

>  <r_i_glide_esite>  (184) 
-0.00204011

>  <r_i_glide_emodel>  (184) 
-29.683

>  <r_i_glide_energy>  (184) 
-24.178

>  <r_i_glide_einternal>  (184) 
2.20776

>  <r_i_glide_intrahb_reward>  (184) 
-0

>  <i_i_glide_confnum>  (184) 
2

>  <i_i_glide_posenum>  (184) 
36

>  <r_i_glide_eff_state_penalty>  (184) 
0

>  <ligand_id>  (184) 
45

>  <original_smiles>  (184) 
CC1OC(O)C2C(C)OC1C2O

>  <smiles>  (184) 
[H]OC1([H])OC([H])(C([H])([H])[H])C2([H])OC([H])(C([H])([H])[H])C1([H])C2([H])O[H]

$$$$
46:0:0
     RDKit          3D

 81 87  0  0  1  0  0  0  0  0999 V2000
    1.1744   -8.9704    6.4875 C   0  0  0  0  0  0  0  0  0  0  0  0
    1.2756   -8.0457    5.2423 C   0  0  0  0  0  0  0  0  0  0  0  0
   -0.1907   -8.0973    4.7133 C   0  0  0  0  0  0  0  0  0  0  0  0
    1.4933   -6.7299    5.7721 O   0  0  0  0  0  0  0  0  0  0  0  0
    2.2573   -5.7797    5.0145 C   0  0  2  0  0  0  0  0  0  0  0  0
    1.6102   -5.5919    3.6050 C   0  0  0  0  0  0  0  0  0  0  0  0
    1.5309   -6.7807    2.5755 C   0  0  0  0  0  0  0  0  0  0  0  0
    2.5349   -7.9702    2.6972 C   0  0  1  0  0  0  0  0  0  0  0  0
    1.8317   -9.1374    1.9318 C   0  0  0  0  0  0  0  0  0  0  0  0
    3.8260   -7.7055    1.6542 C   0  0  2  0  0  0  0  0  0  0  0  0
    5.2018   -8.1417    1.5254 C   0  0  2  0  0  0  0  0  0  0  0  0
    5.8203   -8.6307    2.7359 O   0  0  0  0  0  0  0  0  0  0  0  0
    6.4771   -7.7788    3.7229 C   0  0  0  0  0  0  0  0  0  0  0  0
    6.1694   -6.2262    3.8253 C   0  0  1  0  0  0  0  0  0  0  0  0
    6.9115   -5.8016    2.5883 C   0  0  0  0  0  0  0  0  0  0  0  0
    6.3922   -6.5254    1.4868 O   0  0  0  0  0  0  0  0  0  0  0  0
    4.9715   -6.6054    1.3832 C   0  0  2  0  0  0  0  0  0  0  0  0
    4.6100   -5.5913    0.2483 C   0  0  2  0  0  0  0  0  0  0  0  0
    5.7304   -4.5882   -0.1652 C   0  0  0  0  0  0  0  0  0  0  0  0
    5.6435   -3.3927    0.8304 C   0  0  1  0  0  0  0  0  0  0  0  0
    5.6088   -2.1766    0.0874 O   0  0  0  0  0  0  0  0  0  0  0  0
    4.3796   -3.6411    1.7318 C   0  0  2  0  0  0  0  0  0  0  0  0
    3.6545   -2.4355    1.9011 O   0  0  0  0  0  0  0  0  0  0  0  0
    4.6098   -4.0670    3.2991 C   0  0  0  0  0  0  0  0  0  0  0  0
    4.6994   -5.5544    3.9280 C   0  0  2  0  0  0  0  0  0  0  0  0
    3.8536   -5.8147    5.2453 C   0  0  1  0  0  0  0  0  0  0  0  0
    4.2716   -4.7256    6.2763 C   0  0  0  0  0  0  0  0  0  0  0  0
    4.2172   -7.2020    5.8765 C   0  0  1  0  0  0  0  0  0  0  0  0
    3.7946   -7.2962    7.2226 O   0  0  0  0  0  0  0  0  0  0  0  0
    3.7771   -8.4823    5.0886 C   0  0  1  0  0  0  0  0  0  0  0  0
    3.9870   -9.6345    5.8856 O   0  0  0  0  0  0  0  0  0  0  0  0
    2.4798   -8.4789    4.2648 C   0  0  1  0  0  0  0  0  0  0  0  0
    3.5661   -4.6110    0.8212 C   0  0  1  0  0  0  0  0  0  0  0  0
    2.5236   -4.0037   -0.2018 C   0  0  2  0  0  0  0  0  0  0  0  0
    1.7133   -5.0540   -0.6814 O   0  0  0  0  0  0  0  0  0  0  0  0
    3.0463   -3.2175   -1.4321 C   0  0  0  0  0  0  0  0  0  0  0  0
    3.2828   -1.8675   -1.0324 O   0  0  0  0  0  0  0  0  0  0  0  0
    0.9863  -10.0083    6.2052 H   0  0  0  0  0  0  0  0  0  0  0  0
    0.3669   -8.6669    7.1547 H   0  0  0  0  0  0  0  0  0  0  0  0
    2.0402   -8.9738    7.1380 H   0  0  0  0  0  0  0  0  0  0  0  0
   -0.3509   -8.8640    3.9612 H   0  0  0  0  0  0  0  0  0  0  0  0
   -0.5449   -7.1366    4.3474 H   0  0  0  0  0  0  0  0  0  0  0  0
   -0.9130   -8.3275    5.4971 H   0  0  0  0  0  0  0  0  0  0  0  0
    1.9714   -4.8579    5.5163 H   0  0  0  0  0  0  0  0  0  0  0  0
    0.5832   -5.2859    3.7902 H   0  0  0  0  0  0  0  0  0  0  0  0
    2.0008   -4.6833    3.1702 H   0  0  0  0  0  0  0  0  0  0  0  0
    0.5250   -7.1798    2.5945 H   0  0  0  0  0  0  0  0  0  0  0  0
    1.4704   -6.4311    1.5515 H   0  0  0  0  0  0  0  0  0  0  0  0
    2.4978   -9.9935    1.7973 H   0  0  0  0  0  0  0  0  0  0  0  0
    1.5000   -8.8264    0.9416 H   0  0  0  0  0  0  0  0  0  0  0  0
    0.9378   -9.5201    2.4222 H   0  0  0  0  0  0  0  0  0  0  0  0
    3.3718   -7.8723    0.6887 H   0  0  0  0  0  0  0  0  0  0  0  0
    5.4954   -8.7316    0.6537 H   0  0  0  0  0  0  0  0  0  0  0  0
    6.4331   -8.2721    4.6846 H   0  0  0  0  0  0  0  0  0  0  0  0
    7.5404   -7.9163    3.5108 H   0  0  0  0  0  0  0  0  0  0  0  0
    6.7332   -5.8434    4.6741 H   0  0  0  0  0  0  0  0  0  0  0  0
    6.9284   -4.7436    2.5107 H   0  0  0  0  0  0  0  0  0  0  0  0
    7.9744   -6.0260    2.6622 H   0  0  0  0  0  0  0  0  0  0  0  0
    4.2270   -6.1383   -0.6083 H   0  0  0  0  0  0  0  0  0  0  0  0
    6.7444   -5.0267   -0.1417 H   0  0  0  0  0  0  0  0  0  0  0  0
    5.5148   -4.2347   -1.1661 H   0  0  0  0  0  0  0  0  0  0  0  0
    6.5483   -3.2209    1.4033 H   0  0  0  0  0  0  0  0  0  0  0  0
    4.8168   -2.0969   -0.3843 H   0  0  0  0  0  0  0  0  0  0  0  0
    3.4703   -2.0571    1.0362 H   0  0  0  0  0  0  0  0  0  0  0  0
    5.4510   -3.4920    3.6801 H   0  0  0  0  0  0  0  0  0  0  0  0
    3.7702   -3.6269    3.8349 H   0  0  0  0  0  0  0  0  0  0  0  0
    4.0148   -6.1146    3.3644 H   0  0  0  0  0  0  0  0  0  0  0  0
    5.3367   -4.7785    6.5047 H   0  0  0  0  0  0  0  0  0  0  0  0
    3.7324   -4.8228    7.2180 H   0  0  0  0  0  0  0  0  0  0  0  0
    4.0659   -3.7117    5.9354 H   0  0  0  0  0  0  0  0  0  0  0  0
    5.2869   -7.2391    6.0438 H   0  0  0  0  0  0  0  0  0  0  0  0
    4.0272   -8.1780    7.5236 H   0  0  0  0  0  0  0  0  0  0  0  0
    4.4257   -8.7424    4.3149 H   0  0  0  0  0  0  0  0  0  0  0  0
    3.6616  -10.3975    5.4063 H   0  0  0  0  0  0  0  0  0  0  0  0
    2.3062   -9.5489    4.1571 H   0  0  0  0  0  0  0  0  0  0  0  0
    2.9846   -5.1614    1.5001 H   0  0  0  0  0  0  0  0  0  0  0  0
    1.8186   -3.3894    0.3720 H   0  0  0  0  0  0  0  0  0  0  0  0
    2.1908   -5.4685   -1.4188 H   0  0  0  0  0  0  0  0  0  0  0  0
    3.9219   -3.6966   -1.8555 H   0  0  0  0  0  0  0  0  0  0  0  0
    2.2405   -3.1706   -2.1937 H   0  0  0  0  0  0  0  0  0  0  0  0
    2.4160   -1.4319   -0.9196 H   0  0  0  0  0  0  0  0  0  0  0  0
  1  2  1  0
  1 38  1  0
  1 39  1  0
  1 40  1  0
  2 32  1  0
  2  3  1  0
  2  4  1  0
  3 41  1  0
  3 42  1  0
  3 43  1  0
  4  5  1  0
  5 26  1  0
  5  6  1  0
  5 44  1  1
  6  7  1  0
  6 45  1  0
  6 46  1  0
  7  8  1  0
  7 47  1  0
  7 48  1  0
  8 32  1  0
  8  9  1  6
  8 10  1  0
  9 49  1  0
  9 50  1  0
  9 51  1  0
 10 17  1  0
 10 11  1  0
 10 52  1  6
 11 17  1  0
 11 12  1  0
 11 53  1  6
 12 13  1  0
 13 14  1  0
 13 54  1  0
 13 55  1  0
 14 25  1  0
 14 15  1  0
 14 56  1  1
 15 16  1  0
 15 57  1  0
 15 58  1  0
 17 16  1  1
 17 18  1  0
 18 33  1  0
 18 19  1  0
 18 59  1  6
 19 20  1  0
 19 60  1  0
 19 61  1  0
 20 21  1  0
 20 22  1  0
 20 62  1  1
 21 63  1  0
 22 23  1  1
 22 24  1  0
 22 33  1  0
 23 64  1  0
 24 25  1  0
 24 65  1  0
 24 66  1  0
 25 26  1  0
 25 67  1  6
 26 27  1  1
 26 28  1  0
 27 68  1  0
 27 69  1  0
 27 70  1  0
 28 29  1  0
 28 30  1  0
 28 71  1  1
 29 72  1  0
 30 31  1  0
 30 32  1  0
 30 73  1  6
 31 74  1  0
 32 75  1  6
 33 34  1  0
 33 76  1  1
 34 35  1  0
 34 36  1  0
 34 77  1  1
 35 78  1  0
 36 37  1  0
 36 79  1  0
 36 80  1  0
 37 81  1  0
M  END
>  <i_m_ct_stereo_status>  (185) 
1

>  <s_m_source_file>  (185) 
/var/tmp/pbs.5076255.sched01/tmpuxvxg9lz/41q4u19exn.sdf

>  <i_m_source_file_index>  (185) 
33

>  <i_lp_mmshare_version>  (185) 
48012

>  <i_f3d_flags>  (185) 
0

>  <s_epik_input>  (185) 
W0NAQF0xMjNbQ0BASF00W0NAQF01KFtDSDNdKVtDQEBIXTZDKFtDSDNdKShbQ0gzXSlPW0NASF0oW0NIMl1bQ0gyXTUpW0NAQF0oW0NIM10pKFtDQEBIXShbT0hdKVtDQEhdNltPSF0pW0NASF0oW0NAQEhdKFtDSDJdTzIpW0NIMl1PW0NASF0xNClbQ0gyXVtDQEBdNyhbT0hdKVtDQEhdKFtPSF0pW0NIMl1bQ0BASF0zW0NAQEhdN1tDQEhdKFtPSF0pW0NIMl1bT0hd

>  <s_epik_cmdline>  (185) 
J2VwaWtfcHl0aG9uJywgJy1waHQnLCAnMi4wJywgJy1waCcsICc3LjAnLCAnLXRuJywgJzgnLCAnLW1hJywgJzIwMCcsICctaW1hZScsICc8aW5maWxlLm1hZT4nLCAnLW9tYWUnLCAnPG91dGZpbGUubWFlPic=

>  <r_lp_tautomer_probability>  (185) 
1

>  <r_epik_Ionization_Penalty>  (185) 
1.02381e-06

>  <r_epik_Ionization_Penalty_Charging>  (185) 
0

>  <r_epik_Ionization_Penalty_Neutral>  (185) 
1.02381e-06

>  <r_epik_State_Penalty>  (185) 
-0

>  <r_epik_Charging_Adjusted_Penalty>  (185) 
0

>  <i_epik_Tot_Q>  (185) 
0

>  <i_epik_Tot_abs_Q>  (185) 
0

>  <s_lp_Force_Field>  (185) 
OPLS3e

>  <r_lp_Energy>  (185) 
274.15

>  <b_lp_Chiralities_Consistent>  (185) 
1

>  <s_lp_Variant>  (185) 
46:0-1

>  <s_i_glide_gridfile>  (185) 
pfpi4k_grid

>  <i_i_glide_lignum>  (185) 
33

>  <i_i_glide_rotatable_bonds>  (185) 
8

>  <r_i_docking_score>  (185) 
-4.5742

>  <r_i_glide_ligand_efficiency>  (185) 
-0.123627

>  <r_i_glide_ligand_efficiency_sa>  (185) 
-0.411953

>  <r_i_glide_ligand_efficiency_ln>  (185) 
-0.992037

>  <r_i_glide_gscore>  (185) 
-4.5742

>  <r_i_glide_lipo>  (185) 
-0.514623

>  <r_i_glide_hbond>  (185) 
-0.323349

>  <r_i_glide_metal>  (185) 
-0

>  <r_i_glide_rewards>  (185) 
-1

>  <r_i_glide_evdw>  (185) 
-16.4214

>  <r_i_glide_ecoul>  (185) 
-13.7645

>  <r_i_glide_erotb>  (185) 
0.14952

>  <r_i_glide_esite>  (185) 
0

>  <r_i_glide_emodel>  (185) 
-48.2583

>  <r_i_glide_energy>  (185) 
-30.1859

>  <r_i_glide_einternal>  (185) 
3.54474

>  <r_i_glide_intrahb_reward>  (185) 
-1

>  <i_i_glide_confnum>  (185) 
1

>  <i_i_glide_posenum>  (185) 
24

>  <r_i_glide_eff_state_penalty>  (185) 
0

>  <ligand_id>  (185) 
46

>  <original_smiles>  (185) 
CC1(C)OC2CCC3(C)C4C5OCC6COC54C4CC(O)C(O)(CC6C2(C)C(O)C(O)C13)C4C(O)CO

>  <smiles>  (185) 
[H]OC([H])([H])C([H])(O[H])C1([H])C2([H])C([H])([H])C([H])(O[H])C1(O[H])C([H])([H])C1([H])C3(C([H])([H])[H])C4([H])OC(C([H])([H])[H])(C([H])([H])[H])C([H])(C([H])(O[H])C3([H])O[H])C(C([H])([H])[H])(C3([H])C5([H])OC([H])([H])C1([H])C([H])([H])OC523)C([H])([H])C4([H])[H]

$$$$
46:0:1
     RDKit          3D

 81 87  0  0  1  0  0  0  0  0999 V2000
    0.9643   -7.4387    6.1267 C   0  0  0  0  0  0  0  0  0  0  0  0
    1.2351   -6.5091    4.9034 C   0  0  0  0  0  0  0  0  0  0  0  0
   -0.2225   -6.2425    4.4261 C   0  0  0  0  0  0  0  0  0  0  0  0
    1.7324   -5.2951    5.4823 O   0  0  0  0  0  0  0  0  0  0  0  0
    2.6386   -4.4752    4.7228 C   0  0  2  0  0  0  0  0  0  0  0  0
    2.0058   -4.1207    3.3373 C   0  0  0  0  0  0  0  0  0  0  0  0
    1.6771   -5.2378    2.2782 C   0  0  0  0  0  0  0  0  0  0  0  0
    2.4184   -6.5980    2.3156 C   0  0  1  0  0  0  0  0  0  0  0  0
    1.4743   -7.5819    1.5430 C   0  0  0  0  0  0  0  0  0  0  0  0
    3.6775   -6.5407    1.2549 C   0  0  2  0  0  0  0  0  0  0  0  0
    4.9347   -7.2595    1.0810 C   0  0  2  0  0  0  0  0  0  0  0  0
    5.5059   -7.8918    2.2371 O   0  0  0  0  0  0  0  0  0  0  0  0
    6.3326   -7.2210    3.2379 C   0  0  0  0  0  0  0  0  0  0  0  0
    6.3526   -5.6453    3.3750 C   0  0  1  0  0  0  0  0  0  0  0  0
    7.1301   -5.3812    2.1107 C   0  0  0  0  0  0  0  0  0  0  0  0
    6.4396   -5.9461    1.0032 O   0  0  0  0  0  0  0  0  0  0  0  0
    5.0300   -5.6957    0.9781 C   0  0  2  0  0  0  0  0  0  0  0  0
    4.8811   -4.5877   -0.1041 C   0  0  2  0  0  0  0  0  0  0  0  0
    6.1870   -3.8112   -0.4982 C   0  0  0  0  0  0  0  0  0  0  0  0
    6.3734   -2.6587    0.5238 C   0  0  1  0  0  0  0  0  0  0  0  0
    6.5902   -1.4579   -0.1946 O   0  0  0  0  0  0  0  0  0  0  0  0
    5.0835   -2.6869    1.4238 C   0  0  2  0  0  0  0  0  0  0  0  0
    4.6222   -1.3481    1.5747 O   0  0  0  0  0  0  0  0  0  0  0  0
    5.2223   -3.1923    2.9728 C   0  0  0  0  0  0  0  0  0  0  0  0
    5.0413   -4.6984    3.5571 C   0  0  2  0  0  0  0  0  0  0  0  0
    4.1963   -4.8410    4.8999 C   0  0  1  0  0  0  0  0  0  0  0  0
    4.8482   -3.8882    5.9437 C   0  0  0  0  0  0  0  0  0  0  0  0
    4.2918   -6.2978    5.4791 C   0  0  1  0  0  0  0  0  0  0  0  0
    3.8317   -6.3410    6.8215 O   0  0  0  0  0  0  0  0  0  0  0  0
    3.5879   -7.4349    4.6537 C   0  0  1  0  0  0  0  0  0  0  0  0
    3.5772   -8.6617    5.3719 O   0  0  0  0  0  0  0  0  0  0  0  0
    2.2980   -7.1478    3.8796 C   0  0  1  0  0  0  0  0  0  0  0  0
    4.0737   -3.4463    0.5170 C   0  0  1  0  0  0  0  0  0  0  0  0
    3.1565   -2.6249   -0.4465 C   0  0  2  0  0  0  0  0  0  0  0  0
    2.1111   -3.4593   -0.9229 O   0  0  0  0  0  0  0  0  0  0  0  0
    3.7893   -1.9865   -1.6994 C   0  0  0  0  0  0  0  0  0  0  0  0
    2.9372   -1.0919   -2.3781 O   0  0  0  0  0  0  0  0  0  0  0  0
    0.5569   -8.3979    5.7987 H   0  0  0  0  0  0  0  0  0  0  0  0
    0.2466   -6.9893    6.8128 H   0  0  0  0  0  0  0  0  0  0  0  0
    1.8184   -7.6463    6.7556 H   0  0  0  0  0  0  0  0  0  0  0  0
   -0.5566   -6.9345    3.6559 H   0  0  0  0  0  0  0  0  0  0  0  0
   -0.3656   -5.2230    4.0875 H   0  0  0  0  0  0  0  0  0  0  0  0
   -0.9644   -6.3287    5.2169 H   0  0  0  0  0  0  0  0  0  0  0  0
    2.5523   -3.5230    5.2436 H   0  0  0  0  0  0  0  0  0  0  0  0
    1.0604   -3.6283    3.5461 H   0  0  0  0  0  0  0  0  0  0  0  0
    2.5547   -3.2986    2.9080 H   0  0  0  0  0  0  0  0  0  0  0  0
    0.6118   -5.4353    2.2974 H   0  0  0  0  0  0  0  0  0  0  0  0
    1.6977   -4.8619    1.2558 H   0  0  0  0  0  0  0  0  0  0  0  0
    1.9561   -8.5425    1.3676 H   0  0  0  0  0  0  0  0  0  0  0  0
    1.1764   -7.1900    0.5664 H   0  0  0  0  0  0  0  0  0  0  0  0
    0.5356   -7.7953    2.0497 H   0  0  0  0  0  0  0  0  0  0  0  0
    3.1630   -6.5251    0.2904 H   0  0  0  0  0  0  0  0  0  0  0  0
    5.0347   -7.8651    0.1908 H   0  0  0  0  0  0  0  0  0  0  0  0
    6.2385   -7.7287    4.2011 H   0  0  0  0  0  0  0  0  0  0  0  0
    7.3396   -7.5651    2.9888 H   0  0  0  0  0  0  0  0  0  0  0  0
    7.0084   -5.4000    4.2072 H   0  0  0  0  0  0  0  0  0  0  0  0
    7.3704   -4.3503    2.0860 H   0  0  0  0  0  0  0  0  0  0  0  0
    8.1137   -5.8320    2.1364 H   0  0  0  0  0  0  0  0  0  0  0  0
    4.3762   -5.0116   -0.9774 H   0  0  0  0  0  0  0  0  0  0  0  0
    7.0959   -4.4106   -0.5862 H   0  0  0  0  0  0  0  0  0  0  0  0
    6.0277   -3.3767   -1.4876 H   0  0  0  0  0  0  0  0  0  0  0  0
    7.2950   -2.6981    1.0921 H   0  0  0  0  0  0  0  0  0  0  0  0
    5.7131   -1.1066   -0.3531 H   0  0  0  0  0  0  0  0  0  0  0  0
    3.8264   -1.3540    2.0842 H   0  0  0  0  0  0  0  0  0  0  0  0
    6.1765   -2.7994    3.3316 H   0  0  0  0  0  0  0  0  0  0  0  0
    4.4975   -2.5912    3.5330 H   0  0  0  0  0  0  0  0  0  0  0  0
    4.2502   -5.0903    2.9936 H   0  0  0  0  0  0  0  0  0  0  0  0
    5.8833   -4.1672    6.1391 H   0  0  0  0  0  0  0  0  0  0  0  0
    4.3183   -3.9132    6.8946 H   0  0  0  0  0  0  0  0  0  0  0  0
    4.8421   -2.8482    5.6354 H   0  0  0  0  0  0  0  0  0  0  0  0
    5.3434   -6.5439    5.6233 H   0  0  0  0  0  0  0  0  0  0  0  0
    2.9055   -6.1639    6.8077 H   0  0  0  0  0  0  0  0  0  0  0  0
    4.1704   -7.7698    3.8595 H   0  0  0  0  0  0  0  0  0  0  0  0
    2.9935   -8.5722    6.1022 H   0  0  0  0  0  0  0  0  0  0  0  0
    1.9151   -8.1606    3.7473 H   0  0  0  0  0  0  0  0  0  0  0  0
    3.4019   -3.8823    1.1975 H   0  0  0  0  0  0  0  0  0  0  0  0
    2.6295   -1.8578    0.1077 H   0  0  0  0  0  0  0  0  0  0  0  0
    1.5625   -2.9226   -1.5005 H   0  0  0  0  0  0  0  0  0  0  0  0
    4.6747   -1.4167   -1.4490 H   0  0  0  0  0  0  0  0  0  0  0  0
    4.0936   -2.7397   -2.4175 H   0  0  0  0  0  0  0  0  0  0  0  0
    2.1403   -0.9312   -1.8374 H   0  0  0  0  0  0  0  0  0  0  0  0
  1  2  1  0
  1 38  1  0
  1 39  1  0
  1 40  1  0
  2 32  1  0
  2  3  1  0
  2  4  1  0
  3 41  1  0
  3 42  1  0
  3 43  1  0
  4  5  1  0
  5 26  1  0
  5  6  1  0
  5 44  1  1
  6  7  1  0
  6 45  1  0
  6 46  1  0
  7  8  1  0
  7 47  1  0
  7 48  1  0
  8 32  1  0
  8  9  1  6
  8 10  1  0
  9 49  1  0
  9 50  1  0
  9 51  1  0
 10 17  1  0
 10 11  1  0
 10 52  1  6
 11 17  1  0
 11 12  1  0
 11 53  1  6
 12 13  1  0
 13 14  1  0
 13 54  1  0
 13 55  1  0
 14 25  1  0
 14 15  1  0
 14 56  1  1
 15 16  1  0
 15 57  1  0
 15 58  1  0
 17 16  1  1
 17 18  1  0
 18 33  1  0
 18 19  1  0
 18 59  1  6
 19 20  1  0
 19 60  1  0
 19 61  1  0
 20 21  1  0
 20 22  1  0
 20 62  1  1
 21 63  1  0
 22 23  1  1
 22 24  1  0
 22 33  1  0
 23 64  1  0
 24 25  1  0
 24 65  1  0
 24 66  1  0
 25 26  1  0
 25 67  1  6
 26 27  1  1
 26 28  1  0
 27 68  1  0
 27 69  1  0
 27 70  1  0
 28 29  1  0
 28 30  1  0
 28 71  1  1
 29 72  1  0
 30 31  1  0
 30 32  1  0
 30 73  1  6
 31 74  1  0
 32 75  1  6
 33 34  1  0
 33 76  1  1
 34 35  1  0
 34 36  1  0
 34 77  1  1
 35 78  1  0
 36 37  1  0
 36 79  1  0
 36 80  1  0
 37 81  1  0
M  END
>  <i_m_ct_stereo_status>  (186) 
1

>  <s_m_source_file>  (186) 
/var/tmp/pbs.5076255.sched01/tmpuxvxg9lz/41q4u19exn.sdf

>  <i_m_source_file_index>  (186) 
33

>  <i_lp_mmshare_version>  (186) 
48012

>  <i_f3d_flags>  (186) 
0

>  <s_epik_input>  (186) 
W0NAQF0xMjNbQ0BASF00W0NAQF01KFtDSDNdKVtDQEBIXTZDKFtDSDNdKShbQ0gzXSlPW0NASF0oW0NIMl1bQ0gyXTUpW0NAQF0oW0NIM10pKFtDQEBIXShbT0hdKVtDQEhdNltPSF0pW0NASF0oW0NAQEhdKFtDSDJdTzIpW0NIMl1PW0NASF0xNClbQ0gyXVtDQEBdNyhbT0hdKVtDQEhdKFtPSF0pW0NIMl1bQ0BASF0zW0NAQEhdN1tDQEhdKFtPSF0pW0NIMl1bT0hd

>  <s_epik_cmdline>  (186) 
J2VwaWtfcHl0aG9uJywgJy1waHQnLCAnMi4wJywgJy1waCcsICc3LjAnLCAnLXRuJywgJzgnLCAnLW1hJywgJzIwMCcsICctaW1hZScsICc8aW5maWxlLm1hZT4nLCAnLW9tYWUnLCAnPG91dGZpbGUubWFlPic=

>  <r_lp_tautomer_probability>  (186) 
1

>  <r_epik_Ionization_Penalty>  (186) 
1.02381e-06

>  <r_epik_Ionization_Penalty_Charging>  (186) 
0

>  <r_epik_Ionization_Penalty_Neutral>  (186) 
1.02381e-06

>  <r_epik_State_Penalty>  (186) 
-0

>  <r_epik_Charging_Adjusted_Penalty>  (186) 
0

>  <i_epik_Tot_Q>  (186) 
0

>  <i_epik_Tot_abs_Q>  (186) 
0

>  <s_lp_Force_Field>  (186) 
OPLS3e

>  <r_lp_Energy>  (186) 
274.15

>  <b_lp_Chiralities_Consistent>  (186) 
1

>  <s_lp_Variant>  (186) 
46:0-1

>  <s_i_glide_gridfile>  (186) 
pfpi4k_grid

>  <i_i_glide_lignum>  (186) 
33

>  <i_i_glide_rotatable_bonds>  (186) 
8

>  <r_i_docking_score>  (186) 
-2.83082

>  <r_i_glide_ligand_efficiency>  (186) 
-0.0765087

>  <r_i_glide_ligand_efficiency_sa>  (186) 
-0.254944

>  <r_i_glide_ligand_efficiency_ln>  (186) 
-0.613939

>  <r_i_glide_gscore>  (186) 
-2.83082

>  <r_i_glide_lipo>  (186) 
-0.562834

>  <r_i_glide_hbond>  (186) 
0

>  <r_i_glide_metal>  (186) 
-0

>  <r_i_glide_rewards>  (186) 
-0.5

>  <r_i_glide_evdw>  (186) 
-19.3029

>  <r_i_glide_ecoul>  (186) 
-6.34907

>  <r_i_glide_erotb>  (186) 
0.14952

>  <r_i_glide_esite>  (186) 
0

>  <r_i_glide_emodel>  (186) 
-32.9258

>  <r_i_glide_energy>  (186) 
-25.652

>  <r_i_glide_einternal>  (186) 
7.57102

>  <r_i_glide_intrahb_reward>  (186) 
-0.5

>  <i_i_glide_confnum>  (186) 
1

>  <i_i_glide_posenum>  (186) 
21

>  <r_i_glide_eff_state_penalty>  (186) 
0

>  <ligand_id>  (186) 
46

>  <original_smiles>  (186) 
CC1(C)OC2CCC3(C)C4C5OCC6COC54C4CC(O)C(O)(CC6C2(C)C(O)C(O)C13)C4C(O)CO

>  <smiles>  (186) 
[H]OC([H])([H])C([H])(O[H])C1([H])C2([H])C([H])([H])C([H])(O[H])C1(O[H])C([H])([H])C1([H])C3(C([H])([H])[H])C4([H])OC(C([H])([H])[H])(C([H])([H])[H])C([H])(C([H])(O[H])C3([H])O[H])C(C([H])([H])[H])(C3([H])C5([H])OC([H])([H])C1([H])C([H])([H])OC523)C([H])([H])C4([H])[H]

$$$$
46:0:2
     RDKit          3D

 81 87  0  0  1  0  0  0  0  0999 V2000
    1.0691   -9.7195    4.7270 C   0  0  0  0  0  0  0  0  0  0  0  0
    1.4197   -8.5361    3.7772 C   0  0  0  0  0  0  0  0  0  0  0  0
    1.1278   -9.1840    2.3867 C   0  0  0  0  0  0  0  0  0  0  0  0
    0.3975   -7.5633    4.0302 O   0  0  0  0  0  0  0  0  0  0  0  0
    0.7075   -6.1744    3.8520 C   0  0  2  0  0  0  0  0  0  0  0  0
    1.2499   -5.9262    2.4067 C   0  0  0  0  0  0  0  0  0  0  0  0
    2.5977   -6.5669    1.9064 C   0  0  0  0  0  0  0  0  0  0  0  0
    3.6616   -7.0070    2.9454 C   0  0  1  0  0  0  0  0  0  0  0  0
    4.5421   -8.0513    2.1901 C   0  0  0  0  0  0  0  0  0  0  0  0
    4.7767   -5.7731    3.1148 C   0  0  2  0  0  0  0  0  0  0  0  0
    5.7522   -5.3380    4.1169 C   0  0  2  0  0  0  0  0  0  0  0  0
    5.5110   -5.7771    5.4720 O   0  0  0  0  0  0  0  0  0  0  0  0
    4.6570   -5.0847    6.4162 C   0  0  0  0  0  0  0  0  0  0  0  0
    3.5417   -4.0767    5.9337 C   0  0  1  0  0  0  0  0  0  0  0  0
    4.4728   -2.9566    5.5511 C   0  0  0  0  0  0  0  0  0  0  0  0
    5.3976   -3.4154    4.5679 O   0  0  0  0  0  0  0  0  0  0  0  0
    4.8511   -4.2155    3.5154 C   0  0  2  0  0  0  0  0  0  0  0  0
    4.8628   -3.2335    2.2983 C   0  0  2  0  0  0  0  0  0  0  0  0
    5.0584   -1.7176    2.6301 C   0  0  0  0  0  0  0  0  0  0  0  0
    3.6662   -1.1477    3.0188 C   0  0  1  0  0  0  0  0  0  0  0  0
    3.4004   -0.0143    2.2339 O   0  0  0  0  0  0  0  0  0  0  0  0
    2.6331   -2.3016    2.7428 C   0  0  2  0  0  0  0  0  0  0  0  0
    1.4952   -1.7663    2.1010 O   0  0  0  0  0  0  0  0  0  0  0  0
    1.9280   -3.0254    4.0194 C   0  0  0  0  0  0  0  0  0  0  0  0
    2.4138   -4.3541    4.8091 C   0  0  2  0  0  0  0  0  0  0  0  0
    1.2987   -5.4241    5.1455 C   0  0  1  0  0  0  0  0  0  0  0  0
    0.1571   -4.6751    5.8937 C   0  0  0  0  0  0  0  0  0  0  0  0
    1.8373   -6.5265    6.1246 C   0  0  1  0  0  0  0  0  0  0  0  0
    0.7752   -7.2675    6.6993 O   0  0  0  0  0  0  0  0  0  0  0  0
    2.9185   -7.5080    5.5538 C   0  0  1  0  0  0  0  0  0  0  0  0
    3.2041   -8.5584    6.4600 O   0  0  0  0  0  0  0  0  0  0  0  0
    2.8817   -7.9245    4.0698 C   0  0  1  0  0  0  0  0  0  0  0  0
    3.4321   -3.1958    1.7458 C   0  0  1  0  0  0  0  0  0  0  0  0
    3.2960   -2.9712    0.1956 C   0  0  2  0  0  0  0  0  0  0  0  0
    3.8247   -4.1152   -0.4519 O   0  0  0  0  0  0  0  0  0  0  0  0
    3.9575   -1.7416   -0.4573 C   0  0  0  0  0  0  0  0  0  0  0  0
    3.4362   -1.5182   -1.7252 O   0  0  0  0  0  0  0  0  0  0  0  0
    1.7791  -10.5393    4.6065 H   0  0  0  0  0  0  0  0  0  0  0  0
    0.0743  -10.1143    4.5154 H   0  0  0  0  0  0  0  0  0  0  0  0
    1.0228   -9.4871    5.7827 H   0  0  0  0  0  0  0  0  0  0  0  0
    2.0043   -9.6420    1.9336 H   0  0  0  0  0  0  0  0  0  0  0  0
    0.6644   -8.5038    1.6749 H   0  0  0  0  0  0  0  0  0  0  0  0
    0.3929   -9.9873    2.4399 H   0  0  0  0  0  0  0  0  0  0  0  0
   -0.2933   -5.7598    3.7847 H   0  0  0  0  0  0  0  0  0  0  0  0
    0.4819   -6.2898    1.7262 H   0  0  0  0  0  0  0  0  0  0  0  0
    1.2121   -4.8653    2.2138 H   0  0  0  0  0  0  0  0  0  0  0  0
    2.3659   -7.4167    1.2803 H   0  0  0  0  0  0  0  0  0  0  0  0
    3.0564   -5.9885    1.1140 H   0  0  0  0  0  0  0  0  0  0  0  0
    5.4213   -8.3246    2.7664 H   0  0  0  0  0  0  0  0  0  0  0  0
    4.8874   -7.6867    1.2281 H   0  0  0  0  0  0  0  0  0  0  0  0
    4.0217   -8.9761    1.9657 H   0  0  0  0  0  0  0  0  0  0  0  0
    5.2809   -5.8152    2.1582 H   0  0  0  0  0  0  0  0  0  0  0  0
    6.8157   -5.3686    3.8670 H   0  0  0  0  0  0  0  0  0  0  0  0
    4.2738   -5.7841    7.1460 H   0  0  0  0  0  0  0  0  0  0  0  0
    5.3642   -4.5538    7.0536 H   0  0  0  0  0  0  0  0  0  0  0  0
    3.0019   -3.7110    6.8078 H   0  0  0  0  0  0  0  0  0  0  0  0
    3.8958   -2.0841    5.3400 H   0  0  0  0  0  0  0  0  0  0  0  0
    5.0752   -2.6138    6.3899 H   0  0  0  0  0  0  0  0  0  0  0  0
    5.5683   -3.5962    1.5578 H   0  0  0  0  0  0  0  0  0  0  0  0
    5.8313   -1.5141    3.3708 H   0  0  0  0  0  0  0  0  0  0  0  0
    5.4216   -1.2195    1.7303 H   0  0  0  0  0  0  0  0  0  0  0  0
    3.6249   -0.7348    4.0203 H   0  0  0  0  0  0  0  0  0  0  0  0
    3.9755    0.7132    2.5534 H   0  0  0  0  0  0  0  0  0  0  0  0
    1.7688   -1.3288    1.3010 H   0  0  0  0  0  0  0  0  0  0  0  0
    1.7224   -2.2515    4.7574 H   0  0  0  0  0  0  0  0  0  0  0  0
    0.9351   -3.2943    3.6660 H   0  0  0  0  0  0  0  0  0  0  0  0
    2.7985   -4.9720    4.0608 H   0  0  0  0  0  0  0  0  0  0  0  0
    0.5208   -4.2289    6.8205 H   0  0  0  0  0  0  0  0  0  0  0  0
   -0.6667   -5.3401    6.1539 H   0  0  0  0  0  0  0  0  0  0  0  0
   -0.2882   -3.8786    5.3018 H   0  0  0  0  0  0  0  0  0  0  0  0
    2.2276   -6.0352    7.0124 H   0  0  0  0  0  0  0  0  0  0  0  0
    0.4230   -7.8409    6.0182 H   0  0  0  0  0  0  0  0  0  0  0  0
    3.8746   -7.1012    5.5557 H   0  0  0  0  0  0  0  0  0  0  0  0
    2.4605   -9.1588    6.4728 H   0  0  0  0  0  0  0  0  0  0  0  0
    3.4980   -8.8245    4.1067 H   0  0  0  0  0  0  0  0  0  0  0  0
    3.0330   -4.1586    1.8858 H   0  0  0  0  0  0  0  0  0  0  0  0
    2.2371   -2.9988   -0.0570 H   0  0  0  0  0  0  0  0  0  0  0  0
    3.5878   -4.0845   -1.3785 H   0  0  0  0  0  0  0  0  0  0  0  0
    3.7166   -0.8299    0.1013 H   0  0  0  0  0  0  0  0  0  0  0  0
    5.0395   -1.8349   -0.5445 H   0  0  0  0  0  0  0  0  0  0  0  0
    2.5171   -1.1881   -1.6181 H   0  0  0  0  0  0  0  0  0  0  0  0
  1  2  1  0
  1 38  1  0
  1 39  1  0
  1 40  1  0
  2 32  1  0
  2  3  1  0
  2  4  1  0
  3 41  1  0
  3 42  1  0
  3 43  1  0
  4  5  1  0
  5 26  1  0
  5  6  1  0
  5 44  1  6
  6  7  1  0
  6 45  1  0
  6 46  1  0
  7  8  1  0
  7 47  1  0
  7 48  1  0
  8 32  1  0
  8  9  1  6
  8 10  1  0
  9 49  1  0
  9 50  1  0
  9 51  1  0
 10 17  1  0
 10 11  1  0
 10 52  1  6
 11 17  1  0
 11 12  1  0
 11 53  1  6
 12 13  1  0
 13 14  1  0
 13 54  1  0
 13 55  1  0
 14 25  1  0
 14 15  1  0
 14 56  1  1
 15 16  1  0
 15 57  1  0
 15 58  1  0
 17 16  1  1
 17 18  1  0
 18 33  1  0
 18 19  1  0
 18 59  1  6
 19 20  1  0
 19 60  1  0
 19 61  1  0
 20 21  1  0
 20 22  1  0
 20 62  1  1
 21 63  1  0
 22 23  1  6
 22 24  1  0
 22 33  1  0
 23 64  1  0
 24 25  1  0
 24 65  1  0
 24 66  1  0
 25 26  1  0
 25 67  1  6
 26 27  1  1
 26 28  1  0
 27 68  1  0
 27 69  1  0
 27 70  1  0
 28 29  1  0
 28 30  1  0
 28 71  1  1
 29 72  1  0
 30 31  1  0
 30 32  1  0
 30 73  1  6
 31 74  1  0
 32 75  1  1
 33 34  1  0
 33 76  1  6
 34 35  1  0
 34 36  1  0
 34 77  1  1
 35 78  1  0
 36 37  1  0
 36 79  1  0
 36 80  1  0
 37 81  1  0
M  END
>  <i_m_ct_stereo_status>  (187) 
1

>  <s_m_source_file>  (187) 
/var/tmp/pbs.5076255.sched01/tmpuxvxg9lz/41q4u19exn.sdf

>  <i_m_source_file_index>  (187) 
33

>  <i_lp_mmshare_version>  (187) 
48012

>  <i_f3d_flags>  (187) 
0

>  <s_epik_input>  (187) 
W0NAQF0xMjNbQ0BASF00W0NAQF01KFtDSDNdKVtDQEBIXTZDKFtDSDNdKShbQ0gzXSlPW0NASF0oW0NIMl1bQ0gyXTUpW0NAQF0oW0NIM10pKFtDQEBIXShbT0hdKVtDQEhdNltPSF0pW0NASF0oW0NAQEhdKFtDSDJdTzIpW0NIMl1PW0NASF0xNClbQ0gyXVtDQEBdNyhbT0hdKVtDQEhdKFtPSF0pW0NIMl1bQ0BASF0zW0NAQEhdN1tDQEhdKFtPSF0pW0NIMl1bT0hd

>  <s_epik_cmdline>  (187) 
J2VwaWtfcHl0aG9uJywgJy1waHQnLCAnMi4wJywgJy1waCcsICc3LjAnLCAnLXRuJywgJzgnLCAnLW1hJywgJzIwMCcsICctaW1hZScsICc8aW5maWxlLm1hZT4nLCAnLW9tYWUnLCAnPG91dGZpbGUubWFlPic=

>  <r_lp_tautomer_probability>  (187) 
1

>  <r_epik_Ionization_Penalty>  (187) 
1.02381e-06

>  <r_epik_Ionization_Penalty_Charging>  (187) 
0

>  <r_epik_Ionization_Penalty_Neutral>  (187) 
1.02381e-06

>  <r_epik_State_Penalty>  (187) 
-0

>  <r_epik_Charging_Adjusted_Penalty>  (187) 
0

>  <i_epik_Tot_Q>  (187) 
0

>  <i_epik_Tot_abs_Q>  (187) 
0

>  <s_lp_Force_Field>  (187) 
OPLS3e

>  <r_lp_Energy>  (187) 
274.15

>  <b_lp_Chiralities_Consistent>  (187) 
1

>  <s_lp_Variant>  (187) 
46:0-1

>  <s_i_glide_gridfile>  (187) 
pfpi4k_grid

>  <i_i_glide_lignum>  (187) 
33

>  <i_i_glide_rotatable_bonds>  (187) 
8

>  <r_i_docking_score>  (187) 
-2.26442

>  <r_i_glide_ligand_efficiency>  (187) 
-0.0612006

>  <r_i_glide_ligand_efficiency_sa>  (187) 
-0.203934

>  <r_i_glide_ligand_efficiency_ln>  (187) 
-0.4911

>  <r_i_glide_gscore>  (187) 
-2.26442

>  <r_i_glide_lipo>  (187) 
-0.208527

>  <r_i_glide_hbond>  (187) 
0

>  <r_i_glide_metal>  (187) 
-0

>  <r_i_glide_rewards>  (187) 
-0.5

>  <r_i_glide_evdw>  (187) 
-21.5557

>  <r_i_glide_ecoul>  (187) 
-4.1842

>  <r_i_glide_erotb>  (187) 
0.14952

>  <r_i_glide_esite>  (187) 
0

>  <r_i_glide_emodel>  (187) 
-32.4695

>  <r_i_glide_energy>  (187) 
-25.7399

>  <r_i_glide_einternal>  (187) 
6.6968

>  <r_i_glide_intrahb_reward>  (187) 
-0.5

>  <i_i_glide_confnum>  (187) 
1

>  <i_i_glide_posenum>  (187) 
12

>  <r_i_glide_eff_state_penalty>  (187) 
0

>  <ligand_id>  (187) 
46

>  <original_smiles>  (187) 
CC1(C)OC2CCC3(C)C4C5OCC6COC54C4CC(O)C(O)(CC6C2(C)C(O)C(O)C13)C4C(O)CO

>  <smiles>  (187) 
[H]OC([H])([H])C([H])(O[H])C1([H])C2([H])C([H])([H])C([H])(O[H])C1(O[H])C([H])([H])C1([H])C3(C([H])([H])[H])C4([H])OC(C([H])([H])[H])(C([H])([H])[H])C([H])(C([H])(O[H])C3([H])O[H])C(C([H])([H])[H])(C3([H])C5([H])OC([H])([H])C1([H])C([H])([H])OC523)C([H])([H])C4([H])[H]

$$$$
47:0:0
     RDKit          3D

 49 53  0  0  1  0  0  0  0  0999 V2000
    2.0430   -5.6533    0.6821 C   0  0  0  0  0  0  0  0  0  0  0  0
    3.1525   -4.6553    1.0865 C   0  0  1  0  0  0  0  0  0  0  0  0
    3.3184   -4.5905    2.7173 C   0  0  0  0  0  0  0  0  0  0  0  0
    2.7506   -3.3548    3.6596 C   0  0  1  0  0  0  0  0  0  0  0  0
    3.1984   -3.5707    4.9904 O   0  0  0  0  0  0  0  0  0  0  0  0
    2.7733   -1.7256    3.3365 C   0  0  0  0  0  0  0  0  0  0  0  0
    3.7290   -0.9839    2.2571 C   0  0  2  0  0  0  0  0  0  0  0  0
    3.3308   -0.8312    0.6957 C   0  0  0  0  0  0  0  0  0  0  0  0
    4.2170   -1.8507   -0.1843 C   0  0  2  0  0  0  0  0  0  0  0  0
    4.0594   -3.1346   -1.1678 C   0  0  0  0  0  0  0  0  0  0  0  0
    2.7622   -3.1640   -2.0411 C   0  0  0  0  0  0  0  0  0  0  0  0
    5.1512   -3.0609   -2.2846 C   0  0  0  0  0  0  0  0  0  0  0  0
    4.2924   -4.3926   -0.0891 C   0  0  2  0  0  0  0  0  0  0  0  0
    4.6736   -5.6002   -0.6960 O   0  0  0  0  0  0  0  0  0  0  0  0
    5.3559   -3.8312    0.8063 C   0  0  1  0  0  0  0  0  0  0  0  0
    6.7587   -3.3027    0.4109 C   0  0  0  0  0  0  0  0  0  0  0  0
    7.5475   -4.0231   -0.1882 O   0  0  0  0  0  0  0  0  0  0  0  0
    7.1122   -1.9330    0.8651 C   0  0  0  0  0  0  0  0  0  0  0  0
    6.2616   -1.2276    1.6572 C   0  0  0  0  0  0  0  0  0  0  0  0
    4.9575   -1.8236    2.1496 C   0  0  1  0  0  0  0  0  0  0  0  0
    5.3299   -2.4359    3.3569 O   0  0  0  0  0  0  0  0  0  0  0  0
    4.3632   -2.7027    1.0461 C   0  0  1  0  0  0  0  0  0  0  0  0
    2.8146   -3.2931    1.0422 C   0  0  0  0  0  0  0  0  0  0  0  0
    1.1257   -5.4735    1.2430 H   0  0  0  0  0  0  0  0  0  0  0  0
    2.3555   -6.6751    0.9025 H   0  0  0  0  0  0  0  0  0  0  0  0
    1.8065   -5.6164   -0.3803 H   0  0  0  0  0  0  0  0  0  0  0  0
    2.7817   -5.4647    3.0874 H   0  0  0  0  0  0  0  0  0  0  0  0
    4.3210   -4.8429    3.0476 H   0  0  0  0  0  0  0  0  0  0  0  0
    1.6837   -3.5661    3.7560 H   0  0  0  0  0  0  0  0  0  0  0  0
    4.1300   -3.4064    5.0827 H   0  0  0  0  0  0  0  0  0  0  0  0
    1.7526   -1.4159    3.1016 H   0  0  0  0  0  0  0  0  0  0  0  0
    2.9483   -1.2238    4.2898 H   0  0  0  0  0  0  0  0  0  0  0  0
    3.9670    0.0068    2.6484 H   0  0  0  0  0  0  0  0  0  0  0  0
    2.2537   -0.8918    0.5429 H   0  0  0  0  0  0  0  0  0  0  0  0
    3.6045    0.1746    0.3938 H   0  0  0  0  0  0  0  0  0  0  0  0
    5.0750   -1.2817   -0.5291 H   0  0  0  0  0  0  0  0  0  0  0  0
    2.9341   -3.2672   -3.1147 H   0  0  0  0  0  0  0  0  0  0  0  0
    2.1982   -2.2459   -1.9256 H   0  0  0  0  0  0  0  0  0  0  0  0
    2.1049   -3.9911   -1.7877 H   0  0  0  0  0  0  0  0  0  0  0  0
    5.2405   -4.0130   -2.8113 H   0  0  0  0  0  0  0  0  0  0  0  0
    6.1464   -2.7752   -1.9684 H   0  0  0  0  0  0  0  0  0  0  0  0
    4.8972   -2.3020   -3.0290 H   0  0  0  0  0  0  0  0  0  0  0  0
    4.0330   -5.8139   -1.3704 H   0  0  0  0  0  0  0  0  0  0  0  0
    5.5566   -4.4984    1.6348 H   0  0  0  0  0  0  0  0  0  0  0  0
    8.0641   -1.5354    0.5519 H   0  0  0  0  0  0  0  0  0  0  0  0
    6.5271   -0.2520    2.0159 H   0  0  0  0  0  0  0  0  0  0  0  0
    4.5956   -2.9810    3.5911 H   0  0  0  0  0  0  0  0  0  0  0  0
    2.1876   -3.1238    0.1845 H   0  0  0  0  0  0  0  0  0  0  0  0
    1.9463   -2.9481    1.5808 H   0  0  0  0  0  0  0  0  0  0  0  0
  2  1  1  1
  1 24  1  0
  1 25  1  0
  1 26  1  0
  2 13  1  0
  2 23  1  0
  2  3  1  0
  3  4  1  0
  3 27  1  0
  3 28  1  0
  4  5  1  0
  4  6  1  0
  4 29  1  1
  5 30  1  0
  6  7  1  0
  6 31  1  0
  6 32  1  0
  7 20  1  0
  7  8  1  0
  7 33  1  1
  8  9  1  0
  8 34  1  0
  8 35  1  0
  9 22  1  0
  9 10  1  0
  9 36  1  6
 10 11  1  0
 10 12  1  0
 10 13  1  0
 11 37  1  0
 11 38  1  0
 11 39  1  0
 12 40  1  0
 12 41  1  0
 12 42  1  0
 13 14  1  6
 13 15  1  0
 14 43  1  0
 15 22  1  0
 15 16  1  0
 15 44  1  1
 16 17  2  0
 16 18  1  0
 18 19  2  0
 18 45  1  0
 19 20  1  0
 19 46  1  0
 20 21  1  1
 20 22  1  0
 21 47  1  0
 22 23  1  1
 23 48  1  0
 23 49  1  0
M  END
>  <i_m_ct_stereo_status>  (188) 
1

>  <s_m_source_file>  (188) 
/var/tmp/pbs.5076255.sched01/tmpuxvxg9lz/41q4u19exn.sdf

>  <i_m_source_file_index>  (188) 
34

>  <i_lp_mmshare_version>  (188) 
48012

>  <i_f3d_flags>  (188) 
0

>  <s_epik_input>  (188) 
W09IXVtDQEBIXShbQ0gyXTEpW0NIMl1bQ0BAXShbQ0gzXSkoW0NIMl0yKVtDQEBdKFtPSF0pKEMzKFtDSDNdKVtDSDNdKVtDQEhdNEMoPU8pW0NIXT1bQ0hdW0NAQF01KFtPSF0pW0NASF0xW0NIMl1bQ0BIXTNbQ0BAXTI0NQ==

>  <s_epik_cmdline>  (188) 
J2VwaWtfcHl0aG9uJywgJy1waHQnLCAnMi4wJywgJy1waCcsICc3LjAnLCAnLXRuJywgJzgnLCAnLW1hJywgJzIwMCcsICctaW1hZScsICc8aW5maWxlLm1hZT4nLCAnLW9tYWUnLCAnPG91dGZpbGUubWFlPic=

>  <r_lp_tautomer_probability>  (188) 
1

>  <r_epik_Ionization_Penalty>  (188) 
4.25215e-07

>  <r_epik_Ionization_Penalty_Charging>  (188) 
0

>  <r_epik_Ionization_Penalty_Neutral>  (188) 
4.25215e-07

>  <r_epik_State_Penalty>  (188) 
-0

>  <r_epik_Charging_Adjusted_Penalty>  (188) 
0

>  <i_epik_Tot_Q>  (188) 
0

>  <i_epik_Tot_abs_Q>  (188) 
0

>  <s_lp_Force_Field>  (188) 
OPLS3e

>  <r_lp_Energy>  (188) 
261.38

>  <b_lp_Chiralities_Consistent>  (188) 
1

>  <s_lp_Variant>  (188) 
47:0-1

>  <s_i_glide_gridfile>  (188) 
pfpi4k_grid

>  <i_i_glide_lignum>  (188) 
34

>  <i_i_glide_rotatable_bonds>  (188) 
3

>  <r_i_docking_score>  (188) 
-3.7112

>  <r_i_glide_ligand_efficiency>  (188) 
-0.161357

>  <r_i_glide_ligand_efficiency_sa>  (188) 
-0.458876

>  <r_i_glide_ligand_efficiency_ln>  (188) 
-0.897402

>  <r_i_glide_gscore>  (188) 
-3.7112

>  <r_i_glide_lipo>  (188) 
-0.453106

>  <r_i_glide_hbond>  (188) 
0

>  <r_i_glide_metal>  (188) 
-0

>  <r_i_glide_rewards>  (188) 
-1.38967

>  <r_i_glide_evdw>  (188) 
-18.1334

>  <r_i_glide_ecoul>  (188) 
-6.41167

>  <r_i_glide_erotb>  (188) 
0

>  <r_i_glide_esite>  (188) 
0

>  <r_i_glide_emodel>  (188) 
-29.2285

>  <r_i_glide_energy>  (188) 
-24.5451

>  <r_i_glide_einternal>  (188) 
0.284124

>  <r_i_glide_intrahb_reward>  (188) 
-0

>  <i_i_glide_confnum>  (188) 
2

>  <i_i_glide_posenum>  (188) 
36

>  <r_i_glide_eff_state_penalty>  (188) 
0

>  <ligand_id>  (188) 
47

>  <original_smiles>  (188) 
CC12CC(O)CC3CC4C(C)(C)C1(O)C1C(=O)C=CC3(O)C41C2

>  <smiles>  (188) 
[H]OC1([H])C([H])([H])C2([H])C([H])([H])C3([H])C45C([H])([H])C(C([H])([H])[H])(C1([H])[H])C(O[H])(C4([H])C(=O)C([H])=C([H])C25O[H])C3(C([H])([H])[H])C([H])([H])[H]

$$$$
47:0:1
     RDKit          3D

 49 53  0  0  1  0  0  0  0  0999 V2000
    5.4055   -0.3117    1.7592 C   0  0  0  0  0  0  0  0  0  0  0  0
    4.6471   -1.6482    1.7328 C   0  0  1  0  0  0  0  0  0  0  0  0
    3.8279   -1.8891    3.1326 C   0  0  0  0  0  0  0  0  0  0  0  0
    4.3326   -2.9048    4.3400 C   0  0  1  0  0  0  0  0  0  0  0  0
    3.2895   -2.9855    5.2890 O   0  0  0  0  0  0  0  0  0  0  0  0
    5.0148   -4.4121    4.1924 C   0  0  0  0  0  0  0  0  0  0  0  0
    4.9589   -5.3627    2.8755 C   0  0  2  0  0  0  0  0  0  0  0  0
    6.0378   -5.2441    1.6570 C   0  0  0  0  0  0  0  0  0  0  0  0
    5.3049   -4.5505    0.4018 C   0  0  2  0  0  0  0  0  0  0  0  0
    5.4160   -3.2208   -0.5360 C   0  0  0  0  0  0  0  0  0  0  0  0
    6.8683   -2.6660   -0.7455 C   0  0  0  0  0  0  0  0  0  0  0  0
    5.0282   -3.5899   -2.0038 C   0  0  0  0  0  0  0  0  0  0  0  0
    4.3088   -2.2064    0.2073 C   0  0  2  0  0  0  0  0  0  0  0  0
    3.8124   -1.1777   -0.6297 O   0  0  0  0  0  0  0  0  0  0  0  0
    3.2446   -3.1795    0.6091 C   0  0  1  0  0  0  0  0  0  0  0  0
    2.4453   -4.1285   -0.3066 C   0  0  0  0  0  0  0  0  0  0  0  0
    1.8353   -3.6841   -1.2719 O   0  0  0  0  0  0  0  0  0  0  0  0
    2.3690   -5.5528    0.1072 C   0  0  0  0  0  0  0  0  0  0  0  0
    2.9883   -5.9878    1.2331 C   0  0  0  0  0  0  0  0  0  0  0  0
    3.6721   -5.0094    2.1858 C   0  0  1  0  0  0  0  0  0  0  0  0
    2.6123   -4.6665    3.0639 O   0  0  0  0  0  0  0  0  0  0  0  0
    4.3503   -3.9001    1.3634 C   0  0  1  0  0  0  0  0  0  0  0  0
    5.4245   -2.7938    1.9697 C   0  0  0  0  0  0  0  0  0  0  0  0
    6.0019   -0.2056    2.6659 H   0  0  0  0  0  0  0  0  0  0  0  0
    4.6879    0.5112    1.7317 H   0  0  0  0  0  0  0  0  0  0  0  0
    6.0671   -0.1803    0.9054 H   0  0  0  0  0  0  0  0  0  0  0  0
    3.7989   -0.9111    3.6131 H   0  0  0  0  0  0  0  0  0  0  0  0
    2.7634   -2.0444    2.9758 H   0  0  0  0  0  0  0  0  0  0  0  0
    5.0907   -2.3335    4.8778 H   0  0  0  0  0  0  0  0  0  0  0  0
    2.5855   -3.4778    4.8849 H   0  0  0  0  0  0  0  0  0  0  0  0
    6.0686   -4.3263    4.4615 H   0  0  0  0  0  0  0  0  0  0  0  0
    4.6236   -5.0137    5.0160 H   0  0  0  0  0  0  0  0  0  0  0  0
    4.9360   -6.3977    3.2171 H   0  0  0  0  0  0  0  0  0  0  0  0
    6.9791   -4.7785    1.9587 H   0  0  0  0  0  0  0  0  0  0  0  0
    6.3227   -6.2517    1.3523 H   0  0  0  0  0  0  0  0  0  0  0  0
    4.9254   -5.3603   -0.2182 H   0  0  0  0  0  0  0  0  0  0  0  0
    7.1692   -2.5818   -1.7911 H   0  0  0  0  0  0  0  0  0  0  0  0
    7.6081   -3.3127   -0.2728 H   0  0  0  0  0  0  0  0  0  0  0  0
    6.9880   -1.6700   -0.3327 H   0  0  0  0  0  0  0  0  0  0  0  0
    4.8422   -2.6998   -2.6052 H   0  0  0  0  0  0  0  0  0  0  0  0
    4.1751   -4.2443   -2.1202 H   0  0  0  0  0  0  0  0  0  0  0  0
    5.8232   -4.1533   -2.4931 H   0  0  0  0  0  0  0  0  0  0  0  0
    2.8739   -1.0855   -0.4949 H   0  0  0  0  0  0  0  0  0  0  0  0
    2.4786   -2.7024    1.2073 H   0  0  0  0  0  0  0  0  0  0  0  0
    1.8481   -6.2327   -0.5479 H   0  0  0  0  0  0  0  0  0  0  0  0
    2.9654   -7.0329    1.5076 H   0  0  0  0  0  0  0  0  0  0  0  0
    2.4822   -5.4019    3.6483 H   0  0  0  0  0  0  0  0  0  0  0  0
    6.3774   -2.6643    1.4957 H   0  0  0  0  0  0  0  0  0  0  0  0
    6.0290   -2.8456    2.8594 H   0  0  0  0  0  0  0  0  0  0  0  0
  2  1  1  6
  1 24  1  0
  1 25  1  0
  1 26  1  0
  2 13  1  0
  2 23  1  0
  2  3  1  0
  3  4  1  0
  3 27  1  0
  3 28  1  0
  4  5  1  0
  4  6  1  0
  4 29  1  1
  5 30  1  0
  6  7  1  0
  6 31  1  0
  6 32  1  0
  7 20  1  0
  7  8  1  0
  7 33  1  1
  8  9  1  0
  8 34  1  0
  8 35  1  0
  9 22  1  0
  9 10  1  0
  9 36  1  6
 10 11  1  0
 10 12  1  0
 10 13  1  0
 11 37  1  0
 11 38  1  0
 11 39  1  0
 12 40  1  0
 12 41  1  0
 12 42  1  0
 13 14  1  6
 13 15  1  0
 14 43  1  0
 15 22  1  0
 15 16  1  0
 15 44  1  1
 16 17  2  0
 16 18  1  0
 18 19  2  0
 18 45  1  0
 19 20  1  0
 19 46  1  0
 20 21  1  1
 20 22  1  0
 21 47  1  0
 22 23  1  1
 23 48  1  0
 23 49  1  0
M  END
>  <i_m_ct_stereo_status>  (189) 
1

>  <s_m_source_file>  (189) 
/var/tmp/pbs.5076255.sched01/tmpuxvxg9lz/41q4u19exn.sdf

>  <i_m_source_file_index>  (189) 
34

>  <i_lp_mmshare_version>  (189) 
48012

>  <i_f3d_flags>  (189) 
0

>  <s_epik_input>  (189) 
W09IXVtDQEBIXShbQ0gyXTEpW0NIMl1bQ0BAXShbQ0gzXSkoW0NIMl0yKVtDQEBdKFtPSF0pKEMzKFtDSDNdKVtDSDNdKVtDQEhdNEMoPU8pW0NIXT1bQ0hdW0NAQF01KFtPSF0pW0NASF0xW0NIMl1bQ0BIXTNbQ0BAXTI0NQ==

>  <s_epik_cmdline>  (189) 
J2VwaWtfcHl0aG9uJywgJy1waHQnLCAnMi4wJywgJy1waCcsICc3LjAnLCAnLXRuJywgJzgnLCAnLW1hJywgJzIwMCcsICctaW1hZScsICc8aW5maWxlLm1hZT4nLCAnLW9tYWUnLCAnPG91dGZpbGUubWFlPic=

>  <r_lp_tautomer_probability>  (189) 
1

>  <r_epik_Ionization_Penalty>  (189) 
4.25215e-07

>  <r_epik_Ionization_Penalty_Charging>  (189) 
0

>  <r_epik_Ionization_Penalty_Neutral>  (189) 
4.25215e-07

>  <r_epik_State_Penalty>  (189) 
-0

>  <r_epik_Charging_Adjusted_Penalty>  (189) 
0

>  <i_epik_Tot_Q>  (189) 
0

>  <i_epik_Tot_abs_Q>  (189) 
0

>  <s_lp_Force_Field>  (189) 
OPLS3e

>  <r_lp_Energy>  (189) 
261.38

>  <b_lp_Chiralities_Consistent>  (189) 
1

>  <s_lp_Variant>  (189) 
47:0-1

>  <s_i_glide_gridfile>  (189) 
pfpi4k_grid

>  <i_i_glide_lignum>  (189) 
34

>  <i_i_glide_rotatable_bonds>  (189) 
3

>  <r_i_docking_score>  (189) 
-2.83369

>  <r_i_glide_ligand_efficiency>  (189) 
-0.123204

>  <r_i_glide_ligand_efficiency_sa>  (189) 
-0.350376

>  <r_i_glide_ligand_efficiency_ln>  (189) 
-0.685212

>  <r_i_glide_gscore>  (189) 
-2.83369

>  <r_i_glide_lipo>  (189) 
-0.463737

>  <r_i_glide_hbond>  (189) 
-0.0066241

>  <r_i_glide_metal>  (189) 
-0

>  <r_i_glide_rewards>  (189) 
-1.23813

>  <r_i_glide_evdw>  (189) 
-19.6399

>  <r_i_glide_ecoul>  (189) 
-0.588923

>  <r_i_glide_erotb>  (189) 
0

>  <r_i_glide_esite>  (189) 
-0.054862

>  <r_i_glide_emodel>  (189) 
-23.417

>  <r_i_glide_energy>  (189) 
-20.2289

>  <r_i_glide_einternal>  (189) 
0.647107

>  <r_i_glide_intrahb_reward>  (189) 
-0

>  <i_i_glide_confnum>  (189) 
1

>  <i_i_glide_posenum>  (189) 
35

>  <r_i_glide_eff_state_penalty>  (189) 
0

>  <ligand_id>  (189) 
47

>  <original_smiles>  (189) 
CC12CC(O)CC3CC4C(C)(C)C1(O)C1C(=O)C=CC3(O)C41C2

>  <smiles>  (189) 
[H]OC1([H])C([H])([H])C2([H])C([H])([H])C3([H])C45C([H])([H])C(C([H])([H])[H])(C1([H])[H])C(O[H])(C4([H])C(=O)C([H])=C([H])C25O[H])C3(C([H])([H])[H])C([H])([H])[H]

$$$$
47:0:2
     RDKit          3D

 49 53  0  0  1  0  0  0  0  0999 V2000
    5.6208   -0.4620    1.0338 C   0  0  0  0  0  0  0  0  0  0  0  0
    4.8561   -1.7898    1.0949 C   0  0  1  0  0  0  0  0  0  0  0  0
    4.4802   -2.2088    2.6322 C   0  0  0  0  0  0  0  0  0  0  0  0
    5.2750   -3.3765    3.4932 C   0  0  1  0  0  0  0  0  0  0  0  0
    4.5861   -3.5761    4.7090 O   0  0  0  0  0  0  0  0  0  0  0  0
    5.8486   -4.8476    2.9654 C   0  0  0  0  0  0  0  0  0  0  0  0
    5.3768   -5.6175    1.6272 C   0  0  2  0  0  0  0  0  0  0  0  0
    6.0466   -5.3205    0.1743 C   0  0  0  0  0  0  0  0  0  0  0  0
    4.9972   -4.5005   -0.7039 C   0  0  2  0  0  0  0  0  0  0  0  0
    4.8511   -3.0791   -1.4795 C   0  0  0  0  0  0  0  0  0  0  0  0
    6.1693   -2.5001   -2.0546 C   0  0  0  0  0  0  0  0  0  0  0  0
    4.0158   -3.2417   -2.8130 C   0  0  0  0  0  0  0  0  0  0  0  0
    4.0802   -2.1780   -0.3101 C   0  0  2  0  0  0  0  0  0  0  0  0
    3.4321   -1.0476   -0.8608 O   0  0  0  0  0  0  0  0  0  0  0  0
    3.1541   -3.1802    0.2771 C   0  0  1  0  0  0  0  0  0  0  0  0
    2.1566   -4.0214   -0.5030 C   0  0  0  0  0  0  0  0  0  0  0  0
    1.4240   -3.4993   -1.3503 O   0  0  0  0  0  0  0  0  0  0  0  0
    2.0629   -5.4603   -0.1679 C   0  0  0  0  0  0  0  0  0  0  0  0
    2.9830   -6.0379    0.6387 C   0  0  0  0  0  0  0  0  0  0  0  0
    3.9567   -5.1814    1.4338 C   0  0  1  0  0  0  0  0  0  0  0  0
    3.2119   -4.9700    2.6288 O   0  0  0  0  0  0  0  0  0  0  0  0
    4.4031   -3.9786    0.5793 C   0  0  1  0  0  0  0  0  0  0  0  0
    5.6419   -2.9446    0.9469 C   0  0  0  0  0  0  0  0  0  0  0  0
    6.4657   -0.4776    1.7225 H   0  0  0  0  0  0  0  0  0  0  0  0
    4.9536    0.3514    1.3188 H   0  0  0  0  0  0  0  0  0  0  0  0
    5.9922   -0.2301    0.0381 H   0  0  0  0  0  0  0  0  0  0  0  0
    4.6391   -1.3002    3.2122 H   0  0  0  0  0  0  0  0  0  0  0  0
    3.4137   -2.3480    2.7817 H   0  0  0  0  0  0  0  0  0  0  0  0
    6.1762   -2.8506    3.8352 H   0  0  0  0  0  0  0  0  0  0  0  0
    3.7953   -4.0387    4.4866 H   0  0  0  0  0  0  0  0  0  0  0  0
    6.9326   -4.7917    2.8710 H   0  0  0  0  0  0  0  0  0  0  0  0
    5.7296   -5.5539    3.7928 H   0  0  0  0  0  0  0  0  0  0  0  0
    5.4245   -6.6862    1.8211 H   0  0  0  0  0  0  0  0  0  0  0  0
    7.0442   -4.8854    0.2298 H   0  0  0  0  0  0  0  0  0  0  0  0
    6.1720   -6.2613   -0.3285 H   0  0  0  0  0  0  0  0  0  0  0  0
    4.4303   -5.2403   -1.2512 H   0  0  0  0  0  0  0  0  0  0  0  0
    6.1062   -2.2941   -3.1208 H   0  0  0  0  0  0  0  0  0  0  0  0
    6.9985   -3.1914   -1.9192 H   0  0  0  0  0  0  0  0  0  0  0  0
    6.4156   -1.5525   -1.5934 H   0  0  0  0  0  0  0  0  0  0  0  0
    3.6920   -2.2722   -3.2101 H   0  0  0  0  0  0  0  0  0  0  0  0
    3.1443   -3.8770   -2.7917 H   0  0  0  0  0  0  0  0  0  0  0  0
    4.5906   -3.7559   -3.5843 H   0  0  0  0  0  0  0  0  0  0  0  0
    2.4798   -1.1383   -0.7579 H   0  0  0  0  0  0  0  0  0  0  0  0
    2.5883   -2.7995    1.1187 H   0  0  0  0  0  0  0  0  0  0  0  0
    1.3599   -6.0638   -0.7202 H   0  0  0  0  0  0  0  0  0  0  0  0
    2.9933   -7.1157    0.7861 H   0  0  0  0  0  0  0  0  0  0  0  0
    3.2044   -5.7933    3.0902 H   0  0  0  0  0  0  0  0  0  0  0  0
    6.4066   -2.7409    0.2194 H   0  0  0  0  0  0  0  0  0  0  0  0
    6.4886   -3.0974    1.6000 H   0  0  0  0  0  0  0  0  0  0  0  0
  2  1  1  1
  1 24  1  0
  1 25  1  0
  1 26  1  0
  2 13  1  0
  2 23  1  0
  2  3  1  0
  3  4  1  0
  3 27  1  0
  3 28  1  0
  4  5  1  0
  4  6  1  0
  4 29  1  1
  5 30  1  0
  6  7  1  0
  6 31  1  0
  6 32  1  0
  7 20  1  0
  7  8  1  0
  7 33  1  1
  8  9  1  0
  8 34  1  0
  8 35  1  0
  9 22  1  0
  9 10  1  0
  9 36  1  6
 10 11  1  0
 10 12  1  0
 10 13  1  0
 11 37  1  0
 11 38  1  0
 11 39  1  0
 12 40  1  0
 12 41  1  0
 12 42  1  0
 13 14  1  6
 13 15  1  0
 14 43  1  0
 15 22  1  0
 15 16  1  0
 15 44  1  1
 16 17  2  0
 16 18  1  0
 18 19  2  0
 18 45  1  0
 19 20  1  0
 19 46  1  0
 20 21  1  1
 20 22  1  0
 21 47  1  0
 22 23  1  1
 23 48  1  0
 23 49  1  0
M  END
>  <i_m_ct_stereo_status>  (190) 
1

>  <s_m_source_file>  (190) 
/var/tmp/pbs.5076255.sched01/tmpuxvxg9lz/41q4u19exn.sdf

>  <i_m_source_file_index>  (190) 
34

>  <i_lp_mmshare_version>  (190) 
48012

>  <i_f3d_flags>  (190) 
0

>  <s_epik_input>  (190) 
W09IXVtDQEBIXShbQ0gyXTEpW0NIMl1bQ0BAXShbQ0gzXSkoW0NIMl0yKVtDQEBdKFtPSF0pKEMzKFtDSDNdKVtDSDNdKVtDQEhdNEMoPU8pW0NIXT1bQ0hdW0NAQF01KFtPSF0pW0NASF0xW0NIMl1bQ0BIXTNbQ0BAXTI0NQ==

>  <s_epik_cmdline>  (190) 
J2VwaWtfcHl0aG9uJywgJy1waHQnLCAnMi4wJywgJy1waCcsICc3LjAnLCAnLXRuJywgJzgnLCAnLW1hJywgJzIwMCcsICctaW1hZScsICc8aW5maWxlLm1hZT4nLCAnLW9tYWUnLCAnPG91dGZpbGUubWFlPic=

>  <r_lp_tautomer_probability>  (190) 
1

>  <r_epik_Ionization_Penalty>  (190) 
4.25215e-07

>  <r_epik_Ionization_Penalty_Charging>  (190) 
0

>  <r_epik_Ionization_Penalty_Neutral>  (190) 
4.25215e-07

>  <r_epik_State_Penalty>  (190) 
-0

>  <r_epik_Charging_Adjusted_Penalty>  (190) 
0

>  <i_epik_Tot_Q>  (190) 
0

>  <i_epik_Tot_abs_Q>  (190) 
0

>  <s_lp_Force_Field>  (190) 
OPLS3e

>  <r_lp_Energy>  (190) 
261.38

>  <b_lp_Chiralities_Consistent>  (190) 
1

>  <s_lp_Variant>  (190) 
47:0-1

>  <s_i_glide_gridfile>  (190) 
pfpi4k_grid

>  <i_i_glide_lignum>  (190) 
34

>  <i_i_glide_rotatable_bonds>  (190) 
3

>  <r_i_docking_score>  (190) 
-2.46887

>  <r_i_glide_ligand_efficiency>  (190) 
-0.107342

>  <r_i_glide_ligand_efficiency_sa>  (190) 
-0.305267

>  <r_i_glide_ligand_efficiency_ln>  (190) 
-0.596995

>  <r_i_glide_gscore>  (190) 
-2.46887

>  <r_i_glide_lipo>  (190) 
-0.527392

>  <r_i_glide_hbond>  (190) 
-0.0603787

>  <r_i_glide_metal>  (190) 
-0

>  <r_i_glide_rewards>  (190) 
-1.23813

>  <r_i_glide_evdw>  (190) 
-4.28287

>  <r_i_glide_ecoul>  (190) 
-2.39215

>  <r_i_glide_erotb>  (190) 
0

>  <r_i_glide_esite>  (190) 
-0.0699999

>  <r_i_glide_emodel>  (190) 
-8.9208

>  <r_i_glide_energy>  (190) 
-6.67501

>  <r_i_glide_einternal>  (190) 
1.10911

>  <r_i_glide_intrahb_reward>  (190) 
-0

>  <i_i_glide_confnum>  (190) 
1

>  <i_i_glide_posenum>  (190) 
1

>  <r_i_glide_eff_state_penalty>  (190) 
0

>  <ligand_id>  (190) 
47

>  <original_smiles>  (190) 
CC12CC(O)CC3CC4C(C)(C)C1(O)C1C(=O)C=CC3(O)C41C2

>  <smiles>  (190) 
[H]OC1([H])C([H])([H])C2([H])C([H])([H])C3([H])C45C([H])([H])C(C([H])([H])[H])(C1([H])[H])C(O[H])(C4([H])C(=O)C([H])=C([H])C25O[H])C3(C([H])([H])[H])C([H])([H])[H]

$$$$
49:0:0
     RDKit          3D

108115  0  0  1  0  0  0  0  0999 V2000
    3.3978   -8.0314    9.6699 C   0  0  0  0  0  0  0  0  0  0  0  0
    3.1430   -7.8566    8.1582 C   0  0  2  0  0  0  0  0  0  0  0  0
    4.4790   -7.7372    7.3809 C   0  0  1  0  0  0  0  0  0  0  0  0
    4.9124   -8.9626    6.8222 O   0  0  0  0  0  0  0  0  0  0  0  0
    4.2970   -6.6333    6.3222 C   0  0  0  0  0  0  0  0  0  0  0  0
    3.2676   -5.6992    6.9651 C   0  0  2  0  0  0  0  0  0  0  0  0
    2.3315   -6.5671    7.8075 C   0  0  1  0  0  0  0  0  0  0  0  0
    0.8522   -6.6857    7.2889 C   0  0  2  0  0  0  0  0  0  0  0  0
    0.1374   -6.9043    8.5027 O   0  0  0  0  0  0  0  0  0  0  0  0
    0.4659   -8.0194    6.5579 C   0  0  0  0  0  0  0  0  0  0  0  0
    1.4066   -8.5952    5.4856 C   0  0  0  0  0  0  0  0  0  0  0  0
    1.1327   -8.3951    3.9797 C   0  0  2  0  0  0  0  0  0  0  0  0
   -0.3090   -8.8556    3.6241 C   0  0  0  0  0  0  0  0  0  0  0  0
    2.1880   -9.2816    3.2336 C   0  0  1  0  0  0  0  0  0  0  0  0
    1.7814  -10.7231    2.9000 C   0  0  0  0  0  0  0  0  0  0  0  0
    2.6527   -8.4932    2.0131 C   0  0  0  0  0  0  0  0  0  0  0  0
    2.6885   -7.0656    2.5348 C   0  0  0  0  0  0  0  0  0  0  0  0
    1.4208   -6.9702    3.3962 C   0  0  2  0  0  0  0  0  0  0  0  0
    1.2357   -5.6426    4.2066 C   0  0  1  0  0  0  0  0  0  0  0  0
   -0.0007   -5.5346    5.1146 C   0  0  0  0  0  0  0  0  0  0  0  0
    0.3131   -5.3446    6.6079 C   0  0  1  0  0  0  0  0  0  0  0  0
   -0.9949   -5.0469    7.0809 O   0  0  0  0  0  0  0  0  0  0  0  0
    1.2552   -4.0585    6.7465 C   0  0  2  0  0  0  0  0  0  0  0  0
    1.4785   -3.7522    8.1564 O   0  0  0  0  0  0  0  0  0  0  0  0
    0.5565   -3.0043    8.9839 C   0  0  2  0  0  0  0  0  0  0  0  0
    0.7727   -1.4894    8.8936 C   0  0  0  0  0  0  0  0  0  0  0  0
   -0.1737   -0.7800    9.6703 O   0  0  0  0  0  0  0  0  0  0  0  0
   -0.0134   -0.9781   11.0616 C   0  0  0  0  0  0  0  0  0  0  0  0
   -0.2635   -2.4675   11.3380 C   0  0  0  0  0  0  0  0  0  0  0  0
    0.6433   -3.4034   10.4992 C   0  0  1  0  0  0  0  0  0  0  0  0
    0.2390   -4.8499   10.7783 C   0  0  0  0  0  0  0  0  0  0  0  0
    1.9646   -3.2408   10.9807 O   0  0  0  0  0  0  0  0  0  0  0  0
    0.7958   -2.7598    5.9616 C   0  0  0  0  0  0  0  0  0  0  0  0
    1.1394   -2.5309    4.4381 C   0  0  1  0  0  0  0  0  0  0  0  0
    1.5131   -1.1551    4.2964 O   0  0  0  0  0  0  0  0  0  0  0  0
    0.5163   -0.2125    4.0291 C   0  0  2  0  0  0  0  0  0  0  0  0
    0.7261    0.3206    2.7535 O   0  0  0  0  0  0  0  0  0  0  0  0
   -0.2692    1.2424    2.3190 C   0  0  0  0  0  0  0  0  0  0  0  0
   -0.3067    2.4608    3.2603 C   0  0  1  0  0  0  0  0  0  0  0  0
   -1.3221    3.3747    2.8813 O   0  0  0  0  0  0  0  0  0  0  0  0
   -0.4823    2.0069    4.7094 C   0  0  1  0  0  0  0  0  0  0  0  0
   -1.7893    1.4606    4.8947 O   0  0  0  0  0  0  0  0  0  0  0  0
    0.5911    0.9529    5.0549 C   0  0  1  0  0  0  0  0  0  0  0  0
    0.2630    0.5375    6.3639 O   0  0  0  0  0  0  0  0  0  0  0  0
    2.3239   -3.3661    3.9009 C   0  0  0  0  0  0  0  0  0  0  0  0
    2.4596   -4.7331    4.6271 C   0  0  1  0  0  0  0  0  0  0  0  0
    2.6589   -4.4819    6.1770 C   0  0  2  0  0  0  0  0  0  0  0  0
    3.6910   -3.3214    6.4206 C   0  0  0  0  0  0  0  0  0  0  0  0
    3.9777   -7.2052   10.0812 H   0  0  0  0  0  0  0  0  0  0  0  0
    3.9613   -8.9464    9.8558 H   0  0  0  0  0  0  0  0  0  0  0  0
    2.4699   -8.1007   10.2386 H   0  0  0  0  0  0  0  0  0  0  0  0
    2.6091   -8.7492    7.8446 H   0  0  0  0  0  0  0  0  0  0  0  0
    5.2576   -7.4000    8.0667 H   0  0  0  0  0  0  0  0  0  0  0  0
    4.2320   -9.3090    6.2672 H   0  0  0  0  0  0  0  0  0  0  0  0
    5.2407   -6.1249    6.1109 H   0  0  0  0  0  0  0  0  0  0  0  0
    3.9456   -7.0230    5.3754 H   0  0  0  0  0  0  0  0  0  0  0  0
    3.8824   -5.2498    7.7501 H   0  0  0  0  0  0  0  0  0  0  0  0
    2.2755   -6.0071    8.7377 H   0  0  0  0  0  0  0  0  0  0  0  0
    0.5892   -7.5701    8.9871 H   0  0  0  0  0  0  0  0  0  0  0  0
    0.4188   -8.8172    7.3074 H   0  0  0  0  0  0  0  0  0  0  0  0
   -0.5582   -7.9947    6.1925 H   0  0  0  0  0  0  0  0  0  0  0  0
    2.4249   -8.3263    5.6957 H   0  0  0  0  0  0  0  0  0  0  0  0
    1.3855   -9.6735    5.6536 H   0  0  0  0  0  0  0  0  0  0  0  0
   -0.4513   -8.9208    2.5446 H   0  0  0  0  0  0  0  0  0  0  0  0
   -1.0803   -8.1924    4.0031 H   0  0  0  0  0  0  0  0  0  0  0  0
   -0.5211   -9.8414    4.0395 H   0  0  0  0  0  0  0  0  0  0  0  0
    3.0693   -9.3652    3.8702 H   0  0  0  0  0  0  0  0  0  0  0  0
    0.9647  -10.7488    2.1772 H   0  0  0  0  0  0  0  0  0  0  0  0
    1.4704  -11.2783    3.7861 H   0  0  0  0  0  0  0  0  0  0  0  0
    2.6247  -11.2641    2.4722 H   0  0  0  0  0  0  0  0  0  0  0  0
    3.6232   -8.8300    1.6460 H   0  0  0  0  0  0  0  0  0  0  0  0
    1.9313   -8.5843    1.1983 H   0  0  0  0  0  0  0  0  0  0  0  0
    3.5906   -6.9503    3.1297 H   0  0  0  0  0  0  0  0  0  0  0  0
    2.7143   -6.3278    1.7300 H   0  0  0  0  0  0  0  0  0  0  0  0
    0.6483   -6.8857    2.6271 H   0  0  0  0  0  0  0  0  0  0  0  0
    0.8535   -5.0794    3.3593 H   0  0  0  0  0  0  0  0  0  0  0  0
   -0.5754   -4.6708    4.7764 H   0  0  0  0  0  0  0  0  0  0  0  0
   -0.7082   -6.3360    4.9334 H   0  0  0  0  0  0  0  0  0  0  0  0
   -1.3227   -4.3192    6.6003 H   0  0  0  0  0  0  0  0  0  0  0  0
   -0.4569   -3.2028    8.6556 H   0  0  0  0  0  0  0  0  0  0  0  0
    1.8022   -1.2059    9.1387 H   0  0  0  0  0  0  0  0  0  0  0  0
    0.5008   -1.1501    7.9330 H   0  0  0  0  0  0  0  0  0  0  0  0
    0.9880   -0.6586   11.3452 H   0  0  0  0  0  0  0  0  0  0  0  0
   -0.7358   -0.3394   11.5780 H   0  0  0  0  0  0  0  0  0  0  0  0
   -0.1239   -2.6502   12.4097 H   0  0  0  0  0  0  0  0  0  0  0  0
   -1.3147   -2.6860   11.1167 H   0  0  0  0  0  0  0  0  0  0  0  0
   -0.7446   -5.0720   10.3600 H   0  0  0  0  0  0  0  0  0  0  0  0
    0.1994   -5.0651   11.8487 H   0  0  0  0  0  0  0  0  0  0  0  0
    0.9685   -5.5311   10.3568 H   0  0  0  0  0  0  0  0  0  0  0  0
    2.1895   -2.3270   10.9478 H   0  0  0  0  0  0  0  0  0  0  0  0
   -0.2722   -2.5869    6.0804 H   0  0  0  0  0  0  0  0  0  0  0  0
    1.3167   -1.9692    6.4462 H   0  0  0  0  0  0  0  0  0  0  0  0
    0.2894   -2.7626    3.7818 H   0  0  0  0  0  0  0  0  0  0  0  0
   -0.4595   -0.6841    4.0606 H   0  0  0  0  0  0  0  0  0  0  0  0
   -0.0395    1.5545    1.3023 H   0  0  0  0  0  0  0  0  0  0  0  0
   -1.2379    0.7430    2.2868 H   0  0  0  0  0  0  0  0  0  0  0  0
    0.6352    3.0066    3.1738 H   0  0  0  0  0  0  0  0  0  0  0  0
   -1.0519    3.7496    2.0461 H   0  0  0  0  0  0  0  0  0  0  0  0
   -0.3919    2.8672    5.3789 H   0  0  0  0  0  0  0  0  0  0  0  0
   -2.0261    0.9783    4.1197 H   0  0  0  0  0  0  0  0  0  0  0  0
    1.5955    1.3898    5.0440 H   0  0  0  0  0  0  0  0  0  0  0  0
    0.4339    1.2420    6.9692 H   0  0  0  0  0  0  0  0  0  0  0  0
    2.2081   -3.4997    2.8229 H   0  0  0  0  0  0  0  0  0  0  0  0
    3.2551   -2.8111    3.9693 H   0  0  0  0  0  0  0  0  0  0  0  0
    3.3873   -5.1523    4.2424 H   0  0  0  0  0  0  0  0  0  0  0  0
    3.3749   -2.3417    6.0678 H   0  0  0  0  0  0  0  0  0  0  0  0
    4.6367   -3.5378    5.9257 H   0  0  0  0  0  0  0  0  0  0  0  0
    3.8989   -3.1593    7.4793 H   0  0  0  0  0  0  0  0  0  0  0  0
  1  2  1  0
  1 49  1  0
  1 50  1  0
  1 51  1  0
  2  7  1  0
  2  3  1  0
  2 52  1  6
  3  4  1  0
  3  5  1  0
  3 53  1  1
  4 54  1  0
  5  6  1  0
  5 55  1  0
  5 56  1  0
  6 47  1  0
  6  7  1  0
  6 57  1  1
  7  8  1  0
  7 58  1  1
  8 21  1  0
  8  9  1  1
  8 10  1  0
  9 59  1  0
 10 11  1  0
 10 60  1  0
 10 61  1  0
 11 12  1  0
 11 62  1  0
 11 63  1  0
 12 18  1  0
 12 13  1  1
 12 14  1  0
 13 64  1  0
 13 65  1  0
 13 66  1  0
 14 15  1  0
 14 16  1  0
 14 67  1  1
 15 68  1  0
 15 69  1  0
 15 70  1  0
 16 17  1  0
 16 71  1  0
 16 72  1  0
 17 18  1  0
 17 73  1  0
 17 74  1  0
 18 19  1  0
 18 75  1  6
 19 46  1  0
 19 20  1  0
 19 76  1  6
 20 21  1  0
 20 77  1  0
 20 78  1  0
 21 22  1  1
 21 23  1  0
 22 79  1  0
 23 47  1  0
 23 24  1  1
 23 33  1  0
 24 25  1  0
 25 30  1  0
 25 26  1  0
 25 80  1  6
 26 27  1  0
 26 81  1  0
 26 82  1  0
 27 28  1  0
 28 29  1  0
 28 83  1  0
 28 84  1  0
 29 30  1  0
 29 85  1  0
 29 86  1  0
 30 31  1  0
 30 32  1  1
 31 87  1  0
 31 88  1  0
 31 89  1  0
 32 90  1  0
 33 34  1  0
 33 91  1  0
 33 92  1  0
 34 35  1  0
 34 45  1  0
 34 93  1  6
 35 36  1  0
 36 43  1  0
 36 37  1  0
 36 94  1  6
 37 38  1  0
 38 39  1  0
 38 95  1  0
 38 96  1  0
 39 40  1  0
 39 41  1  0
 39 97  1  1
 40 98  1  0
 41 42  1  0
 41 43  1  0
 41 99  1  1
 42100  1  0
 43 44  1  0
 43101  1  1
 44102  1  0
 45 46  1  0
 45103  1  0
 45104  1  0
 46 47  1  0
 46105  1  6
 47 48  1  6
 48106  1  0
 48107  1  0
 48108  1  0
M  END
>  <i_m_ct_stereo_status>  (191) 
1

>  <s_m_source_file>  (191) 
/var/tmp/pbs.5076255.sched01/tmpuxvxg9lz/41q4u19exn.sdf

>  <i_m_source_file_index>  (191) 
37

>  <i_lp_mmshare_version>  (191) 
48012

>  <i_f3d_flags>  (191) 
0

>  <s_epik_input>  (191) 
W0NIM11bQ0BASF0xW0NAQEhdKFtPSF0pW0NIMl1bQ0BIXShbQ0BIXTFbQ0BdMjNbT0hdKVtDQF00KFtDSDNdKVtDQF01KE9bQ0BASF0oW0NAQF02KFtDSDNdKVtPSF0pW0NIMl1PW0NIMl1bQ0gyXTYpW0NAQF0zKFtPSF0pW0NIMl1bQ0BIXShbQ0BASF03W0NAXShbQ0gzXSkoW0NIMl1bQ0gyXTIpW0NAQEhdKFtDSDNdKVtDSDJdW0NIMl03KVtDQEhdNFtDSDJdW0NAQEhdKFtDSDJdNSlPW0NAQEhdOE9bQ0gyXVtDQEBIXShbT0hdKVtDQEBIXShbT0hdKVtDQEhdOFtPSF0=

>  <s_epik_cmdline>  (191) 
J2VwaWtfcHl0aG9uJywgJy1waHQnLCAnMi4wJywgJy1waCcsICc3LjAnLCAnLXRuJywgJzgnLCAnLW1hJywgJzIwMCcsICctaW1hZScsICc8aW5maWxlLm1hZT4nLCAnLW9tYWUnLCAnPG91dGZpbGUubWFlPic=

>  <r_lp_tautomer_probability>  (191) 
1

>  <r_epik_Ionization_Penalty>  (191) 
4.01047e-06

>  <r_epik_Ionization_Penalty_Charging>  (191) 
0

>  <r_epik_Ionization_Penalty_Neutral>  (191) 
4.01047e-06

>  <r_epik_State_Penalty>  (191) 
-0

>  <r_epik_Charging_Adjusted_Penalty>  (191) 
0

>  <i_epik_Tot_Q>  (191) 
0

>  <i_epik_Tot_abs_Q>  (191) 
0

>  <s_epik_Chemistry_Notes>  (191) 
This compound contains an acetal/aminal-like group ( X-CH(R)-Y where X, Y are N, S, or O) that may be acid/base labile, releasing an aldehyde.

>  <s_lp_Force_Field>  (191) 
OPLS3e

>  <r_lp_Energy>  (191) 
155.119

>  <b_lp_Chiralities_Consistent>  (191) 
1

>  <s_lp_Variant>  (191) 
49:0-1

>  <s_i_glide_gridfile>  (191) 
pfpi4k_grid

>  <i_i_glide_lignum>  (191) 
37

>  <i_i_glide_rotatable_bonds>  (191) 
11

>  <r_i_docking_score>  (191) 
-3.26025

>  <r_i_glide_ligand_efficiency>  (191) 
-0.0679219

>  <r_i_glide_ligand_efficiency_sa>  (191) 
-0.246845

>  <r_i_glide_ligand_efficiency_ln>  (191) 
-0.669291

>  <r_i_glide_gscore>  (191) 
-3.26025

>  <r_i_glide_lipo>  (191) 
-0.102202

>  <r_i_glide_hbond>  (191) 
-0.0647384

>  <r_i_glide_metal>  (191) 
-0

>  <r_i_glide_rewards>  (191) 
0

>  <r_i_glide_evdw>  (191) 
-34.016

>  <r_i_glide_ecoul>  (191) 
-9.32969

>  <r_i_glide_erotb>  (191) 
0.0176348

>  <r_i_glide_esite>  (191) 
-0.0106914

>  <r_i_glide_emodel>  (191) 
-49.9662

>  <r_i_glide_energy>  (191) 
-43.3457

>  <r_i_glide_einternal>  (191) 
4.47321

>  <r_i_glide_intrahb_reward>  (191) 
-0

>  <i_i_glide_confnum>  (191) 
6

>  <i_i_glide_posenum>  (191) 
1

>  <r_i_glide_eff_state_penalty>  (191) 
0

>  <ligand_id>  (191) 
49

>  <original_smiles>  (191) 
CC1C(O)CC2C1C1(O)CCC3(C)C(C)CCC3C3CC1(O)C1(OC4COCCC4(C)O)CC(OC4OCC(O)C(O)C4O)CC3C21C

>  <smiles>  (191) 
[H]OC1([H])C([H])([H])OC([H])(OC2([H])C([H])([H])C3([H])C4([H])C([H])([H])C5(O[H])C(O[H])(C([H])([H])C([H])([H])C6(C([H])([H])[H])C([H])(C([H])([H])[H])C([H])([H])C([H])([H])C46[H])C4([H])C([H])(C([H])([H])[H])C([H])(O[H])C([H])([H])C4([H])C3(C([H])([H])[H])C5(OC3([H])C([H])([H])OC([H])([H])C([H])([H])C3(O[H])C([H])([H])[H])C2([H])[H])C([H])(O[H])C1([H])O[H]

$$$$
49:0:1
     RDKit          3D

108115  0  0  1  0  0  0  0  0999 V2000
    2.8138   -7.8114    9.6537 C   0  0  0  0  0  0  0  0  0  0  0  0
    2.7537   -7.6974    8.1159 C   0  0  2  0  0  0  0  0  0  0  0  0
    4.1557   -7.8876    7.4860 C   0  0  1  0  0  0  0  0  0  0  0  0
    4.3804   -9.2082    7.0360 O   0  0  0  0  0  0  0  0  0  0  0  0
    4.3083   -6.8458    6.3628 C   0  0  0  0  0  0  0  0  0  0  0  0
    3.4270   -5.6944    6.8431 C   0  0  2  0  0  0  0  0  0  0  0  0
    2.2632   -6.3006    7.6246 C   0  0  1  0  0  0  0  0  0  0  0  0
    0.8470   -6.1593    6.9513 C   0  0  2  0  0  0  0  0  0  0  0  0
    0.0074   -6.0852    8.0980 O   0  0  0  0  0  0  0  0  0  0  0  0
    0.2616   -7.4237    6.2536 C   0  0  0  0  0  0  0  0  0  0  0  0
    1.1570   -8.2534    5.3244 C   0  0  0  0  0  0  0  0  0  0  0  0
    1.0690   -8.1075    3.7875 C   0  0  2  0  0  0  0  0  0  0  0  0
   -0.3953   -8.3016    3.3060 C   0  0  0  0  0  0  0  0  0  0  0  0
    1.9896   -9.2325    3.1957 C   0  0  1  0  0  0  0  0  0  0  0  0
    1.3366  -10.5933    2.9098 C   0  0  0  0  0  0  0  0  0  0  0  0
    2.7132   -8.6279    1.9994 C   0  0  0  0  0  0  0  0  0  0  0  0
    2.9922   -7.2080    2.4492 C   0  0  0  0  0  0  0  0  0  0  0  0
    1.6933   -6.8048    3.1675 C   0  0  2  0  0  0  0  0  0  0  0  0
    1.7119   -5.4146    3.8844 C   0  0  1  0  0  0  0  0  0  0  0  0
    0.4433   -5.0061    4.6419 C   0  0  0  0  0  0  0  0  0  0  0  0
    0.6664   -4.7835    6.1428 C   0  0  1  0  0  0  0  0  0  0  0  0
   -0.5782   -4.2008    6.4872 O   0  0  0  0  0  0  0  0  0  0  0  0
    1.8198   -3.7224    6.3665 C   0  0  2  0  0  0  0  0  0  0  0  0
    1.9236   -3.3702    7.7805 O   0  0  0  0  0  0  0  0  0  0  0  0
    1.0289   -2.4505    8.4682 C   0  0  2  0  0  0  0  0  0  0  0  0
    1.3090   -0.9425    8.2195 C   0  0  0  0  0  0  0  0  0  0  0  0
    0.3735   -0.1353    8.9150 O   0  0  0  0  0  0  0  0  0  0  0  0
    0.4909   -0.2481   10.3231 C   0  0  0  0  0  0  0  0  0  0  0  0
    0.1441   -1.6894   10.7399 C   0  0  0  0  0  0  0  0  0  0  0  0
    1.0259   -2.7229   10.0072 C   0  0  1  0  0  0  0  0  0  0  0  0
    0.5166   -4.1230   10.4039 C   0  0  0  0  0  0  0  0  0  0  0  0
    2.3366   -2.5998   10.5226 O   0  0  0  0  0  0  0  0  0  0  0  0
    1.6969   -2.4115    5.5078 C   0  0  0  0  0  0  0  0  0  0  0  0
    2.1992   -2.3558    4.0279 C   0  0  1  0  0  0  0  0  0  0  0  0
    2.8489   -1.1015    3.8089 O   0  0  0  0  0  0  0  0  0  0  0  0
    2.0945    0.0733    3.6312 C   0  0  2  0  0  0  0  0  0  0  0  0
    0.9985    0.1081    4.5199 O   0  0  0  0  0  0  0  0  0  0  0  0
    0.1839    1.2697    4.4191 C   0  0  0  0  0  0  0  0  0  0  0  0
   -0.4194    1.3437    3.0106 C   0  0  1  0  0  0  0  0  0  0  0  0
   -1.2511    2.4866    2.8506 O   0  0  0  0  0  0  0  0  0  0  0  0
    0.6889    1.3379    1.9481 C   0  0  1  0  0  0  0  0  0  0  0  0
    1.4443    2.5361    2.0843 O   0  0  0  0  0  0  0  0  0  0  0  0
    1.6096    0.1205    2.1693 C   0  0  1  0  0  0  0  0  0  0  0  0
    2.6912    0.1726    1.2693 O   0  0  0  0  0  0  0  0  0  0  0  0
    3.2377   -3.4232    3.6164 C   0  0  0  0  0  0  0  0  0  0  0  0
    3.0533   -4.7497    4.3996 C   0  0  1  0  0  0  0  0  0  0  0  0
    3.1521   -4.4325    5.9527 C   0  0  2  0  0  0  0  0  0  0  0  0
    4.3619   -3.4846    6.2475 C   0  0  0  0  0  0  0  0  0  0  0  0
    3.5065   -7.0829   10.0790 H   0  0  0  0  0  0  0  0  0  0  0  0
    3.1662   -8.8008    9.9469 H   0  0  0  0  0  0  0  0  0  0  0  0
    1.8425   -7.6553   10.1191 H   0  0  0  0  0  0  0  0  0  0  0  0
    2.0977   -8.4997    7.7856 H   0  0  0  0  0  0  0  0  0  0  0  0
    4.9136   -7.6608    8.2353 H   0  0  0  0  0  0  0  0  0  0  0  0
    3.6263   -9.4775    6.5322 H   0  0  0  0  0  0  0  0  0  0  0  0
    5.3430   -6.5383    6.2190 H   0  0  0  0  0  0  0  0  0  0  0  0
    3.9685   -7.2293    5.4045 H   0  0  0  0  0  0  0  0  0  0  0  0
    4.0322   -5.3239    7.6676 H   0  0  0  0  0  0  0  0  0  0  0  0
    2.2254   -5.6711    8.5099 H   0  0  0  0  0  0  0  0  0  0  0  0
    0.2232   -6.8145    8.6571 H   0  0  0  0  0  0  0  0  0  0  0  0
   -0.0334   -8.1317    7.0267 H   0  0  0  0  0  0  0  0  0  0  0  0
   -0.6813   -7.2011    5.7643 H   0  0  0  0  0  0  0  0  0  0  0  0
    2.1884   -8.1816    5.6182 H   0  0  0  0  0  0  0  0  0  0  0  0
    0.9048   -9.2934    5.5331 H   0  0  0  0  0  0  0  0  0  0  0  0
   -0.4428   -8.4075    2.2217 H   0  0  0  0  0  0  0  0  0  0  0  0
   -1.0481   -7.4733    3.5670 H   0  0  0  0  0  0  0  0  0  0  0  0
   -0.8370   -9.1961    3.7433 H   0  0  0  0  0  0  0  0  0  0  0  0
    2.7781   -9.4337    3.9293 H   0  0  0  0  0  0  0  0  0  0  0  0
    0.6050  -10.5292    2.0928 H   0  0  0  0  0  0  0  0  0  0  0  0
    0.8480  -11.0083    3.7797 H   0  0  0  0  0  0  0  0  0  0  0  0
    2.1035  -11.3031    2.5901 H   0  0  0  0  0  0  0  0  0  0  0  0
    3.6270   -9.1720    1.7510 H   0  0  0  0  0  0  0  0  0  0  0  0
    2.0695   -8.6330    1.1168 H   0  0  0  0  0  0  0  0  0  0  0  0
    3.8368   -7.2264    3.1332 H   0  0  0  0  0  0  0  0  0  0  0  0
    3.2368   -6.5416    1.6274 H   0  0  0  0  0  0  0  0  0  0  0  0
    1.0240   -6.6214    2.3220 H   0  0  0  0  0  0  0  0  0  0  0  0
    1.5305   -4.8456    2.9757 H   0  0  0  0  0  0  0  0  0  0  0  0
    0.0850   -4.0702    4.2186 H   0  0  0  0  0  0  0  0  0  0  0  0
   -0.3895   -5.6615    4.4271 H   0  0  0  0  0  0  0  0  0  0  0  0
   -0.6088   -4.2370    7.4354 H   0  0  0  0  0  0  0  0  0  0  0  0
    0.0130   -2.6087    8.1077 H   0  0  0  0  0  0  0  0  0  0  0  0
    2.3332   -0.6779    8.4843 H   0  0  0  0  0  0  0  0  0  0  0  0
    1.1448   -0.6305    7.1999 H   0  0  0  0  0  0  0  0  0  0  0  0
    1.5030    0.0352   10.6468 H   0  0  0  0  0  0  0  0  0  0  0  0
   -0.2011    0.4568   10.7915 H   0  0  0  0  0  0  0  0  0  0  0  0
    0.2273   -1.7941   11.8170 H   0  0  0  0  0  0  0  0  0  0  0  0
   -0.9013   -1.8696   10.4835 H   0  0  0  0  0  0  0  0  0  0  0  0
   -0.4712   -4.3131    9.9884 H   0  0  0  0  0  0  0  0  0  0  0  0
    0.3977   -4.2331   11.4802 H   0  0  0  0  0  0  0  0  0  0  0  0
    1.1764   -4.9279   10.0890 H   0  0  0  0  0  0  0  0  0  0  0  0
    2.3221   -2.7801   11.4523 H   0  0  0  0  0  0  0  0  0  0  0  0
    0.6787   -2.0695    5.5200 H   0  0  0  0  0  0  0  0  0  0  0  0
    2.2983   -1.6900    6.0464 H   0  0  0  0  0  0  0  0  0  0  0  0
    1.3549   -2.4750    3.3344 H   0  0  0  0  0  0  0  0  0  0  0  0
    2.7483    0.9169    3.8594 H   0  0  0  0  0  0  0  0  0  0  0  0
   -0.6042    1.1629    5.1620 H   0  0  0  0  0  0  0  0  0  0  0  0
    0.7409    2.1705    4.6762 H   0  0  0  0  0  0  0  0  0  0  0  0
   -1.0548    0.4685    2.8559 H   0  0  0  0  0  0  0  0  0  0  0  0
   -0.7837    3.1256    2.3335 H   0  0  0  0  0  0  0  0  0  0  0  0
    0.2717    1.3061    0.9556 H   0  0  0  0  0  0  0  0  0  0  0  0
    1.0092    3.2258    1.5750 H   0  0  0  0  0  0  0  0  0  0  0  0
    1.0594   -0.7843    1.9498 H   0  0  0  0  0  0  0  0  0  0  0  0
    2.3592   -0.0071    0.4003 H   0  0  0  0  0  0  0  0  0  0  0  0
    3.2088   -3.5929    2.5328 H   0  0  0  0  0  0  0  0  0  0  0  0
    4.2532   -3.0449    3.7523 H   0  0  0  0  0  0  0  0  0  0  0  0
    3.9081   -5.3586    4.1277 H   0  0  0  0  0  0  0  0  0  0  0  0
    4.2800   -2.4859    5.8172 H   0  0  0  0  0  0  0  0  0  0  0  0
    5.2891   -3.9164    5.8724 H   0  0  0  0  0  0  0  0  0  0  0  0
    4.4823   -3.2944    7.3184 H   0  0  0  0  0  0  0  0  0  0  0  0
  1  2  1  0
  1 49  1  0
  1 50  1  0
  1 51  1  0
  2  7  1  0
  2  3  1  0
  2 52  1  6
  3  4  1  0
  3  5  1  0
  3 53  1  1
  4 54  1  0
  5  6  1  0
  5 55  1  0
  5 56  1  0
  6 47  1  0
  6  7  1  0
  6 57  1  1
  7  8  1  0
  7 58  1  1
  8 21  1  0
  8  9  1  1
  8 10  1  0
  9 59  1  0
 10 11  1  0
 10 60  1  0
 10 61  1  0
 11 12  1  0
 11 62  1  0
 11 63  1  0
 12 18  1  0
 12 13  1  6
 12 14  1  0
 13 64  1  0
 13 65  1  0
 13 66  1  0
 14 15  1  0
 14 16  1  0
 14 67  1  1
 15 68  1  0
 15 69  1  0
 15 70  1  0
 16 17  1  0
 16 71  1  0
 16 72  1  0
 17 18  1  0
 17 73  1  0
 17 74  1  0
 18 19  1  0
 18 75  1  6
 19 46  1  0
 19 20  1  0
 19 76  1  6
 20 21  1  0
 20 77  1  0
 20 78  1  0
 21 22  1  1
 21 23  1  0
 22 79  1  0
 23 47  1  0
 23 24  1  1
 23 33  1  0
 24 25  1  0
 25 30  1  0
 25 26  1  0
 25 80  1  6
 26 27  1  0
 26 81  1  0
 26 82  1  0
 27 28  1  0
 28 29  1  0
 28 83  1  0
 28 84  1  0
 29 30  1  0
 29 85  1  0
 29 86  1  0
 30 31  1  0
 30 32  1  1
 31 87  1  0
 31 88  1  0
 31 89  1  0
 32 90  1  0
 33 34  1  0
 33 91  1  0
 33 92  1  0
 34 35  1  0
 34 45  1  0
 34 93  1  6
 35 36  1  0
 36 43  1  0
 36 37  1  0
 36 94  1  1
 37 38  1  0
 38 39  1  0
 38 95  1  0
 38 96  1  0
 39 40  1  0
 39 41  1  0
 39 97  1  6
 40 98  1  0
 41 42  1  0
 41 43  1  0
 41 99  1  6
 42100  1  0
 43 44  1  0
 43101  1  6
 44102  1  0
 45 46  1  0
 45103  1  0
 45104  1  0
 46 47  1  0
 46105  1  6
 47 48  1  6
 48106  1  0
 48107  1  0
 48108  1  0
M  END
>  <i_m_ct_stereo_status>  (192) 
1

>  <s_m_source_file>  (192) 
/var/tmp/pbs.5076255.sched01/tmpuxvxg9lz/41q4u19exn.sdf

>  <i_m_source_file_index>  (192) 
37

>  <i_lp_mmshare_version>  (192) 
48012

>  <i_f3d_flags>  (192) 
0

>  <s_epik_input>  (192) 
W0NIM11bQ0BASF0xW0NAQEhdKFtPSF0pW0NIMl1bQ0BIXShbQ0BIXTFbQ0BdMjNbT0hdKVtDQF00KFtDSDNdKVtDQF01KE9bQ0BASF0oW0NAQF02KFtDSDNdKVtPSF0pW0NIMl1PW0NIMl1bQ0gyXTYpW0NAQF0zKFtPSF0pW0NIMl1bQ0BIXShbQ0BASF03W0NAXShbQ0gzXSkoW0NIMl1bQ0gyXTIpW0NAQEhdKFtDSDNdKVtDSDJdW0NIMl03KVtDQEhdNFtDSDJdW0NAQEhdKFtDSDJdNSlPW0NAQEhdOE9bQ0gyXVtDQEBIXShbT0hdKVtDQEBIXShbT0hdKVtDQEhdOFtPSF0=

>  <s_epik_cmdline>  (192) 
J2VwaWtfcHl0aG9uJywgJy1waHQnLCAnMi4wJywgJy1waCcsICc3LjAnLCAnLXRuJywgJzgnLCAnLW1hJywgJzIwMCcsICctaW1hZScsICc8aW5maWxlLm1hZT4nLCAnLW9tYWUnLCAnPG91dGZpbGUubWFlPic=

>  <r_lp_tautomer_probability>  (192) 
1

>  <r_epik_Ionization_Penalty>  (192) 
4.01047e-06

>  <r_epik_Ionization_Penalty_Charging>  (192) 
0

>  <r_epik_Ionization_Penalty_Neutral>  (192) 
4.01047e-06

>  <r_epik_State_Penalty>  (192) 
-0

>  <r_epik_Charging_Adjusted_Penalty>  (192) 
0

>  <i_epik_Tot_Q>  (192) 
0

>  <i_epik_Tot_abs_Q>  (192) 
0

>  <s_epik_Chemistry_Notes>  (192) 
This compound contains an acetal/aminal-like group ( X-CH(R)-Y where X, Y are N, S, or O) that may be acid/base labile, releasing an aldehyde.

>  <s_lp_Force_Field>  (192) 
OPLS3e

>  <r_lp_Energy>  (192) 
155.119

>  <b_lp_Chiralities_Consistent>  (192) 
1

>  <s_lp_Variant>  (192) 
49:0-1

>  <s_i_glide_gridfile>  (192) 
pfpi4k_grid

>  <i_i_glide_lignum>  (192) 
37

>  <i_i_glide_rotatable_bonds>  (192) 
11

>  <r_i_docking_score>  (192) 
-3.18581

>  <r_i_glide_ligand_efficiency>  (192) 
-0.066371

>  <r_i_glide_ligand_efficiency_sa>  (192) 
-0.241208

>  <r_i_glide_ligand_efficiency_ln>  (192) 
-0.654009

>  <r_i_glide_gscore>  (192) 
-3.18581

>  <r_i_glide_lipo>  (192) 
-0.143814

>  <r_i_glide_hbond>  (192) 
0

>  <r_i_glide_metal>  (192) 
-0

>  <r_i_glide_rewards>  (192) 
0

>  <r_i_glide_evdw>  (192) 
-34.1727

>  <r_i_glide_ecoul>  (192) 
-8.99331

>  <r_i_glide_erotb>  (192) 
0.0176348

>  <r_i_glide_esite>  (192) 
-0.00199732

>  <r_i_glide_emodel>  (192) 
-48.8385

>  <r_i_glide_energy>  (192) 
-43.1661

>  <r_i_glide_einternal>  (192) 
6.64523

>  <r_i_glide_intrahb_reward>  (192) 
-0

>  <i_i_glide_confnum>  (192) 
6

>  <i_i_glide_posenum>  (192) 
10

>  <r_i_glide_eff_state_penalty>  (192) 
0

>  <ligand_id>  (192) 
49

>  <original_smiles>  (192) 
CC1C(O)CC2C1C1(O)CCC3(C)C(C)CCC3C3CC1(O)C1(OC4COCCC4(C)O)CC(OC4OCC(O)C(O)C4O)CC3C21C

>  <smiles>  (192) 
[H]OC1([H])C([H])([H])OC([H])(OC2([H])C([H])([H])C3([H])C4([H])C([H])([H])C5(O[H])C(O[H])(C([H])([H])C([H])([H])C6(C([H])([H])[H])C([H])(C([H])([H])[H])C([H])([H])C([H])([H])C46[H])C4([H])C([H])(C([H])([H])[H])C([H])(O[H])C([H])([H])C4([H])C3(C([H])([H])[H])C5(OC3([H])C([H])([H])OC([H])([H])C([H])([H])C3(O[H])C([H])([H])[H])C2([H])[H])C([H])(O[H])C1([H])O[H]

$$$$
49:0:2
     RDKit          3D

108115  0  0  1  0  0  0  0  0999 V2000
    3.8614   -8.1824    8.8388 C   0  0  0  0  0  0  0  0  0  0  0  0
    3.7464   -7.6990    7.3799 C   0  0  2  0  0  0  0  0  0  0  0  0
    5.1228   -7.2407    6.8376 C   0  0  1  0  0  0  0  0  0  0  0  0
    5.7913   -8.2482    6.1036 O   0  0  0  0  0  0  0  0  0  0  0  0
    4.8934   -5.9596    6.0194 C   0  0  0  0  0  0  0  0  0  0  0  0
    3.6728   -5.3217    6.6973 C   0  0  2  0  0  0  0  0  0  0  0  0
    2.7887   -6.4764    7.2069 C   0  0  1  0  0  0  0  0  0  0  0  0
    1.4066   -6.6486    6.4808 C   0  0  2  0  0  0  0  0  0  0  0  0
    0.5971   -7.2027    7.5160 O   0  0  0  0  0  0  0  0  0  0  0  0
    1.3008   -7.8116    5.4372 C   0  0  0  0  0  0  0  0  0  0  0  0
    2.4308   -8.0088    4.3959 C   0  0  0  0  0  0  0  0  0  0  0  0
    2.3032   -7.5131    2.9385 C   0  0  2  0  0  0  0  0  0  0  0  0
    0.9975   -8.0557    2.2990 C   0  0  0  0  0  0  0  0  0  0  0  0
    3.5510   -8.0713    2.1708 C   0  0  1  0  0  0  0  0  0  0  0  0
    3.4167   -9.4438    1.4784 C   0  0  0  0  0  0  0  0  0  0  0  0
    4.0342   -6.9690    1.2317 C   0  0  0  0  0  0  0  0  0  0  0  0
    3.7910   -5.7077    2.0393 C   0  0  0  0  0  0  0  0  0  0  0  0
    2.4342   -5.9684    2.7151 C   0  0  2  0  0  0  0  0  0  0  0  0
    1.9649   -4.8970    3.7558 C   0  0  1  0  0  0  0  0  0  0  0  0
    0.6306   -5.1449    4.4859 C   0  0  0  0  0  0  0  0  0  0  0  0
    0.7567   -5.2538    6.0218 C   0  0  1  0  0  0  0  0  0  0  0  0
   -0.6038   -5.2170    6.4203 O   0  0  0  0  0  0  0  0  0  0  0  0
    1.4765   -3.9434    6.5199 C   0  0  2  0  0  0  0  0  0  0  0  0
    1.5029   -3.9179    7.9774 O   0  0  0  0  0  0  0  0  0  0  0  0
    0.5125   -3.2863    8.8187 C   0  0  2  0  0  0  0  0  0  0  0  0
    0.8058   -1.7561    9.0592 C   0  0  0  0  0  0  0  0  0  0  0  0
   -0.2040   -1.2035    9.8652 O   0  0  0  0  0  0  0  0  0  0  0  0
   -0.2213   -1.6550   11.1770 C   0  0  0  0  0  0  0  0  0  0  0  0
   -0.5400   -3.1600   11.1459 C   0  0  0  0  0  0  0  0  0  0  0  0
    0.4303   -3.9632   10.2293 C   0  0  1  0  0  0  0  0  0  0  0  0
   -0.0368   -5.4256   10.2024 C   0  0  0  0  0  0  0  0  0  0  0  0
    1.6891   -3.9571   10.8873 O   0  0  0  0  0  0  0  0  0  0  0  0
    0.8785   -2.5793    5.9274 C   0  0  0  0  0  0  0  0  0  0  0  0
    1.3716   -1.9599    4.5783 C   0  0  1  0  0  0  0  0  0  0  0  0
    1.5747   -0.5555    4.8276 O   0  0  0  0  0  0  0  0  0  0  0  0
    0.5462    0.3135    4.4478 C   0  0  2  0  0  0  0  0  0  0  0  0
    0.8015    0.7528    3.1415 O   0  0  0  0  0  0  0  0  0  0  0  0
   -0.2037    1.5858    2.5737 C   0  0  0  0  0  0  0  0  0  0  0  0
   -0.3515    2.8763    3.3971 C   0  0  1  0  0  0  0  0  0  0  0  0
   -1.3744    3.7034    2.8609 O   0  0  0  0  0  0  0  0  0  0  0  0
   -0.5893    2.5268    4.8772 C   0  0  1  0  0  0  0  0  0  0  0  0
   -1.8828    1.9542    5.0270 O   0  0  0  0  0  0  0  0  0  0  0  0
    0.5036    1.5415    5.3808 C   0  0  1  0  0  0  0  0  0  0  0  0
    0.1582    1.1722    6.7141 O   0  0  0  0  0  0  0  0  0  0  0  0
    2.7239   -2.4943    4.0779 C   0  0  0  0  0  0  0  0  0  0  0  0
    2.9858   -3.9669    4.5206 C   0  0  1  0  0  0  0  0  0  0  0  0
    2.9736   -4.0424    6.0973 C   0  0  2  0  0  0  0  0  0  0  0  0
    3.7823   -2.8531    6.7225 C   0  0  0  0  0  0  0  0  0  0  0  0
    4.2649   -7.4078    9.4951 H   0  0  0  0  0  0  0  0  0  0  0  0
    4.5321   -9.0401    8.9035 H   0  0  0  0  0  0  0  0  0  0  0  0
    2.8997   -8.4915    9.2455 H   0  0  0  0  0  0  0  0  0  0  0  0
    3.3717   -8.5517    6.8172 H   0  0  0  0  0  0  0  0  0  0  0  0
    5.7725   -6.9764    7.6840 H   0  0  0  0  0  0  0  0  0  0  0  0
    5.2645   -8.5344    5.3625 H   0  0  0  0  0  0  0  0  0  0  0  0
    5.7661   -5.3120    6.0542 H   0  0  0  0  0  0  0  0  0  0  0  0
    4.7090   -6.1577    4.9629 H   0  0  0  0  0  0  0  0  0  0  0  0
    4.1321   -4.9914    7.6397 H   0  0  0  0  0  0  0  0  0  0  0  0
    2.5500   -6.1567    8.2172 H   0  0  0  0  0  0  0  0  0  0  0  0
    0.9891   -8.0224    7.7837 H   0  0  0  0  0  0  0  0  0  0  0  0
    1.2927   -8.7541    5.9917 H   0  0  0  0  0  0  0  0  0  0  0  0
    0.3182   -7.8255    4.9789 H   0  0  0  0  0  0  0  0  0  0  0  0
    3.3665   -7.6736    4.7953 H   0  0  0  0  0  0  0  0  0  0  0  0
    2.5578   -9.0896    4.3309 H   0  0  0  0  0  0  0  0  0  0  0  0
    0.9820   -7.8913    1.2211 H   0  0  0  0  0  0  0  0  0  0  0  0
    0.0992   -7.5937    2.6984 H   0  0  0  0  0  0  0  0  0  0  0  0
    0.8881   -9.1285    2.4583 H   0  0  0  0  0  0  0  0  0  0  0  0
    4.3604   -8.1916    2.8910 H   0  0  0  0  0  0  0  0  0  0  0  0
    2.7074   -9.4371    0.6508 H   0  0  0  0  0  0  0  0  0  0  0  0
    3.1027  -10.2207    2.1755 H   0  0  0  0  0  0  0  0  0  0  0  0
    4.3739   -9.7615    1.0647 H   0  0  0  0  0  0  0  0  0  0  0  0
    5.0800   -7.0908    0.9406 H   0  0  0  0  0  0  0  0  0  0  0  0
    3.4337   -6.9442    0.3260 H   0  0  0  0  0  0  0  0  0  0  0  0
    4.5970   -5.6200    2.7637 H   0  0  0  0  0  0  0  0  0  0  0  0
    3.7922   -4.8087    1.4167 H   0  0  0  0  0  0  0  0  0  0  0  0
    1.7515   -5.8057    1.8766 H   0  0  0  0  0  0  0  0  0  0  0  0
    1.5948   -4.2084    3.0032 H   0  0  0  0  0  0  0  0  0  0  0  0
   -0.0434   -4.3171    4.2510 H   0  0  0  0  0  0  0  0  0  0  0  0
    0.0799   -5.9649    4.0534 H   0  0  0  0  0  0  0  0  0  0  0  0
   -0.9485   -4.3837    6.1541 H   0  0  0  0  0  0  0  0  0  0  0  0
   -0.4663   -3.4106    8.3503 H   0  0  0  0  0  0  0  0  0  0  0  0
    1.8142   -1.6475    9.4891 H   0  0  0  0  0  0  0  0  0  0  0  0
    0.6710   -1.0800    8.2380 H   0  0  0  0  0  0  0  0  0  0  0  0
    0.7528   -1.4381   11.6204 H   0  0  0  0  0  0  0  0  0  0  0  0
   -0.9842   -1.0802   11.7044 H   0  0  0  0  0  0  0  0  0  0  0  0
   -0.5282   -3.5210   12.1776 H   0  0  0  0  0  0  0  0  0  0  0  0
   -1.5625   -3.2813   10.7926 H   0  0  0  0  0  0  0  0  0  0  0  0
   -0.9823   -5.5011    9.6638 H   0  0  0  0  0  0  0  0  0  0  0  0
   -0.1862   -5.8364   11.2142 H   0  0  0  0  0  0  0  0  0  0  0  0
    0.7053   -6.0497    9.7124 H   0  0  0  0  0  0  0  0  0  0  0  0
    1.9824   -3.0568   10.9711 H   0  0  0  0  0  0  0  0  0  0  0  0
   -0.2146   -2.5980    5.9393 H   0  0  0  0  0  0  0  0  0  0  0  0
    1.2148   -1.8293    6.6154 H   0  0  0  0  0  0  0  0  0  0  0  0
    0.6459   -2.1227    3.7657 H   0  0  0  0  0  0  0  0  0  0  0  0
   -0.4068   -0.2038    4.4678 H   0  0  0  0  0  0  0  0  0  0  0  0
    0.0679    1.8186    1.5407 H   0  0  0  0  0  0  0  0  0  0  0  0
   -1.1405    1.0396    2.5247 H   0  0  0  0  0  0  0  0  0  0  0  0
    0.5780    3.4450    3.3167 H   0  0  0  0  0  0  0  0  0  0  0  0
   -1.0646    4.0003    2.0228 H   0  0  0  0  0  0  0  0  0  0  0  0
   -0.5699    3.4447    5.4655 H   0  0  0  0  0  0  0  0  0  0  0  0
   -2.0345    1.3684    4.2920 H   0  0  0  0  0  0  0  0  0  0  0  0
    1.4855    2.0382    5.3732 H   0  0  0  0  0  0  0  0  0  0  0  0
    0.2081    1.9447    7.2707 H   0  0  0  0  0  0  0  0  0  0  0  0
    2.7522   -2.3903    2.9865 H   0  0  0  0  0  0  0  0  0  0  0  0
    3.5596   -1.8580    4.3954 H   0  0  0  0  0  0  0  0  0  0  0  0
    3.9945   -4.1628    4.1897 H   0  0  0  0  0  0  0  0  0  0  0  0
    3.3612   -1.8723    6.5504 H   0  0  0  0  0  0  0  0  0  0  0  0
    4.7996   -2.8245    6.3325 H   0  0  0  0  0  0  0  0  0  0  0  0
    3.8599   -2.9068    7.8118 H   0  0  0  0  0  0  0  0  0  0  0  0
  1  2  1  0
  1 49  1  0
  1 50  1  0
  1 51  1  0
  2  7  1  0
  2  3  1  0
  2 52  1  6
  3  4  1  0
  3  5  1  0
  3 53  1  1
  4 54  1  0
  5  6  1  0
  5 55  1  0
  5 56  1  0
  6 47  1  0
  6  7  1  0
  6 57  1  1
  7  8  1  0
  7 58  1  1
  8 21  1  0
  8  9  1  1
  8 10  1  0
  9 59  1  0
 10 11  1  0
 10 60  1  0
 10 61  1  0
 11 12  1  0
 11 62  1  0
 11 63  1  0
 12 18  1  0
 12 13  1  6
 12 14  1  0
 13 64  1  0
 13 65  1  0
 13 66  1  0
 14 15  1  0
 14 16  1  0
 14 67  1  1
 15 68  1  0
 15 69  1  0
 15 70  1  0
 16 17  1  0
 16 71  1  0
 16 72  1  0
 17 18  1  0
 17 73  1  0
 17 74  1  0
 18 19  1  0
 18 75  1  6
 19 46  1  0
 19 20  1  0
 19 76  1  6
 20 21  1  0
 20 77  1  0
 20 78  1  0
 21 22  1  1
 21 23  1  0
 22 79  1  0
 23 47  1  0
 23 24  1  1
 23 33  1  0
 24 25  1  0
 25 30  1  0
 25 26  1  0
 25 80  1  6
 26 27  1  0
 26 81  1  0
 26 82  1  0
 27 28  1  0
 28 29  1  0
 28 83  1  0
 28 84  1  0
 29 30  1  0
 29 85  1  0
 29 86  1  0
 30 31  1  0
 30 32  1  1
 31 87  1  0
 31 88  1  0
 31 89  1  0
 32 90  1  0
 33 34  1  0
 33 91  1  0
 33 92  1  0
 34 35  1  0
 34 45  1  0
 34 93  1  6
 35 36  1  0
 36 43  1  0
 36 37  1  0
 36 94  1  6
 37 38  1  0
 38 39  1  0
 38 95  1  0
 38 96  1  0
 39 40  1  0
 39 41  1  0
 39 97  1  1
 40 98  1  0
 41 42  1  0
 41 43  1  0
 41 99  1  1
 42100  1  0
 43 44  1  0
 43101  1  1
 44102  1  0
 45 46  1  0
 45103  1  0
 45104  1  0
 46 47  1  0
 46105  1  6
 47 48  1  1
 48106  1  0
 48107  1  0
 48108  1  0
M  END
>  <i_m_ct_stereo_status>  (193) 
1

>  <s_m_source_file>  (193) 
/var/tmp/pbs.5076255.sched01/tmpuxvxg9lz/41q4u19exn.sdf

>  <i_m_source_file_index>  (193) 
37

>  <i_lp_mmshare_version>  (193) 
48012

>  <i_f3d_flags>  (193) 
0

>  <s_epik_input>  (193) 
W0NIM11bQ0BASF0xW0NAQEhdKFtPSF0pW0NIMl1bQ0BIXShbQ0BIXTFbQ0BdMjNbT0hdKVtDQF00KFtDSDNdKVtDQF01KE9bQ0BASF0oW0NAQF02KFtDSDNdKVtPSF0pW0NIMl1PW0NIMl1bQ0gyXTYpW0NAQF0zKFtPSF0pW0NIMl1bQ0BIXShbQ0BASF03W0NAXShbQ0gzXSkoW0NIMl1bQ0gyXTIpW0NAQEhdKFtDSDNdKVtDSDJdW0NIMl03KVtDQEhdNFtDSDJdW0NAQEhdKFtDSDJdNSlPW0NAQEhdOE9bQ0gyXVtDQEBIXShbT0hdKVtDQEBIXShbT0hdKVtDQEhdOFtPSF0=

>  <s_epik_cmdline>  (193) 
J2VwaWtfcHl0aG9uJywgJy1waHQnLCAnMi4wJywgJy1waCcsICc3LjAnLCAnLXRuJywgJzgnLCAnLW1hJywgJzIwMCcsICctaW1hZScsICc8aW5maWxlLm1hZT4nLCAnLW9tYWUnLCAnPG91dGZpbGUubWFlPic=

>  <r_lp_tautomer_probability>  (193) 
1

>  <r_epik_Ionization_Penalty>  (193) 
4.01047e-06

>  <r_epik_Ionization_Penalty_Charging>  (193) 
0

>  <r_epik_Ionization_Penalty_Neutral>  (193) 
4.01047e-06

>  <r_epik_State_Penalty>  (193) 
-0

>  <r_epik_Charging_Adjusted_Penalty>  (193) 
0

>  <i_epik_Tot_Q>  (193) 
0

>  <i_epik_Tot_abs_Q>  (193) 
0

>  <s_epik_Chemistry_Notes>  (193) 
This compound contains an acetal/aminal-like group ( X-CH(R)-Y where X, Y are N, S, or O) that may be acid/base labile, releasing an aldehyde.

>  <s_lp_Force_Field>  (193) 
OPLS3e

>  <r_lp_Energy>  (193) 
155.119

>  <b_lp_Chiralities_Consistent>  (193) 
1

>  <s_lp_Variant>  (193) 
49:0-1

>  <s_i_glide_gridfile>  (193) 
pfpi4k_grid

>  <i_i_glide_lignum>  (193) 
37

>  <i_i_glide_rotatable_bonds>  (193) 
11

>  <r_i_docking_score>  (193) 
-3.10968

>  <r_i_glide_ligand_efficiency>  (193) 
-0.064785

>  <r_i_glide_ligand_efficiency_sa>  (193) 
-0.235444

>  <r_i_glide_ligand_efficiency_ln>  (193) 
-0.638381

>  <r_i_glide_gscore>  (193) 
-3.10968

>  <r_i_glide_lipo>  (193) 
-0.102103

>  <r_i_glide_hbond>  (193) 
-0.118899

>  <r_i_glide_metal>  (193) 
-0

>  <r_i_glide_rewards>  (193) 
0

>  <r_i_glide_evdw>  (193) 
-30.9732

>  <r_i_glide_ecoul>  (193) 
-9.00433

>  <r_i_glide_erotb>  (193) 
0.0176348

>  <r_i_glide_esite>  (193) 
-0.00700488

>  <r_i_glide_emodel>  (193) 
-46.1152

>  <r_i_glide_energy>  (193) 
-39.9775

>  <r_i_glide_einternal>  (193) 
3.62589

>  <r_i_glide_intrahb_reward>  (193) 
-0

>  <i_i_glide_confnum>  (193) 
5

>  <i_i_glide_posenum>  (193) 
11

>  <r_i_glide_eff_state_penalty>  (193) 
0

>  <ligand_id>  (193) 
49

>  <original_smiles>  (193) 
CC1C(O)CC2C1C1(O)CCC3(C)C(C)CCC3C3CC1(O)C1(OC4COCCC4(C)O)CC(OC4OCC(O)C(O)C4O)CC3C21C

>  <smiles>  (193) 
[H]OC1([H])C([H])([H])OC([H])(OC2([H])C([H])([H])C3([H])C4([H])C([H])([H])C5(O[H])C(O[H])(C([H])([H])C([H])([H])C6(C([H])([H])[H])C([H])(C([H])([H])[H])C([H])([H])C([H])([H])C46[H])C4([H])C([H])(C([H])([H])[H])C([H])(O[H])C([H])([H])C4([H])C3(C([H])([H])[H])C5(OC3([H])C([H])([H])OC([H])([H])C([H])([H])C3(O[H])C([H])([H])[H])C2([H])[H])C([H])(O[H])C1([H])O[H]

$$$$
50:0:0
     RDKit          3D

 46 48  0  0  1  0  0  0  0  0999 V2000
   -3.0376    3.0249    6.0124 C   0  0  0  0  0  0  0  0  0  0  0  0
   -2.5067    2.9168    4.5763 C   0  0  0  0  0  0  0  0  0  0  0  0
   -1.0876    2.5669    4.5438 N   0  0  0  0  0  0  0  0  0  0  0  0
   -0.7966    1.1734    4.1891 C   0  0  0  0  0  0  0  0  0  0  0  0
    0.6496    0.9779    3.7108 C   0  0  0  0  0  0  0  0  0  0  0  0
    1.0092   -0.5268    3.6449 C   0  0  0  0  0  0  0  0  0  0  0  0
    2.4266   -0.7672    3.0843 C   0  0  0  0  0  0  0  0  0  0  0  0
    2.5627   -0.1561    1.7640 N   0  0  0  0  0  0  0  0  0  0  0  0
    3.8878   -0.4040    1.2036 C   0  0  0  0  0  0  0  0  0  0  0  0
    3.9619   -1.6882    0.4285 C   0  0  0  0  0  0  0  0  0  0  0  0
    3.0191   -2.1222   -0.4230 N   0  0  0  0  0  0  0  0  0  0  0  0
    3.4196   -3.2963   -0.9993 C   0  0  0  0  0  0  0  0  0  0  0  0
    4.6445   -3.5924   -0.4748 C   0  0  0  0  0  0  0  0  0  0  0  0
    4.9557   -2.5760    0.4023 N   0  0  0  0  0  0  0  0  0  0  0  0
    6.1969   -2.4824    1.1981 C   0  0  0  0  0  0  0  0  0  0  0  0
    2.3318    1.2829    1.8682 C   0  0  0  0  0  0  0  0  0  0  0  0
    0.8903    1.5717    2.3071 C   0  0  0  0  0  0  0  0  0  0  0  0
    1.4770    1.6041    4.6975 O   0  0  0  0  0  0  0  0  0  0  0  0
    1.3439    3.0268    4.8069 C   0  0  0  0  0  0  0  0  0  0  0  0
   -0.1286    3.4645    4.8793 C   0  0  0  0  0  0  0  0  0  0  0  0
   -0.3929    4.6222    5.2100 O   0  0  0  0  0  0  0  0  0  0  0  0
   -4.0929    3.2917    6.0024 H   0  0  0  0  0  0  0  0  0  0  0  0
   -2.5074    3.7868    6.5787 H   0  0  0  0  0  0  0  0  0  0  0  0
   -2.9324    2.0850    6.5524 H   0  0  0  0  0  0  0  0  0  0  0  0
   -3.1032    2.1935    4.0216 H   0  0  0  0  0  0  0  0  0  0  0  0
   -2.6567    3.8543    4.0454 H   0  0  0  0  0  0  0  0  0  0  0  0
   -0.9986    0.5394    5.0540 H   0  0  0  0  0  0  0  0  0  0  0  0
   -1.4718    0.8207    3.4088 H   0  0  0  0  0  0  0  0  0  0  0  0
    0.9354   -0.9892    4.6289 H   0  0  0  0  0  0  0  0  0  0  0  0
    0.2956   -1.0488    3.0057 H   0  0  0  0  0  0  0  0  0  0  0  0
    3.1682   -0.3417    3.7663 H   0  0  0  0  0  0  0  0  0  0  0  0
    2.6275   -1.8392    3.0081 H   0  0  0  0  0  0  0  0  0  0  0  0
    4.1902    0.3732    0.4983 H   0  0  0  0  0  0  0  0  0  0  0  0
    4.6482   -0.4442    1.9917 H   0  0  0  0  0  0  0  0  0  0  0  0
    2.8223   -3.8320   -1.7337 H   0  0  0  0  0  0  0  0  0  0  0  0
    5.3073   -4.4330   -0.6556 H   0  0  0  0  0  0  0  0  0  0  0  0
    6.8348   -3.3364    0.9617 H   0  0  0  0  0  0  0  0  0  0  0  0
    5.9378   -2.5074    2.2587 H   0  0  0  0  0  0  0  0  0  0  0  0
    6.7190   -1.5554    0.9504 H   0  0  0  0  0  0  0  0  0  0  0  0
    3.0627    1.7534    2.5279 H   0  0  0  0  0  0  0  0  0  0  0  0
    2.4726    1.7187    0.8914 H   0  0  0  0  0  0  0  0  0  0  0  0
    0.1987    1.1302    1.5761 H   0  0  0  0  0  0  0  0  0  0  0  0
    0.7287    2.6528    2.2867 H   0  0  0  0  0  0  0  0  0  0  0  0
    1.8797    3.3829    5.6921 H   0  0  0  0  0  0  0  0  0  0  0  0
    1.7967    3.5039    3.9365 H   0  0  0  0  0  0  0  0  0  0  0  0
    2.1106   -1.6250   -0.6084 H   0  0  0  0  0  0  0  0  0  0  0  0
  1  2  1  0
  1 22  1  0
  1 23  1  0
  1 24  1  0
  2  3  1  0
  2 25  1  0
  2 26  1  0
  3 20  1  0
  3  4  1  0
  4  5  1  0
  4 27  1  0
  4 28  1  0
  5 17  1  0
  5  6  1  0
  5 18  1  0
  6  7  1  0
  6 29  1  0
  6 30  1  0
  7  8  1  0
  7 31  1  0
  7 32  1  0
  8  9  1  0
  8 16  1  0
  9 10  1  0
  9 33  1  0
  9 34  1  0
 10 14  1  0
 10 11  2  0
 11 12  1  0
 11 46  1  0
 12 13  2  0
 12 35  1  0
 13 14  1  0
 13 36  1  0
 14 15  1  0
 15 37  1  0
 15 38  1  0
 15 39  1  0
 16 17  1  0
 16 40  1  0
 16 41  1  0
 17 42  1  0
 17 43  1  0
 18 19  1  0
 19 20  1  0
 19 44  1  0
 19 45  1  0
 20 21  2  0
M  CHG  1  11   1
M  END
>  <i_m_ct_stereo_status>  (194) 
1

>  <s_m_source_file>  (194) 
/var/tmp/pbs.5076255.sched01/tmpuxvxg9lz/41q4u19exn.sdf

>  <i_m_source_file_index>  (194) 
38

>  <i_lp_mmshare_version>  (194) 
48012

>  <i_f3d_flags>  (194) 
0

>  <s_epik_input>  (194) 
TzFbQ0gyXUMoPU8pTihbQ0gyXVtDSDNdKVtDSDJdQzEyW0NIMl1bQ0gyXU4oW0NIMl1bQ0gyXTIpW0NIMl1jM25bY0hdW2NIXW4zW0NIM10=

>  <s_epik_cmdline>  (194) 
J2VwaWtfcHl0aG9uJywgJy1waHQnLCAnMi4wJywgJy1waCcsICc3LjAnLCAnLXRuJywgJzgnLCAnLW1hJywgJzIwMCcsICctaW1hZScsICc8aW5maWxlLm1hZT4nLCAnLW9tYWUnLCAnPG91dGZpbGUubWFlPic=

>  <r_lp_tautomer_probability>  (194) 
1

>  <r_epik_Ionization_Penalty>  (194) 
0.0507827

>  <r_epik_Ionization_Penalty_Charging>  (194) 
0

>  <r_epik_Ionization_Penalty_Neutral>  (194) 
0.0507827

>  <r_epik_State_Penalty>  (194) 
0.127897

>  <r_epik_Charging_Adjusted_Penalty>  (194) 
0.127897

>  <i_epik_Tot_Q>  (194) 
1

>  <i_epik_Tot_abs_Q>  (194) 
1

>  <s_lp_Force_Field>  (194) 
OPLS3e

>  <r_lp_Energy>  (194) 
35.6225

>  <b_lp_Chiralities_Consistent>  (194) 
1

>  <s_lp_Variant>  (194) 
50:0-1

>  <s_i_glide_gridfile>  (194) 
pfpi4k_grid

>  <i_i_glide_lignum>  (194) 
38

>  <i_i_glide_rotatable_bonds>  (194) 
3

>  <r_i_docking_score>  (194) 
-3.87725

>  <r_i_glide_ligand_efficiency>  (194) 
-0.184631

>  <r_i_glide_ligand_efficiency_sa>  (194) 
-0.509383

>  <r_i_glide_ligand_efficiency_ln>  (194) 
-0.958642

>  <r_i_glide_gscore>  (194) 
-3.87725

>  <r_i_glide_lipo>  (194) 
-0.323758

>  <r_i_glide_hbond>  (194) 
-0.2

>  <r_i_glide_metal>  (194) 
-0

>  <r_i_glide_rewards>  (194) 
-1.43409

>  <r_i_glide_evdw>  (194) 
-18.408

>  <r_i_glide_ecoul>  (194) 
-8.43311

>  <r_i_glide_erotb>  (194) 
0.424562

>  <r_i_glide_esite>  (194) 
-0.158598

>  <r_i_glide_emodel>  (194) 
-35.1708

>  <r_i_glide_energy>  (194) 
-26.8411

>  <r_i_glide_einternal>  (194) 
2.60248

>  <r_i_glide_intrahb_reward>  (194) 
-0

>  <i_i_glide_confnum>  (194) 
2

>  <i_i_glide_posenum>  (194) 
19

>  <r_i_glide_eff_state_penalty>  (194) 
0

>  <ligand_id>  (194) 
50

>  <original_smiles>  (194) 
CCN1CC2(CCN(Cc3nccn3C)CC2)OCC1=O

>  <smiles>  (194) 
[H]c1c([H])[n+]([H])c(C([H])([H])N2C([H])([H])C([H])([H])C3(OC([H])([H])C(=O)N(C([H])([H])C([H])([H])[H])C3([H])[H])C([H])([H])C2([H])[H])n1C([H])([H])[H]

$$$$
50:0:1
     RDKit          3D

 46 48  0  0  1  0  0  0  0  0999 V2000
    4.5724   -1.2833   -2.0771 C   0  0  0  0  0  0  0  0  0  0  0  0
    4.3669   -1.6679   -0.6038 C   0  0  0  0  0  0  0  0  0  0  0  0
    5.0682   -2.9087   -0.2549 N   0  0  0  0  0  0  0  0  0  0  0  0
    4.2317   -4.1127   -0.2008 C   0  0  0  0  0  0  0  0  0  0  0  0
    4.8759   -5.2570    0.6035 C   0  0  0  0  0  0  0  0  0  0  0  0
    4.8425   -4.9971    2.1298 C   0  0  0  0  0  0  0  0  0  0  0  0
    5.4290   -6.1967    2.8932 C   0  0  0  0  0  0  0  0  0  0  0  0
    4.6354   -7.3994    2.6348 N   0  0  0  0  0  0  0  0  0  0  0  0
    5.1325   -8.5087    3.4490 C   0  0  0  0  0  0  0  0  0  0  0  0
    4.1086   -9.5855    3.6915 C   0  0  0  0  0  0  0  0  0  0  0  0
    3.8061  -10.5968    2.8633 N   0  0  0  0  0  0  0  0  0  0  0  0
    2.8257  -11.3824    3.4079 C   0  0  0  0  0  0  0  0  0  0  0  0
    2.5226  -10.8408    4.6319 C   0  0  0  0  0  0  0  0  0  0  0  0
    3.3281   -9.7349    4.7839 N   0  0  0  0  0  0  0  0  0  0  0  0
    3.3478   -8.8439    5.9528 C   0  0  0  0  0  0  0  0  0  0  0  0
    4.7157   -7.7354    1.2076 C   0  0  0  0  0  0  0  0  0  0  0  0
    4.1516   -6.5950    0.3414 C   0  0  0  0  0  0  0  0  0  0  0  0
    6.2112   -5.3890    0.1174 O   0  0  0  0  0  0  0  0  0  0  0  0
    7.0686   -4.2656    0.3387 C   0  0  0  0  0  0  0  0  0  0  0  0
    6.4117   -2.9365   -0.0723 C   0  0  0  0  0  0  0  0  0  0  0  0
    7.1191   -1.9375   -0.1903 O   0  0  0  0  0  0  0  0  0  0  0  0
    4.1013   -0.3249   -2.3028 H   0  0  0  0  0  0  0  0  0  0  0  0
    4.1471   -2.0355   -2.7393 H   0  0  0  0  0  0  0  0  0  0  0  0
    5.6275   -1.1946   -2.3123 H   0  0  0  0  0  0  0  0  0  0  0  0
    4.7152   -0.8601    0.0411 H   0  0  0  0  0  0  0  0  0  0  0  0
    3.2975   -1.7412   -0.3989 H   0  0  0  0  0  0  0  0  0  0  0  0
    3.2533   -3.8896    0.2260 H   0  0  0  0  0  0  0  0  0  0  0  0
    4.0267   -4.4391   -1.2223 H   0  0  0  0  0  0  0  0  0  0  0  0
    5.3866   -4.0916    2.4046 H   0  0  0  0  0  0  0  0  0  0  0  0
    3.8109   -4.8348    2.4560 H   0  0  0  0  0  0  0  0  0  0  0  0
    6.4750   -6.3622    2.6233 H   0  0  0  0  0  0  0  0  0  0  0  0
    5.4123   -5.9663    3.9591 H   0  0  0  0  0  0  0  0  0  0  0  0
    5.9931   -8.9818    2.9749 H   0  0  0  0  0  0  0  0  0  0  0  0
    5.4520   -8.1656    4.4330 H   0  0  0  0  0  0  0  0  0  0  0  0
    2.4299  -12.2439    2.8967 H   0  0  0  0  0  0  0  0  0  0  0  0
    1.8096  -11.1547    5.3873 H   0  0  0  0  0  0  0  0  0  0  0  0
    2.6368   -9.2308    6.6898 H   0  0  0  0  0  0  0  0  0  0  0  0
    3.0488   -7.8378    5.6427 H   0  0  0  0  0  0  0  0  0  0  0  0
    4.3523   -8.8352    6.3872 H   0  0  0  0  0  0  0  0  0  0  0  0
    5.7531   -7.9294    0.9257 H   0  0  0  0  0  0  0  0  0  0  0  0
    4.1591   -8.6501    1.0018 H   0  0  0  0  0  0  0  0  0  0  0  0
    3.0858   -6.4957    0.5516 H   0  0  0  0  0  0  0  0  0  0  0  0
    4.2241   -6.8731   -0.7113 H   0  0  0  0  0  0  0  0  0  0  0  0
    7.3505   -4.2132    1.3931 H   0  0  0  0  0  0  0  0  0  0  0  0
    8.0008   -4.4021   -0.2168 H   0  0  0  0  0  0  0  0  0  0  0  0
    4.2205  -10.7647    1.9480 H   0  0  0  0  0  0  0  0  0  0  0  0
  1  2  1  0
  1 22  1  0
  1 23  1  0
  1 24  1  0
  2  3  1  0
  2 25  1  0
  2 26  1  0
  3 20  1  0
  3  4  1  0
  4  5  1  0
  4 27  1  0
  4 28  1  0
  5 17  1  0
  5  6  1  0
  5 18  1  0
  6  7  1  0
  6 29  1  0
  6 30  1  0
  7  8  1  0
  7 31  1  0
  7 32  1  0
  8  9  1  0
  8 16  1  0
  9 10  1  0
  9 33  1  0
  9 34  1  0
 10 14  1  0
 10 11  2  0
 11 12  1  0
 11 46  1  0
 12 13  2  0
 12 35  1  0
 13 14  1  0
 13 36  1  0
 14 15  1  0
 15 37  1  0
 15 38  1  0
 15 39  1  0
 16 17  1  0
 16 40  1  0
 16 41  1  0
 17 42  1  0
 17 43  1  0
 18 19  1  0
 19 20  1  0
 19 44  1  0
 19 45  1  0
 20 21  2  0
M  CHG  1  11   1
M  END
>  <i_m_ct_stereo_status>  (195) 
1

>  <s_m_source_file>  (195) 
/var/tmp/pbs.5076255.sched01/tmpuxvxg9lz/41q4u19exn.sdf

>  <i_m_source_file_index>  (195) 
38

>  <i_lp_mmshare_version>  (195) 
48012

>  <i_f3d_flags>  (195) 
0

>  <s_epik_input>  (195) 
TzFbQ0gyXUMoPU8pTihbQ0gyXVtDSDNdKVtDSDJdQzEyW0NIMl1bQ0gyXU4oW0NIMl1bQ0gyXTIpW0NIMl1jM25bY0hdW2NIXW4zW0NIM10=

>  <s_epik_cmdline>  (195) 
J2VwaWtfcHl0aG9uJywgJy1waHQnLCAnMi4wJywgJy1waCcsICc3LjAnLCAnLXRuJywgJzgnLCAnLW1hJywgJzIwMCcsICctaW1hZScsICc8aW5maWxlLm1hZT4nLCAnLW9tYWUnLCAnPG91dGZpbGUubWFlPic=

>  <r_lp_tautomer_probability>  (195) 
1

>  <r_epik_Ionization_Penalty>  (195) 
0.0507827

>  <r_epik_Ionization_Penalty_Charging>  (195) 
0

>  <r_epik_Ionization_Penalty_Neutral>  (195) 
0.0507827

>  <r_epik_State_Penalty>  (195) 
0.127897

>  <r_epik_Charging_Adjusted_Penalty>  (195) 
0.127897

>  <i_epik_Tot_Q>  (195) 
1

>  <i_epik_Tot_abs_Q>  (195) 
1

>  <s_lp_Force_Field>  (195) 
OPLS3e

>  <r_lp_Energy>  (195) 
35.6225

>  <b_lp_Chiralities_Consistent>  (195) 
1

>  <s_lp_Variant>  (195) 
50:0-1

>  <s_i_glide_gridfile>  (195) 
pfpi4k_grid

>  <i_i_glide_lignum>  (195) 
38

>  <i_i_glide_rotatable_bonds>  (195) 
3

>  <r_i_docking_score>  (195) 
-3.82809

>  <r_i_glide_ligand_efficiency>  (195) 
-0.18229

>  <r_i_glide_ligand_efficiency_sa>  (195) 
-0.502924

>  <r_i_glide_ligand_efficiency_ln>  (195) 
-0.946488

>  <r_i_glide_gscore>  (195) 
-3.82809

>  <r_i_glide_lipo>  (195) 
-0.434835

>  <r_i_glide_hbond>  (195) 
-0.248952

>  <r_i_glide_metal>  (195) 
-0

>  <r_i_glide_rewards>  (195) 
-1.50991

>  <r_i_glide_evdw>  (195) 
-18.459

>  <r_i_glide_ecoul>  (195) 
-7.01467

>  <r_i_glide_erotb>  (195) 
0.424562

>  <r_i_glide_esite>  (195) 
-0.0838096

>  <r_i_glide_emodel>  (195) 
-33.91

>  <r_i_glide_energy>  (195) 
-25.4737

>  <r_i_glide_einternal>  (195) 
2.39817

>  <r_i_glide_intrahb_reward>  (195) 
-0

>  <i_i_glide_confnum>  (195) 
5

>  <i_i_glide_posenum>  (195) 
32

>  <r_i_glide_eff_state_penalty>  (195) 
0

>  <ligand_id>  (195) 
50

>  <original_smiles>  (195) 
CCN1CC2(CCN(Cc3nccn3C)CC2)OCC1=O

>  <smiles>  (195) 
[H]c1c([H])[n+]([H])c(C([H])([H])N2C([H])([H])C([H])([H])C3(OC([H])([H])C(=O)N(C([H])([H])C([H])([H])[H])C3([H])[H])C([H])([H])C2([H])[H])n1C([H])([H])[H]

$$$$
50:0:2
     RDKit          3D

 46 48  0  0  1  0  0  0  0  0999 V2000
   -2.1979    4.5845    3.0746 C   0  0  0  0  0  0  0  0  0  0  0  0
   -2.4313    3.2402    3.7788 C   0  0  0  0  0  0  0  0  0  0  0  0
   -1.1795    2.5159    4.0080 N   0  0  0  0  0  0  0  0  0  0  0  0
   -0.9723    1.3474    3.1410 C   0  0  0  0  0  0  0  0  0  0  0  0
    0.4992    0.9037    3.0985 C   0  0  0  0  0  0  0  0  0  0  0  0
    0.6396   -0.4939    2.4566 C   0  0  0  0  0  0  0  0  0  0  0  0
    2.0970   -0.9410    2.3117 C   0  0  0  0  0  0  0  0  0  0  0  0
    2.8521    0.0439    1.5308 N   0  0  0  0  0  0  0  0  0  0  0  0
    4.2248   -0.3964    1.3451 C   0  0  0  0  0  0  0  0  0  0  0  0
    4.3728   -1.4860    0.2964 C   0  0  0  0  0  0  0  0  0  0  0  0
    3.4395   -1.8438   -0.5776 N   0  0  0  0  0  0  0  0  0  0  0  0
    3.8965   -2.8386   -1.3877 C   0  0  0  0  0  0  0  0  0  0  0  0
    5.1932   -3.0959   -0.9786 C   0  0  0  0  0  0  0  0  0  0  0  0
    5.4431   -2.2364    0.0605 N   0  0  0  0  0  0  0  0  0  0  0  0
    6.7238   -2.1625    0.8144 C   0  0  0  0  0  0  0  0  0  0  0  0
    2.8139    1.3304    2.2260 C   0  0  0  0  0  0  0  0  0  0  0  0
    1.3811    1.8714    2.2822 C   0  0  0  0  0  0  0  0  0  0  0  0
    0.9246    0.8040    4.4582 O   0  0  0  0  0  0  0  0  0  0  0  0
    0.9647    2.0415    5.1801 C   0  0  0  0  0  0  0  0  0  0  0  0
   -0.3284    2.8484    4.9958 C   0  0  0  0  0  0  0  0  0  0  0  0
   -0.5410    3.8068    5.7574 O   0  0  0  0  0  0  0  0  0  0  0  0
   -3.1287    5.1330    2.9302 H   0  0  0  0  0  0  0  0  0  0  0  0
   -1.7823    4.4381    2.0815 H   0  0  0  0  0  0  0  0  0  0  0  0
   -1.4907    5.1991    3.6221 H   0  0  0  0  0  0  0  0  0  0  0  0
   -2.9318    3.4008    4.7339 H   0  0  0  0  0  0  0  0  0  0  0  0
   -3.1334    2.6449    3.1948 H   0  0  0  0  0  0  0  0  0  0  0  0
   -1.6047    0.5416    3.5124 H   0  0  0  0  0  0  0  0  0  0  0  0
   -1.3220    1.5446    2.1253 H   0  0  0  0  0  0  0  0  0  0  0  0
    0.1045   -1.2461    3.0372 H   0  0  0  0  0  0  0  0  0  0  0  0
    0.2068   -0.4745    1.4561 H   0  0  0  0  0  0  0  0  0  0  0  0
    2.5483   -1.0731    3.2972 H   0  0  0  0  0  0  0  0  0  0  0  0
    2.1233   -1.9125    1.8129 H   0  0  0  0  0  0  0  0  0  0  0  0
    4.8540    0.4198    0.9910 H   0  0  0  0  0  0  0  0  0  0  0  0
    4.6460   -0.7857    2.2736 H   0  0  0  0  0  0  0  0  0  0  0  0
    3.3121   -3.2950   -2.1709 H   0  0  0  0  0  0  0  0  0  0  0  0
    5.9143   -3.8134   -1.3503 H   0  0  0  0  0  0  0  0  0  0  0  0
    7.4236   -2.8752    0.3795 H   0  0  0  0  0  0  0  0  0  0  0  0
    6.5329   -2.4247    1.8564 H   0  0  0  0  0  0  0  0  0  0  0  0
    7.1258   -1.1508    0.7365 H   0  0  0  0  0  0  0  0  0  0  0  0
    3.2544    1.2391    3.2209 H   0  0  0  0  0  0  0  0  0  0  0  0
    3.4130    2.0485    1.6799 H   0  0  0  0  0  0  0  0  0  0  0  0
    0.9841    1.9580    1.2663 H   0  0  0  0  0  0  0  0  0  0  0  0
    1.3898    2.8815    2.7028 H   0  0  0  0  0  0  0  0  0  0  0  0
    1.1305    1.8382    6.2435 H   0  0  0  0  0  0  0  0  0  0  0  0
    1.8112    2.6359    4.8272 H   0  0  0  0  0  0  0  0  0  0  0  0
    2.4768   -1.4235   -0.6315 H   0  0  0  0  0  0  0  0  0  0  0  0
  1  2  1  0
  1 22  1  0
  1 23  1  0
  1 24  1  0
  2  3  1  0
  2 25  1  0
  2 26  1  0
  3 20  1  0
  3  4  1  0
  4  5  1  0
  4 27  1  0
  4 28  1  0
  5 17  1  0
  5  6  1  0
  5 18  1  0
  6  7  1  0
  6 29  1  0
  6 30  1  0
  7  8  1  0
  7 31  1  0
  7 32  1  0
  8  9  1  0
  8 16  1  0
  9 10  1  0
  9 33  1  0
  9 34  1  0
 10 14  1  0
 10 11  2  0
 11 12  1  0
 11 46  1  0
 12 13  2  0
 12 35  1  0
 13 14  1  0
 13 36  1  0
 14 15  1  0
 15 37  1  0
 15 38  1  0
 15 39  1  0
 16 17  1  0
 16 40  1  0
 16 41  1  0
 17 42  1  0
 17 43  1  0
 18 19  1  0
 19 20  1  0
 19 44  1  0
 19 45  1  0
 20 21  2  0
M  CHG  1  11   1
M  END
>  <i_m_ct_stereo_status>  (196) 
1

>  <s_m_source_file>  (196) 
/var/tmp/pbs.5076255.sched01/tmpuxvxg9lz/41q4u19exn.sdf

>  <i_m_source_file_index>  (196) 
38

>  <i_lp_mmshare_version>  (196) 
48012

>  <i_f3d_flags>  (196) 
0

>  <s_epik_input>  (196) 
TzFbQ0gyXUMoPU8pTihbQ0gyXVtDSDNdKVtDSDJdQzEyW0NIMl1bQ0gyXU4oW0NIMl1bQ0gyXTIpW0NIMl1jM25bY0hdW2NIXW4zW0NIM10=

>  <s_epik_cmdline>  (196) 
J2VwaWtfcHl0aG9uJywgJy1waHQnLCAnMi4wJywgJy1waCcsICc3LjAnLCAnLXRuJywgJzgnLCAnLW1hJywgJzIwMCcsICctaW1hZScsICc8aW5maWxlLm1hZT4nLCAnLW9tYWUnLCAnPG91dGZpbGUubWFlPic=

>  <r_lp_tautomer_probability>  (196) 
1

>  <r_epik_Ionization_Penalty>  (196) 
0.0507827

>  <r_epik_Ionization_Penalty_Charging>  (196) 
0

>  <r_epik_Ionization_Penalty_Neutral>  (196) 
0.0507827

>  <r_epik_State_Penalty>  (196) 
0.127897

>  <r_epik_Charging_Adjusted_Penalty>  (196) 
0.127897

>  <i_epik_Tot_Q>  (196) 
1

>  <i_epik_Tot_abs_Q>  (196) 
1

>  <s_lp_Force_Field>  (196) 
OPLS3e

>  <r_lp_Energy>  (196) 
35.6225

>  <b_lp_Chiralities_Consistent>  (196) 
1

>  <s_lp_Variant>  (196) 
50:0-1

>  <s_i_glide_gridfile>  (196) 
pfpi4k_grid

>  <i_i_glide_lignum>  (196) 
38

>  <i_i_glide_rotatable_bonds>  (196) 
3

>  <r_i_docking_score>  (196) 
-3.60767

>  <r_i_glide_ligand_efficiency>  (196) 
-0.171794

>  <r_i_glide_ligand_efficiency_sa>  (196) 
-0.473966

>  <r_i_glide_ligand_efficiency_ln>  (196) 
-0.891989

>  <r_i_glide_gscore>  (196) 
-3.60767

>  <r_i_glide_lipo>  (196) 
-0.21547

>  <r_i_glide_hbond>  (196) 
-0.2

>  <r_i_glide_metal>  (196) 
-0

>  <r_i_glide_rewards>  (196) 
-1.41838

>  <r_i_glide_evdw>  (196) 
-21.246

>  <r_i_glide_ecoul>  (196) 
-6.56594

>  <r_i_glide_erotb>  (196) 
0.424562

>  <r_i_glide_esite>  (196) 
-0.151192

>  <r_i_glide_emodel>  (196) 
-36.2296

>  <r_i_glide_energy>  (196) 
-27.8119

>  <r_i_glide_einternal>  (196) 
1.05021

>  <r_i_glide_intrahb_reward>  (196) 
-0

>  <i_i_glide_confnum>  (196) 
2

>  <i_i_glide_posenum>  (196) 
9

>  <r_i_glide_eff_state_penalty>  (196) 
0

>  <ligand_id>  (196) 
50

>  <original_smiles>  (196) 
CCN1CC2(CCN(Cc3nccn3C)CC2)OCC1=O

>  <smiles>  (196) 
[H]c1c([H])[n+]([H])c(C([H])([H])N2C([H])([H])C([H])([H])C3(OC([H])([H])C(=O)N(C([H])([H])C([H])([H])[H])C3([H])[H])C([H])([H])C2([H])[H])n1C([H])([H])[H]

$$$$
50:1:0
     RDKit          3D

 46 48  0  0  1  0  0  0  0  0999 V2000
   -1.9971    0.3473    6.3009 C   0  0  0  0  0  0  0  0  0  0  0  0
   -1.4568    1.0428    5.0501 C   0  0  0  0  0  0  0  0  0  0  0  0
   -0.0759    0.6186    4.7882 N   0  0  0  0  0  0  0  0  0  0  0  0
    0.0637   -0.4366    3.7866 C   0  0  0  0  0  0  0  0  0  0  0  0
    1.4732   -0.5116    3.1883 C   0  0  1  0  0  0  0  0  0  0  0  0
    1.6719   -1.8413    2.4360 C   0  0  0  0  0  0  0  0  0  0  0  0
    3.0307   -1.9334    1.7286 C   0  0  0  0  0  0  0  0  0  0  0  0
    3.2367   -0.7777    0.8002 N   0  0  2  0  0  0  0  0  0  0  0  0
    4.5272   -0.8044    0.0582 C   0  0  0  0  0  0  0  0  0  0  0  0
    4.4498   -1.9145   -0.9405 C   0  0  0  0  0  0  0  0  0  0  0  0
    4.8334   -3.1509   -0.6572 N   0  0  0  0  0  0  0  0  0  0  0  0
    4.6503   -3.8537   -1.8526 C   0  0  0  0  0  0  0  0  0  0  0  0
    4.1703   -2.9945   -2.8120 C   0  0  0  0  0  0  0  0  0  0  0  0
    4.0519   -1.7535   -2.2210 N   0  0  0  0  0  0  0  0  0  0  0  0
    3.6079   -0.5436   -2.8813 C   0  0  0  0  0  0  0  0  0  0  0  0
    3.1102    0.5069    1.5423 C   0  0  0  0  0  0  0  0  0  0  0  0
    1.7308    0.6548    2.1918 C   0  0  0  0  0  0  0  0  0  0  0  0
    2.3928   -0.5097    4.2790 O   0  0  0  0  0  0  0  0  0  0  0  0
    2.4033    0.6728    5.0794 C   0  0  0  0  0  0  0  0  0  0  0  0
    0.9918    1.1414    5.4674 C   0  0  0  0  0  0  0  0  0  0  0  0
    0.8840    1.9901    6.3402 O   0  0  0  0  0  0  0  0  0  0  0  0
   -2.9918    0.7099    6.5511 H   0  0  0  0  0  0  0  0  0  0  0  0
   -1.3638    0.5439    7.1633 H   0  0  0  0  0  0  0  0  0  0  0  0
   -2.0419   -0.7282    6.1372 H   0  0  0  0  0  0  0  0  0  0  0  0
   -2.1140    0.8401    4.2004 H   0  0  0  0  0  0  0  0  0  0  0  0
   -1.4967    2.1231    5.1824 H   0  0  0  0  0  0  0  0  0  0  0  0
   -0.2134   -1.3990    4.2261 H   0  0  0  0  0  0  0  0  0  0  0  0
   -0.6303   -0.2566    2.9620 H   0  0  0  0  0  0  0  0  0  0  0  0
    1.5308   -2.7093    3.0881 H   0  0  0  0  0  0  0  0  0  0  0  0
    0.9124   -1.8943    1.6631 H   0  0  0  0  0  0  0  0  0  0  0  0
    3.8296   -1.9404    2.4686 H   0  0  0  0  0  0  0  0  0  0  0  0
    3.0660   -2.8876    1.2081 H   0  0  0  0  0  0  0  0  0  0  0  0
    4.7429    0.1423   -0.4476 H   0  0  0  0  0  0  0  0  0  0  0  0
    5.3595   -0.9962    0.7393 H   0  0  0  0  0  0  0  0  0  0  0  0
    4.8570   -4.8932   -1.9198 H   0  0  0  0  0  0  0  0  0  0  0  0
    3.9126   -3.1864   -3.8409 H   0  0  0  0  0  0  0  0  0  0  0  0
    3.5932   -0.7132   -3.9588 H   0  0  0  0  0  0  0  0  0  0  0  0
    4.2949    0.2805   -2.6759 H   0  0  0  0  0  0  0  0  0  0  0  0
    2.6018   -0.2901   -2.5472 H   0  0  0  0  0  0  0  0  0  0  0  0
    3.9019    0.5469    2.3067 H   0  0  0  0  0  0  0  0  0  0  0  0
    3.2633    1.3345    0.8757 H   0  0  0  0  0  0  0  0  0  0  0  0
    0.9693    0.6740    1.4036 H   0  0  0  0  0  0  0  0  0  0  0  0
    1.6686    1.6448    2.6479 H   0  0  0  0  0  0  0  0  0  0  0  0
    2.9934    0.5087    5.9814 H   0  0  0  0  0  0  0  0  0  0  0  0
    2.9097    1.4854    4.5550 H   0  0  0  0  0  0  0  0  0  0  0  0
    2.4771   -0.7983    0.1186 H   0  0  0  0  0  0  0  0  0  0  0  0
  1  2  1  0
  1 22  1  0
  1 23  1  0
  1 24  1  0
  2  3  1  0
  2 25  1  0
  2 26  1  0
  3 20  1  0
  3  4  1  0
  4  5  1  0
  4 27  1  0
  4 28  1  0
  5 17  1  0
  5  6  1  0
  5 18  1  1
  6  7  1  0
  6 29  1  0
  6 30  1  0
  7  8  1  0
  7 31  1  0
  7 32  1  0
  8  9  1  0
  8 16  1  0
  8 46  1  6
  9 10  1  0
  9 33  1  0
  9 34  1  0
 10 14  1  0
 10 11  2  0
 11 12  1  0
 12 13  2  0
 12 35  1  0
 13 14  1  0
 13 36  1  0
 14 15  1  0
 15 37  1  0
 15 38  1  0
 15 39  1  0
 16 17  1  0
 16 40  1  0
 16 41  1  0
 17 42  1  0
 17 43  1  0
 18 19  1  0
 19 20  1  0
 19 44  1  0
 19 45  1  0
 20 21  2  0
M  CHG  1   8   1
M  END
>  <i_m_ct_stereo_status>  (197) 
1

>  <s_m_source_file>  (197) 
/var/tmp/pbs.5076255.sched01/tmpuxvxg9lz/41q4u19exn.sdf

>  <i_m_source_file_index>  (197) 
39

>  <i_lp_mmshare_version>  (197) 
48012

>  <i_f3d_flags>  (197) 
0

>  <s_epik_input>  (197) 
TzFbQ0gyXUMoPU8pTihbQ0gyXVtDSDNdKVtDSDJdQzEyW0NIMl1bQ0gyXU4oW0NIMl1bQ0gyXTIpW0NIMl1jM25bY0hdW2NIXW4zW0NIM10=

>  <s_epik_cmdline>  (197) 
J2VwaWtfcHl0aG9uJywgJy1waHQnLCAnMi4wJywgJy1waCcsICc3LjAnLCAnLXRuJywgJzgnLCAnLW1hJywgJzIwMCcsICctaW1hZScsICc8aW5maWxlLm1hZT4nLCAnLW9tYWUnLCAnPG91dGZpbGUubWFlPic=

>  <r_epik_Ionization_Penalty>  (197) 
0.849735

>  <r_epik_Ionization_Penalty_Charging>  (197) 
0.849735

>  <r_epik_Ionization_Penalty_Neutral>  (197) 
2.49829e-10

>  <r_epik_State_Penalty>  (197) 
1.26173

>  <r_epik_Charging_Adjusted_Penalty>  (197) 
2.11146

>  <i_epik_Tot_Q>  (197) 
1

>  <i_epik_Tot_abs_Q>  (197) 
1

>  <s_lp_Force_Field>  (197) 
OPLS3e

>  <r_lp_Energy>  (197) 
33.1123

>  <b_lp_Chiralities_Consistent>  (197) 
1

>  <s_lp_Variant>  (197) 
50:0-2

>  <s_i_glide_gridfile>  (197) 
pfpi4k_grid

>  <i_i_glide_lignum>  (197) 
39

>  <i_i_glide_rotatable_bonds>  (197) 
3

>  <r_i_docking_score>  (197) 
-3.49564

>  <r_i_glide_ligand_efficiency>  (197) 
-0.166459

>  <r_i_glide_ligand_efficiency_sa>  (197) 
-0.459248

>  <r_i_glide_ligand_efficiency_ln>  (197) 
-0.864289

>  <r_i_glide_gscore>  (197) 
-3.49564

>  <r_i_glide_lipo>  (197) 
-0.232035

>  <r_i_glide_hbond>  (197) 
-0.2

>  <r_i_glide_metal>  (197) 
-0

>  <r_i_glide_rewards>  (197) 
-1.40874

>  <r_i_glide_evdw>  (197) 
-20.6385

>  <r_i_glide_ecoul>  (197) 
-6.1335

>  <r_i_glide_erotb>  (197) 
0.424562

>  <r_i_glide_esite>  (197) 
-0.127472

>  <r_i_glide_emodel>  (197) 
-33.3835

>  <r_i_glide_energy>  (197) 
-26.772

>  <r_i_glide_einternal>  (197) 
0.746659

>  <r_i_glide_intrahb_reward>  (197) 
-0

>  <i_i_glide_confnum>  (197) 
6

>  <i_i_glide_posenum>  (197) 
29

>  <r_i_glide_eff_state_penalty>  (197) 
0

>  <ligand_id>  (197) 
50

>  <original_smiles>  (197) 
CCN1CC2(CCN(Cc3nccn3C)CC2)OCC1=O

>  <smiles>  (197) 
[H]c1nc(C([H])([H])[N+]2([H])C([H])([H])C([H])([H])C3(OC([H])([H])C(=O)N(C([H])([H])C([H])([H])[H])C3([H])[H])C([H])([H])C2([H])[H])n(C([H])([H])[H])c1[H]

$$$$
50:1:1
     RDKit          3D

 46 48  0  0  1  0  0  0  0  0999 V2000
   -3.2636    3.6124    2.6700 C   0  0  0  0  0  0  0  0  0  0  0  0
   -2.7053    3.2914    4.0609 C   0  0  0  0  0  0  0  0  0  0  0  0
   -1.3056    2.8702    3.9951 N   0  0  0  0  0  0  0  0  0  0  0  0
   -1.0896    1.4223    4.0875 C   0  0  0  0  0  0  0  0  0  0  0  0
    0.2863    0.9889    3.5741 C   0  0  1  0  0  0  0  0  0  0  0  0
    0.5831   -0.4608    4.0163 C   0  0  0  0  0  0  0  0  0  0  0  0
    1.9277   -0.9585    3.4596 C   0  0  0  0  0  0  0  0  0  0  0  0
    2.0092   -0.8549    1.9680 N   0  0  2  0  0  0  0  0  0  0  0  0
    3.2694   -1.3672    1.3566 C   0  0  0  0  0  0  0  0  0  0  0  0
    3.1355   -2.8650    1.2950 C   0  0  0  0  0  0  0  0  0  0  0  0
    3.0905   -3.6596    2.3579 N   0  0  0  0  0  0  0  0  0  0  0  0
    3.0604   -4.9672    1.8544 C   0  0  0  0  0  0  0  0  0  0  0  0
    3.1003   -4.8970    0.4820 C   0  0  0  0  0  0  0  0  0  0  0  0
    3.1607   -3.5499    0.1471 N   0  0  0  0  0  0  0  0  0  0  0  0
    3.2421   -3.0460   -1.2127 C   0  0  0  0  0  0  0  0  0  0  0  0
    1.7502    0.5481    1.5622 C   0  0  0  0  0  0  0  0  0  0  0  0
    0.3838    1.0623    2.0265 C   0  0  0  0  0  0  0  0  0  0  0  0
    1.2396    1.8342    4.2204 O   0  0  0  0  0  0  0  0  0  0  0  0
    1.1640    3.2327    3.9124 C   0  0  0  0  0  0  0  0  0  0  0  0
   -0.2779    3.7687    3.9928 C   0  0  0  0  0  0  0  0  0  0  0  0
   -0.4495    4.9880    4.0398 O   0  0  0  0  0  0  0  0  0  0  0  0
   -4.2984    3.9505    2.7236 H   0  0  0  0  0  0  0  0  0  0  0  0
   -3.2432    2.7363    2.0193 H   0  0  0  0  0  0  0  0  0  0  0  0
   -2.6779    4.3938    2.1888 H   0  0  0  0  0  0  0  0  0  0  0  0
   -2.7692    4.1421    4.7294 H   0  0  0  0  0  0  0  0  0  0  0  0
   -3.3402    2.5435    4.5302 H   0  0  0  0  0  0  0  0  0  0  0  0
   -1.2362    1.1106    5.1247 H   0  0  0  0  0  0  0  0  0  0  0  0
   -1.8395    0.8874    3.5067 H   0  0  0  0  0  0  0  0  0  0  0  0
    0.5792   -0.5595    5.1071 H   0  0  0  0  0  0  0  0  0  0  0  0
   -0.1944   -1.1393    3.6650 H   0  0  0  0  0  0  0  0  0  0  0  0
    2.7391   -0.3753    3.8986 H   0  0  0  0  0  0  0  0  0  0  0  0
    2.0474   -1.9729    3.8395 H   0  0  0  0  0  0  0  0  0  0  0  0
    3.4361   -0.9701    0.3533 H   0  0  0  0  0  0  0  0  0  0  0  0
    4.1429   -1.0983    1.9399 H   0  0  0  0  0  0  0  0  0  0  0  0
    3.0258   -5.8268    2.5113 H   0  0  0  0  0  0  0  0  0  0  0  0
    3.1236   -5.6913   -0.2602 H   0  0  0  0  0  0  0  0  0  0  0  0
    3.4803   -3.8597   -1.8961 H   0  0  0  0  0  0  0  0  0  0  0  0
    4.0354   -2.3052   -1.2991 H   0  0  0  0  0  0  0  0  0  0  0  0
    2.2895   -2.6031   -1.5100 H   0  0  0  0  0  0  0  0  0  0  0  0
    2.5512    1.1893    1.9244 H   0  0  0  0  0  0  0  0  0  0  0  0
    1.7655    0.6079    0.4844 H   0  0  0  0  0  0  0  0  0  0  0  0
   -0.4111    0.4744    1.5630 H   0  0  0  0  0  0  0  0  0  0  0  0
    0.2208    2.0668    1.6176 H   0  0  0  0  0  0  0  0  0  0  0  0
    1.8034    3.7981    4.5979 H   0  0  0  0  0  0  0  0  0  0  0  0
    1.5774    3.4338    2.9212 H   0  0  0  0  0  0  0  0  0  0  0  0
    1.2634   -1.3852    1.5403 H   0  0  0  0  0  0  0  0  0  0  0  0
  1  2  1  0
  1 22  1  0
  1 23  1  0
  1 24  1  0
  2  3  1  0
  2 25  1  0
  2 26  1  0
  3 20  1  0
  3  4  1  0
  4  5  1  0
  4 27  1  0
  4 28  1  0
  5 17  1  0
  5  6  1  0
  5 18  1  1
  6  7  1  0
  6 29  1  0
  6 30  1  0
  7  8  1  0
  7 31  1  0
  7 32  1  0
  8  9  1  0
  8 16  1  0
  8 46  1  6
  9 10  1  0
  9 33  1  0
  9 34  1  0
 10 14  1  0
 10 11  2  0
 11 12  1  0
 12 13  2  0
 12 35  1  0
 13 14  1  0
 13 36  1  0
 14 15  1  0
 15 37  1  0
 15 38  1  0
 15 39  1  0
 16 17  1  0
 16 40  1  0
 16 41  1  0
 17 42  1  0
 17 43  1  0
 18 19  1  0
 19 20  1  0
 19 44  1  0
 19 45  1  0
 20 21  2  0
M  CHG  1   8   1
M  END
>  <i_m_ct_stereo_status>  (198) 
1

>  <s_m_source_file>  (198) 
/var/tmp/pbs.5076255.sched01/tmpuxvxg9lz/41q4u19exn.sdf

>  <i_m_source_file_index>  (198) 
39

>  <i_lp_mmshare_version>  (198) 
48012

>  <i_f3d_flags>  (198) 
0

>  <s_epik_input>  (198) 
TzFbQ0gyXUMoPU8pTihbQ0gyXVtDSDNdKVtDSDJdQzEyW0NIMl1bQ0gyXU4oW0NIMl1bQ0gyXTIpW0NIMl1jM25bY0hdW2NIXW4zW0NIM10=

>  <s_epik_cmdline>  (198) 
J2VwaWtfcHl0aG9uJywgJy1waHQnLCAnMi4wJywgJy1waCcsICc3LjAnLCAnLXRuJywgJzgnLCAnLW1hJywgJzIwMCcsICctaW1hZScsICc8aW5maWxlLm1hZT4nLCAnLW9tYWUnLCAnPG91dGZpbGUubWFlPic=

>  <r_epik_Ionization_Penalty>  (198) 
0.849735

>  <r_epik_Ionization_Penalty_Charging>  (198) 
0.849735

>  <r_epik_Ionization_Penalty_Neutral>  (198) 
2.49829e-10

>  <r_epik_State_Penalty>  (198) 
1.26173

>  <r_epik_Charging_Adjusted_Penalty>  (198) 
2.11146

>  <i_epik_Tot_Q>  (198) 
1

>  <i_epik_Tot_abs_Q>  (198) 
1

>  <s_lp_Force_Field>  (198) 
OPLS3e

>  <r_lp_Energy>  (198) 
33.1123

>  <b_lp_Chiralities_Consistent>  (198) 
1

>  <s_lp_Variant>  (198) 
50:0-2

>  <s_i_glide_gridfile>  (198) 
pfpi4k_grid

>  <i_i_glide_lignum>  (198) 
39

>  <i_i_glide_rotatable_bonds>  (198) 
3

>  <r_i_docking_score>  (198) 
-3.22742

>  <r_i_glide_ligand_efficiency>  (198) 
-0.153687

>  <r_i_glide_ligand_efficiency_sa>  (198) 
-0.424009

>  <r_i_glide_ligand_efficiency_ln>  (198) 
-0.797972

>  <r_i_glide_gscore>  (198) 
-3.22742

>  <r_i_glide_lipo>  (198) 
0

>  <r_i_glide_hbond>  (198) 
-0.0131042

>  <r_i_glide_metal>  (198) 
-0

>  <r_i_glide_rewards>  (198) 
-1.40874

>  <r_i_glide_evdw>  (198) 
-20.5916

>  <r_i_glide_ecoul>  (198) 
-6.76988

>  <r_i_glide_erotb>  (198) 
0.424562

>  <r_i_glide_esite>  (198) 
-0.18507

>  <r_i_glide_emodel>  (198) 
-33.5154

>  <r_i_glide_energy>  (198) 
-27.3615

>  <r_i_glide_einternal>  (198) 
0.527943

>  <r_i_glide_intrahb_reward>  (198) 
-0

>  <i_i_glide_confnum>  (198) 
6

>  <i_i_glide_posenum>  (198) 
23

>  <r_i_glide_eff_state_penalty>  (198) 
0

>  <ligand_id>  (198) 
50

>  <original_smiles>  (198) 
CCN1CC2(CCN(Cc3nccn3C)CC2)OCC1=O

>  <smiles>  (198) 
[H]c1nc(C([H])([H])[N+]2([H])C([H])([H])C([H])([H])C3(OC([H])([H])C(=O)N(C([H])([H])C([H])([H])[H])C3([H])[H])C([H])([H])C2([H])[H])n(C([H])([H])[H])c1[H]

$$$$
50:1:2
     RDKit          3D

 46 48  0  0  1  0  0  0  0  0999 V2000
   -2.7342    2.2167    7.1572 C   0  0  0  0  0  0  0  0  0  0  0  0
   -1.2917    2.5078    6.7240 C   0  0  0  0  0  0  0  0  0  0  0  0
   -1.0607    2.0849    5.3322 N   0  0  0  0  0  0  0  0  0  0  0  0
   -0.2920    0.8381    5.1877 C   0  0  0  0  0  0  0  0  0  0  0  0
    0.3536    0.6772    3.8045 C   0  0  1  0  0  0  0  0  0  0  0  0
    1.5720    1.6266    3.6133 C   0  0  0  0  0  0  0  0  0  0  0  0
    2.2091    1.3884    2.2285 C   0  0  0  0  0  0  0  0  0  0  0  0
    2.6790   -0.0164    2.0600 N   0  0  2  0  0  0  0  0  0  0  0  0
    3.4095   -0.1822    0.7790 C   0  0  0  0  0  0  0  0  0  0  0  0
    4.2341   -1.4077    0.9387 C   0  0  0  0  0  0  0  0  0  0  0  0
    5.2364   -1.5177    1.8084 N   0  0  0  0  0  0  0  0  0  0  0  0
    5.7972   -2.7744    1.5404 C   0  0  0  0  0  0  0  0  0  0  0  0
    5.0801   -3.3734    0.5369 C   0  0  0  0  0  0  0  0  0  0  0  0
    4.0898   -2.4759    0.1535 N   0  0  0  0  0  0  0  0  0  0  0  0
    3.1169   -2.7250   -0.8887 C   0  0  0  0  0  0  0  0  0  0  0  0
    1.5504   -0.9768    2.2468 C   0  0  0  0  0  0  0  0  0  0  0  0
    0.8320   -0.7799    3.5952 C   0  0  0  0  0  0  0  0  0  0  0  0
   -0.6942    0.9232    2.8649 O   0  0  0  0  0  0  0  0  0  0  0  0
   -1.2414    2.2466    2.8511 C   0  0  0  0  0  0  0  0  0  0  0  0
   -1.5487    2.7747    4.2594 C   0  0  0  0  0  0  0  0  0  0  0  0
   -2.1806    3.8287    4.3545 O   0  0  0  0  0  0  0  0  0  0  0  0
   -2.9186    2.5544    8.1761 H   0  0  0  0  0  0  0  0  0  0  0  0
   -2.9546    1.1524    7.0948 H   0  0  0  0  0  0  0  0  0  0  0  0
   -3.4417    2.7280    6.5113 H   0  0  0  0  0  0  0  0  0  0  0  0
   -1.0754    3.5718    6.8110 H   0  0  0  0  0  0  0  0  0  0  0  0
   -0.5982    2.0231    7.4223 H   0  0  0  0  0  0  0  0  0  0  0  0
    0.5044    0.7771    5.9325 H   0  0  0  0  0  0  0  0  0  0  0  0
   -0.9584   -0.0033    5.3978 H   0  0  0  0  0  0  0  0  0  0  0  0
    1.3447    2.6968    3.7361 H   0  0  0  0  0  0  0  0  0  0  0  0
    2.3240    1.4491    4.3841 H   0  0  0  0  0  0  0  0  0  0  0  0
    1.4882    1.6115    1.4335 H   0  0  0  0  0  0  0  0  0  0  0  0
    3.0317    2.0998    2.1055 H   0  0  0  0  0  0  0  0  0  0  0  0
    2.7048   -0.2694   -0.0452 H   0  0  0  0  0  0  0  0  0  0  0  0
    4.0993    0.6340    0.5643 H   0  0  0  0  0  0  0  0  0  0  0  0
    6.6621   -3.1559    2.0766 H   0  0  0  0  0  0  0  0  0  0  0  0
    5.2110   -4.3456    0.0632 H   0  0  0  0  0  0  0  0  0  0  0  0
    3.4061   -3.6031   -1.4733 H   0  0  0  0  0  0  0  0  0  0  0  0
    3.0450   -1.8736   -1.5667 H   0  0  0  0  0  0  0  0  0  0  0  0
    2.1392   -2.9122   -0.4393 H   0  0  0  0  0  0  0  0  0  0  0  0
    0.8286   -0.8266    1.4495 H   0  0  0  0  0  0  0  0  0  0  0  0
    1.8915   -2.0092    2.1662 H   0  0  0  0  0  0  0  0  0  0  0  0
    1.5147   -1.0685    4.3920 H   0  0  0  0  0  0  0  0  0  0  0  0
   -0.0040   -1.4802    3.6593 H   0  0  0  0  0  0  0  0  0  0  0  0
   -0.5344    2.9386    2.4043 H   0  0  0  0  0  0  0  0  0  0  0  0
   -2.1299    2.3071    2.2160 H   0  0  0  0  0  0  0  0  0  0  0  0
    3.3628   -0.1870    2.7827 H   0  0  0  0  0  0  0  0  0  0  0  0
  1  2  1  0
  1 22  1  0
  1 23  1  0
  1 24  1  0
  2  3  1  0
  2 25  1  0
  2 26  1  0
  3 20  1  0
  3  4  1  0
  4  5  1  0
  4 27  1  0
  4 28  1  0
  5 17  1  0
  5  6  1  0
  5 18  1  6
  6  7  1  0
  6 29  1  0
  6 30  1  0
  7  8  1  0
  7 31  1  0
  7 32  1  0
  8  9  1  0
  8 16  1  0
  8 46  1  1
  9 10  1  0
  9 33  1  0
  9 34  1  0
 10 14  1  0
 10 11  2  0
 11 12  1  0
 12 13  2  0
 12 35  1  0
 13 14  1  0
 13 36  1  0
 14 15  1  0
 15 37  1  0
 15 38  1  0
 15 39  1  0
 16 17  1  0
 16 40  1  0
 16 41  1  0
 17 42  1  0
 17 43  1  0
 18 19  1  0
 19 20  1  0
 19 44  1  0
 19 45  1  0
 20 21  2  0
M  CHG  1   8   1
M  END
>  <i_m_ct_stereo_status>  (199) 
1

>  <s_m_source_file>  (199) 
/var/tmp/pbs.5076255.sched01/tmpuxvxg9lz/41q4u19exn.sdf

>  <i_m_source_file_index>  (199) 
39

>  <i_lp_mmshare_version>  (199) 
48012

>  <i_f3d_flags>  (199) 
0

>  <s_epik_input>  (199) 
TzFbQ0gyXUMoPU8pTihbQ0gyXVtDSDNdKVtDSDJdQzEyW0NIMl1bQ0gyXU4oW0NIMl1bQ0gyXTIpW0NIMl1jM25bY0hdW2NIXW4zW0NIM10=

>  <s_epik_cmdline>  (199) 
J2VwaWtfcHl0aG9uJywgJy1waHQnLCAnMi4wJywgJy1waCcsICc3LjAnLCAnLXRuJywgJzgnLCAnLW1hJywgJzIwMCcsICctaW1hZScsICc8aW5maWxlLm1hZT4nLCAnLW9tYWUnLCAnPG91dGZpbGUubWFlPic=

>  <r_epik_Ionization_Penalty>  (199) 
0.849735

>  <r_epik_Ionization_Penalty_Charging>  (199) 
0.849735

>  <r_epik_Ionization_Penalty_Neutral>  (199) 
2.49829e-10

>  <r_epik_State_Penalty>  (199) 
1.26173

>  <r_epik_Charging_Adjusted_Penalty>  (199) 
2.11146

>  <i_epik_Tot_Q>  (199) 
1

>  <i_epik_Tot_abs_Q>  (199) 
1

>  <s_lp_Force_Field>  (199) 
OPLS3e

>  <r_lp_Energy>  (199) 
33.1123

>  <b_lp_Chiralities_Consistent>  (199) 
1

>  <s_lp_Variant>  (199) 
50:0-2

>  <s_i_glide_gridfile>  (199) 
pfpi4k_grid

>  <i_i_glide_lignum>  (199) 
39

>  <i_i_glide_rotatable_bonds>  (199) 
3

>  <r_i_docking_score>  (199) 
-3.2026

>  <r_i_glide_ligand_efficiency>  (199) 
-0.152505

>  <r_i_glide_ligand_efficiency_sa>  (199) 
-0.420749

>  <r_i_glide_ligand_efficiency_ln>  (199) 
-0.791835

>  <r_i_glide_gscore>  (199) 
-3.2026

>  <r_i_glide_lipo>  (199) 
-0.20035

>  <r_i_glide_hbond>  (199) 
0

>  <r_i_glide_metal>  (199) 
-0

>  <r_i_glide_rewards>  (199) 
-1.40874

>  <r_i_glide_evdw>  (199) 
-21.0612

>  <r_i_glide_ecoul>  (199) 
-5.94153

>  <r_i_glide_erotb>  (199) 
0.424562

>  <r_i_glide_esite>  (199) 
-0.0737771

>  <r_i_glide_emodel>  (199) 
-33.325

>  <r_i_glide_energy>  (199) 
-27.0027

>  <r_i_glide_einternal>  (199) 
0.358448

>  <r_i_glide_intrahb_reward>  (199) 
-0

>  <i_i_glide_confnum>  (199) 
3

>  <i_i_glide_posenum>  (199) 
21

>  <r_i_glide_eff_state_penalty>  (199) 
0

>  <ligand_id>  (199) 
50

>  <original_smiles>  (199) 
CCN1CC2(CCN(Cc3nccn3C)CC2)OCC1=O

>  <smiles>  (199) 
[H]c1nc(C([H])([H])[N+]2([H])C([H])([H])C([H])([H])C3(OC([H])([H])C(=O)N(C([H])([H])C([H])([H])[H])C3([H])[H])C([H])([H])C2([H])[H])n(C([H])([H])[H])c1[H]

$$$$
50:2:0
     RDKit          3D

 45 47  0  0  1  0  0  0  0  0999 V2000
    8.3107   -3.2609    0.2446 C   0  0  0  0  0  0  0  0  0  0  0  0
    6.9308   -3.6495   -0.3019 C   0  0  0  0  0  0  0  0  0  0  0  0
    5.8422   -3.0446    0.4731 N   0  0  0  0  0  0  0  0  0  0  0  0
    5.1315   -3.9561    1.3770 C   0  0  0  0  0  0  0  0  0  0  0  0
    3.7276   -3.4332    1.7571 C   0  0  0  0  0  0  0  0  0  0  0  0
    3.1353   -4.2182    2.9440 C   0  0  0  0  0  0  0  0  0  0  0  0
    2.7516   -5.6528    2.5360 C   0  0  0  0  0  0  0  0  0  0  0  0
    1.7860   -5.6409    1.4291 N   0  0  0  0  0  0  0  0  0  0  0  0
    1.4136   -7.0077    1.0868 C   0  0  0  0  0  0  0  0  0  0  0  0
    0.4510   -7.6167    2.0596 C   0  0  0  0  0  0  0  0  0  0  0  0
   -0.6944   -7.0389    2.4281 N   0  0  0  0  0  0  0  0  0  0  0  0
   -1.2709   -7.9501    3.2998 C   0  0  0  0  0  0  0  0  0  0  0  0
   -0.4586   -9.0505    3.4256 C   0  0  0  0  0  0  0  0  0  0  0  0
    0.6481   -8.8212    2.6216 N   0  0  0  0  0  0  0  0  0  0  0  0
    1.7675   -9.7265    2.4323 C   0  0  0  0  0  0  0  0  0  0  0  0
    2.3490   -4.9770    0.2511 C   0  0  0  0  0  0  0  0  0  0  0  0
    2.7087   -3.5171    0.5896 C   0  0  0  0  0  0  0  0  0  0  0  0
    3.9030   -2.0854    2.1883 O   0  0  0  0  0  0  0  0  0  0  0  0
    4.3579   -1.1748    1.1822 C   0  0  0  0  0  0  0  0  0  0  0  0
    5.5576   -1.7260    0.3916 C   0  0  0  0  0  0  0  0  0  0  0  0
    6.2057   -0.9578   -0.3157 O   0  0  0  0  0  0  0  0  0  0  0  0
    9.1121   -3.6930   -0.3561 H   0  0  0  0  0  0  0  0  0  0  0  0
    8.4244   -3.6043    1.2726 H   0  0  0  0  0  0  0  0  0  0  0  0
    8.4433   -2.1818    0.2406 H   0  0  0  0  0  0  0  0  0  0  0  0
    6.8435   -3.3684   -1.3508 H   0  0  0  0  0  0  0  0  0  0  0  0
    6.8453   -4.7337   -0.3054 H   0  0  0  0  0  0  0  0  0  0  0  0
    5.0526   -4.9388    0.9079 H   0  0  0  0  0  0  0  0  0  0  0  0
    5.7414   -4.1121    2.2719 H   0  0  0  0  0  0  0  0  0  0  0  0
    3.8450   -4.2450    3.7725 H   0  0  0  0  0  0  0  0  0  0  0  0
    2.2543   -3.7080    3.3330 H   0  0  0  0  0  0  0  0  0  0  0  0
    3.6485   -6.2021    2.2464 H   0  0  0  0  0  0  0  0  0  0  0  0
    2.3349   -6.1758    3.3995 H   0  0  0  0  0  0  0  0  0  0  0  0
    0.9284   -7.0217    0.1145 H   0  0  0  0  0  0  0  0  0  0  0  0
    2.3211   -7.6089    0.9879 H   0  0  0  0  0  0  0  0  0  0  0  0
   -2.2168   -7.7496    3.7690 H   0  0  0  0  0  0  0  0  0  0  0  0
   -0.5878   -9.9512    4.0132 H   0  0  0  0  0  0  0  0  0  0  0  0
    1.6124  -10.6402    3.0112 H   0  0  0  0  0  0  0  0  0  0  0  0
    2.6936   -9.2506    2.7596 H   0  0  0  0  0  0  0  0  0  0  0  0
    1.8601   -9.9848    1.3760 H   0  0  0  0  0  0  0  0  0  0  0  0
    3.2171   -5.5185   -0.1194 H   0  0  0  0  0  0  0  0  0  0  0  0
    1.6207   -4.9734   -0.5646 H   0  0  0  0  0  0  0  0  0  0  0  0
    1.8174   -2.9522    0.8574 H   0  0  0  0  0  0  0  0  0  0  0  0
    3.0895   -3.0609   -0.3279 H   0  0  0  0  0  0  0  0  0  0  0  0
    3.5525   -0.9476    0.4834 H   0  0  0  0  0  0  0  0  0  0  0  0
    4.6342   -0.2260    1.6420 H   0  0  0  0  0  0  0  0  0  0  0  0
  1  2  1  0
  1 22  1  0
  1 23  1  0
  1 24  1  0
  2  3  1  0
  2 25  1  0
  2 26  1  0
  3 20  1  0
  3  4  1  0
  4  5  1  0
  4 27  1  0
  4 28  1  0
  5 17  1  0
  5  6  1  0
  5 18  1  0
  6  7  1  0
  6 29  1  0
  6 30  1  0
  7  8  1  0
  7 31  1  0
  7 32  1  0
  8  9  1  0
  8 16  1  0
  9 10  1  0
  9 33  1  0
  9 34  1  0
 10 14  1  0
 10 11  2  0
 11 12  1  0
 12 13  2  0
 12 35  1  0
 13 14  1  0
 13 36  1  0
 14 15  1  0
 15 37  1  0
 15 38  1  0
 15 39  1  0
 16 17  1  0
 16 40  1  0
 16 41  1  0
 17 42  1  0
 17 43  1  0
 18 19  1  0
 19 20  1  0
 19 44  1  0
 19 45  1  0
 20 21  2  0
M  END
>  <i_m_ct_stereo_status>  (200) 
1

>  <s_m_source_file>  (200) 
/var/tmp/pbs.5076255.sched01/tmpuxvxg9lz/41q4u19exn.sdf

>  <i_m_source_file_index>  (200) 
40

>  <i_lp_mmshare_version>  (200) 
48012

>  <i_f3d_flags>  (200) 
0

>  <s_epik_input>  (200) 
TzFbQ0gyXUMoPU8pTihbQ0gyXVtDSDNdKVtDSDJdQzEyW0NIMl1bQ0gyXU4oW0NIMl1bQ0gyXTIpW0NIMl1jM25bY0hdW2NIXW4zW0NIM10=

>  <s_epik_cmdline>  (200) 
J2VwaWtfcHl0aG9uJywgJy1waHQnLCAnMi4wJywgJy1waCcsICc3LjAnLCAnLXRuJywgJzgnLCAnLW1hJywgJzIwMCcsICctaW1hZScsICc8aW5maWxlLm1hZT4nLCAnLW9tYWUnLCAnPG91dGZpbGUubWFlPic=

>  <r_lp_tautomer_probability>  (200) 
1

>  <r_epik_Ionization_Penalty>  (200) 
2.42445

>  <r_epik_Ionization_Penalty_Charging>  (200) 
2.26

>  <r_epik_Ionization_Penalty_Neutral>  (200) 
0.164453

>  <r_epik_State_Penalty>  (200) 
1.53329

>  <r_epik_Charging_Adjusted_Penalty>  (200) 
3.79329

>  <i_epik_Tot_Q>  (200) 
0

>  <i_epik_Tot_abs_Q>  (200) 
0

>  <s_lp_Force_Field>  (200) 
OPLS3e

>  <r_lp_Energy>  (200) 
31.6608

>  <b_lp_Chiralities_Consistent>  (200) 
1

>  <s_lp_Variant>  (200) 
50:0-3

>  <s_i_glide_gridfile>  (200) 
pfpi4k_grid

>  <i_i_glide_lignum>  (200) 
40

>  <i_i_glide_rotatable_bonds>  (200) 
3

>  <r_i_docking_score>  (200) 
-4.01939

>  <r_i_glide_ligand_efficiency>  (200) 
-0.1914

>  <r_i_glide_ligand_efficiency_sa>  (200) 
-0.528057

>  <r_i_glide_ligand_efficiency_ln>  (200) 
-0.993786

>  <r_i_glide_gscore>  (200) 
-4.01939

>  <r_i_glide_lipo>  (200) 
-0.481567

>  <r_i_glide_hbond>  (200) 
-0.276798

>  <r_i_glide_metal>  (200) 
-0

>  <r_i_glide_rewards>  (200) 
-1.59004

>  <r_i_glide_evdw>  (200) 
-23.281

>  <r_i_glide_ecoul>  (200) 
-5.70763

>  <r_i_glide_erotb>  (200) 
0.42712

>  <r_i_glide_esite>  (200) 
-0.0779145

>  <r_i_glide_emodel>  (200) 
-37.497

>  <r_i_glide_energy>  (200) 
-28.9886

>  <r_i_glide_einternal>  (200) 
0.834692

>  <r_i_glide_intrahb_reward>  (200) 
-0

>  <i_i_glide_confnum>  (200) 
3

>  <i_i_glide_posenum>  (200) 
38

>  <r_i_glide_eff_state_penalty>  (200) 
0

>  <ligand_id>  (200) 
50

>  <original_smiles>  (200) 
CCN1CC2(CCN(Cc3nccn3C)CC2)OCC1=O

>  <smiles>  (200) 
[H]c1nc(C([H])([H])N2C([H])([H])C([H])([H])C3(OC([H])([H])C(=O)N(C([H])([H])C([H])([H])[H])C3([H])[H])C([H])([H])C2([H])[H])n(C([H])([H])[H])c1[H]

$$$$
50:2:1
     RDKit          3D

 45 47  0  0  1  0  0  0  0  0999 V2000
    4.7451   -1.4911   -2.5988 C   0  0  0  0  0  0  0  0  0  0  0  0
    3.7248   -1.9836   -1.5660 C   0  0  0  0  0  0  0  0  0  0  0  0
    4.3911   -2.5465   -0.3828 N   0  0  0  0  0  0  0  0  0  0  0  0
    4.4120   -4.0163   -0.3269 C   0  0  0  0  0  0  0  0  0  0  0  0
    4.6333   -4.5562    1.1077 C   0  0  0  0  0  0  0  0  0  0  0  0
    4.9765   -6.0572    1.1019 C   0  0  0  0  0  0  0  0  0  0  0  0
    3.7516   -6.9045    0.7144 C   0  0  0  0  0  0  0  0  0  0  0  0
    2.6369   -6.6869    1.6458 N   0  0  0  0  0  0  0  0  0  0  0  0
    1.5020   -7.5264    1.2850 C   0  0  0  0  0  0  0  0  0  0  0  0
    0.4678   -7.6447    2.3559 C   0  0  0  0  0  0  0  0  0  0  0  0
   -0.4377   -6.7048    2.6463 N   0  0  0  0  0  0  0  0  0  0  0  0
   -1.1409   -7.2336    3.7308 C   0  0  0  0  0  0  0  0  0  0  0  0
   -0.6666   -8.4833    4.0219 C   0  0  0  0  0  0  0  0  0  0  0  0
    0.3659   -8.7348    3.1261 N   0  0  0  0  0  0  0  0  0  0  0  0
    1.1463   -9.9596    3.0714 C   0  0  0  0  0  0  0  0  0  0  0  0
    2.2393   -5.2781    1.6268 C   0  0  0  0  0  0  0  0  0  0  0  0
    3.4029   -4.3727    2.0332 C   0  0  0  0  0  0  0  0  0  0  0  0
    5.7679   -3.8625    1.6199 O   0  0  0  0  0  0  0  0  0  0  0  0
    5.5996   -2.4509    1.7929 C   0  0  0  0  0  0  0  0  0  0  0  0
    4.9919   -1.7753    0.5540 C   0  0  0  0  0  0  0  0  0  0  0  0
    5.0482   -0.5428    0.4834 O   0  0  0  0  0  0  0  0  0  0  0  0
    4.2538   -1.0440   -3.4628 H   0  0  0  0  0  0  0  0  0  0  0  0
    5.3749   -2.3101   -2.9435 H   0  0  0  0  0  0  0  0  0  0  0  0
    5.3931   -0.7373   -2.1614 H   0  0  0  0  0  0  0  0  0  0  0  0
    3.0605   -1.1707   -1.2703 H   0  0  0  0  0  0  0  0  0  0  0  0
    3.0613   -2.7095   -2.0376 H   0  0  0  0  0  0  0  0  0  0  0  0
    3.4837   -4.4047   -0.7449 H   0  0  0  0  0  0  0  0  0  0  0  0
    5.1886   -4.3858   -1.0000 H   0  0  0  0  0  0  0  0  0  0  0  0
    5.8011   -6.2587    0.4166 H   0  0  0  0  0  0  0  0  0  0  0  0
    5.3311   -6.3697    2.0845 H   0  0  0  0  0  0  0  0  0  0  0  0
    3.4541   -6.6515   -0.3048 H   0  0  0  0  0  0  0  0  0  0  0  0
    4.0308   -7.9595    0.7151 H   0  0  0  0  0  0  0  0  0  0  0  0
    1.0175   -7.1337    0.3935 H   0  0  0  0  0  0  0  0  0  0  0  0
    1.8585   -8.5211    1.0228 H   0  0  0  0  0  0  0  0  0  0  0  0
   -1.9323   -6.6694    4.2120 H   0  0  0  0  0  0  0  0  0  0  0  0
   -0.9749   -9.2062    4.7746 H   0  0  0  0  0  0  0  0  0  0  0  0
    0.7897  -10.6681    3.8218 H   0  0  0  0  0  0  0  0  0  0  0  0
    2.1987   -9.7436    3.2575 H   0  0  0  0  0  0  0  0  0  0  0  0
    1.0449  -10.4161    2.0870 H   0  0  0  0  0  0  0  0  0  0  0  0
    1.8784   -5.0056    0.6354 H   0  0  0  0  0  0  0  0  0  0  0  0
    1.4261   -5.0731    2.3226 H   0  0  0  0  0  0  0  0  0  0  0  0
    3.6786   -4.5890    3.0676 H   0  0  0  0  0  0  0  0  0  0  0  0
    3.0229   -3.3500    2.0258 H   0  0  0  0  0  0  0  0  0  0  0  0
    4.9593   -2.2426    2.6516 H   0  0  0  0  0  0  0  0  0  0  0  0
    6.5624   -1.9915    2.0151 H   0  0  0  0  0  0  0  0  0  0  0  0
  1  2  1  0
  1 22  1  0
  1 23  1  0
  1 24  1  0
  2  3  1  0
  2 25  1  0
  2 26  1  0
  3 20  1  0
  3  4  1  0
  4  5  1  0
  4 27  1  0
  4 28  1  0
  5 17  1  0
  5  6  1  0
  5 18  1  0
  6  7  1  0
  6 29  1  0
  6 30  1  0
  7  8  1  0
  7 31  1  0
  7 32  1  0
  8  9  1  0
  8 16  1  0
  9 10  1  0
  9 33  1  0
  9 34  1  0
 10 14  1  0
 10 11  2  0
 11 12  1  0
 12 13  2  0
 12 35  1  0
 13 14  1  0
 13 36  1  0
 14 15  1  0
 15 37  1  0
 15 38  1  0
 15 39  1  0
 16 17  1  0
 16 40  1  0
 16 41  1  0
 17 42  1  0
 17 43  1  0
 18 19  1  0
 19 20  1  0
 19 44  1  0
 19 45  1  0
 20 21  2  0
M  END
>  <i_m_ct_stereo_status>  (201) 
1

>  <s_m_source_file>  (201) 
/var/tmp/pbs.5076255.sched01/tmpuxvxg9lz/41q4u19exn.sdf

>  <i_m_source_file_index>  (201) 
40

>  <i_lp_mmshare_version>  (201) 
48012

>  <i_f3d_flags>  (201) 
0

>  <s_epik_input>  (201) 
TzFbQ0gyXUMoPU8pTihbQ0gyXVtDSDNdKVtDSDJdQzEyW0NIMl1bQ0gyXU4oW0NIMl1bQ0gyXTIpW0NIMl1jM25bY0hdW2NIXW4zW0NIM10=

>  <s_epik_cmdline>  (201) 
J2VwaWtfcHl0aG9uJywgJy1waHQnLCAnMi4wJywgJy1waCcsICc3LjAnLCAnLXRuJywgJzgnLCAnLW1hJywgJzIwMCcsICctaW1hZScsICc8aW5maWxlLm1hZT4nLCAnLW9tYWUnLCAnPG91dGZpbGUubWFlPic=

>  <r_lp_tautomer_probability>  (201) 
1

>  <r_epik_Ionization_Penalty>  (201) 
2.42445

>  <r_epik_Ionization_Penalty_Charging>  (201) 
2.26

>  <r_epik_Ionization_Penalty_Neutral>  (201) 
0.164453

>  <r_epik_State_Penalty>  (201) 
1.53329

>  <r_epik_Charging_Adjusted_Penalty>  (201) 
3.79329

>  <i_epik_Tot_Q>  (201) 
0

>  <i_epik_Tot_abs_Q>  (201) 
0

>  <s_lp_Force_Field>  (201) 
OPLS3e

>  <r_lp_Energy>  (201) 
31.6608

>  <b_lp_Chiralities_Consistent>  (201) 
1

>  <s_lp_Variant>  (201) 
50:0-3

>  <s_i_glide_gridfile>  (201) 
pfpi4k_grid

>  <i_i_glide_lignum>  (201) 
40

>  <i_i_glide_rotatable_bonds>  (201) 
3

>  <r_i_docking_score>  (201) 
-3.51557

>  <r_i_glide_ligand_efficiency>  (201) 
-0.167408

>  <r_i_glide_ligand_efficiency_sa>  (201) 
-0.461867

>  <r_i_glide_ligand_efficiency_ln>  (201) 
-0.869219

>  <r_i_glide_gscore>  (201) 
-3.51557

>  <r_i_glide_lipo>  (201) 
-0.371941

>  <r_i_glide_hbond>  (201) 
-0.16

>  <r_i_glide_metal>  (201) 
-0

>  <r_i_glide_rewards>  (201) 
-1.46854

>  <r_i_glide_evdw>  (201) 
-24.0264

>  <r_i_glide_ecoul>  (201) 
-4.36735

>  <r_i_glide_erotb>  (201) 
0.42712

>  <r_i_glide_esite>  (201) 
-0.085794

>  <r_i_glide_emodel>  (201) 
-35.8934

>  <r_i_glide_energy>  (201) 
-28.3937

>  <r_i_glide_einternal>  (201) 
0.577228

>  <r_i_glide_intrahb_reward>  (201) 
-0

>  <i_i_glide_confnum>  (201) 
5

>  <i_i_glide_posenum>  (201) 
31

>  <r_i_glide_eff_state_penalty>  (201) 
0

>  <ligand_id>  (201) 
50

>  <original_smiles>  (201) 
CCN1CC2(CCN(Cc3nccn3C)CC2)OCC1=O

>  <smiles>  (201) 
[H]c1nc(C([H])([H])N2C([H])([H])C([H])([H])C3(OC([H])([H])C(=O)N(C([H])([H])C([H])([H])[H])C3([H])[H])C([H])([H])C2([H])[H])n(C([H])([H])[H])c1[H]

$$$$
50:2:2
     RDKit          3D

 45 47  0  0  1  0  0  0  0  0999 V2000
    4.5304   -3.5454   -3.8269 C   0  0  0  0  0  0  0  0  0  0  0  0
    5.6286   -3.3053   -2.7670 C   0  0  0  0  0  0  0  0  0  0  0  0
    5.0957   -2.7403   -1.5178 N   0  0  0  0  0  0  0  0  0  0  0  0
    5.2633   -3.6114   -0.3452 C   0  0  0  0  0  0  0  0  0  0  0  0
    4.3113   -3.2408    0.8140 C   0  0  0  0  0  0  0  0  0  0  0  0
    4.7172   -3.9373    2.1291 C   0  0  0  0  0  0  0  0  0  0  0  0
    4.4497   -5.4554    2.0750 C   0  0  0  0  0  0  0  0  0  0  0  0
    3.0258   -5.7133    1.8188 N   0  0  0  0  0  0  0  0  0  0  0  0
    2.7591   -7.1492    1.8312 C   0  0  0  0  0  0  0  0  0  0  0  0
    1.3133   -7.5075    2.0376 C   0  0  0  0  0  0  0  0  0  0  0  0
    0.2692   -6.6946    1.8326 N   0  0  0  0  0  0  0  0  0  0  0  0
   -0.8357   -7.4626    2.1775 C   0  0  0  0  0  0  0  0  0  0  0  0
   -0.4350   -8.7105    2.5842 C   0  0  0  0  0  0  0  0  0  0  0  0
    0.9491   -8.7257    2.4815 N   0  0  0  0  0  0  0  0  0  0  0  0
    1.8016   -9.8585    2.8013 C   0  0  0  0  0  0  0  0  0  0  0  0
    2.6339   -5.1434    0.5247 C   0  0  0  0  0  0  0  0  0  0  0  0
    2.8350   -3.6239    0.5337 C   0  0  0  0  0  0  0  0  0  0  0  0
    4.4663   -1.8364    1.0145 O   0  0  0  0  0  0  0  0  0  0  0  0
    4.0456   -1.0089   -0.0771 C   0  0  0  0  0  0  0  0  0  0  0  0
    4.6273   -1.4754   -1.4201 C   0  0  0  0  0  0  0  0  0  0  0  0
    4.6280   -0.6904   -2.3769 O   0  0  0  0  0  0  0  0  0  0  0  0
    4.9609   -3.9593   -4.7389 H   0  0  0  0  0  0  0  0  0  0  0  0
    3.9977   -2.6314   -4.0785 H   0  0  0  0  0  0  0  0  0  0  0  0
    3.7788   -4.2533   -3.4755 H   0  0  0  0  0  0  0  0  0  0  0  0
    6.1337   -4.2448   -2.5781 H   0  0  0  0  0  0  0  0  0  0  0  0
    6.4021   -2.6485   -3.1470 H   0  0  0  0  0  0  0  0  0  0  0  0
    5.1291   -4.6541   -0.6416 H   0  0  0  0  0  0  0  0  0  0  0  0
    6.3009   -3.5450   -0.0160 H   0  0  0  0  0  0  0  0  0  0  0  0
    5.7669   -3.7460    2.3604 H   0  0  0  0  0  0  0  0  0  0  0  0
    4.1610   -3.5091    2.9635 H   0  0  0  0  0  0  0  0  0  0  0  0
    5.0729   -5.9236    1.3128 H   0  0  0  0  0  0  0  0  0  0  0  0
    4.7402   -5.8992    3.0305 H   0  0  0  0  0  0  0  0  0  0  0  0
    3.1238   -7.5975    0.9040 H   0  0  0  0  0  0  0  0  0  0  0  0
    3.3431   -7.6142    2.6240 H   0  0  0  0  0  0  0  0  0  0  0  0
   -1.8302   -7.0673    2.1114 H   0  0  0  0  0  0  0  0  0  0  0  0
   -1.0038   -9.5655    2.9230 H   0  0  0  0  0  0  0  0  0  0  0  0
    1.1805  -10.7001    3.1176 H   0  0  0  0  0  0  0  0  0  0  0  0
    2.4820   -9.6026    3.6165 H   0  0  0  0  0  0  0  0  0  0  0  0
    2.3843  -10.1616    1.9274 H   0  0  0  0  0  0  0  0  0  0  0  0
    3.2042   -5.6024   -0.2844 H   0  0  0  0  0  0  0  0  0  0  0  0
    1.5866   -5.3341    0.2888 H   0  0  0  0  0  0  0  0  0  0  0  0
    2.1920   -3.1687    1.2889 H   0  0  0  0  0  0  0  0  0  0  0  0
    2.4819   -3.2547   -0.4300 H   0  0  0  0  0  0  0  0  0  0  0  0
    2.9596   -1.0004   -0.1487 H   0  0  0  0  0  0  0  0  0  0  0  0
    4.3479    0.0219    0.1027 H   0  0  0  0  0  0  0  0  0  0  0  0
  1  2  1  0
  1 22  1  0
  1 23  1  0
  1 24  1  0
  2  3  1  0
  2 25  1  0
  2 26  1  0
  3 20  1  0
  3  4  1  0
  4  5  1  0
  4 27  1  0
  4 28  1  0
  5 17  1  0
  5  6  1  0
  5 18  1  0
  6  7  1  0
  6 29  1  0
  6 30  1  0
  7  8  1  0
  7 31  1  0
  7 32  1  0
  8  9  1  0
  8 16  1  0
  9 10  1  0
  9 33  1  0
  9 34  1  0
 10 14  1  0
 10 11  2  0
 11 12  1  0
 12 13  2  0
 12 35  1  0
 13 14  1  0
 13 36  1  0
 14 15  1  0
 15 37  1  0
 15 38  1  0
 15 39  1  0
 16 17  1  0
 16 40  1  0
 16 41  1  0
 17 42  1  0
 17 43  1  0
 18 19  1  0
 19 20  1  0
 19 44  1  0
 19 45  1  0
 20 21  2  0
M  END
>  <i_m_ct_stereo_status>  (202) 
1

>  <s_m_source_file>  (202) 
/var/tmp/pbs.5076255.sched01/tmpuxvxg9lz/41q4u19exn.sdf

>  <i_m_source_file_index>  (202) 
40

>  <i_lp_mmshare_version>  (202) 
48012

>  <i_f3d_flags>  (202) 
0

>  <s_epik_input>  (202) 
TzFbQ0gyXUMoPU8pTihbQ0gyXVtDSDNdKVtDSDJdQzEyW0NIMl1bQ0gyXU4oW0NIMl1bQ0gyXTIpW0NIMl1jM25bY0hdW2NIXW4zW0NIM10=

>  <s_epik_cmdline>  (202) 
J2VwaWtfcHl0aG9uJywgJy1waHQnLCAnMi4wJywgJy1waCcsICc3LjAnLCAnLXRuJywgJzgnLCAnLW1hJywgJzIwMCcsICctaW1hZScsICc8aW5maWxlLm1hZT4nLCAnLW9tYWUnLCAnPG91dGZpbGUubWFlPic=

>  <r_lp_tautomer_probability>  (202) 
1

>  <r_epik_Ionization_Penalty>  (202) 
2.42445

>  <r_epik_Ionization_Penalty_Charging>  (202) 
2.26

>  <r_epik_Ionization_Penalty_Neutral>  (202) 
0.164453

>  <r_epik_State_Penalty>  (202) 
1.53329

>  <r_epik_Charging_Adjusted_Penalty>  (202) 
3.79329

>  <i_epik_Tot_Q>  (202) 
0

>  <i_epik_Tot_abs_Q>  (202) 
0

>  <s_lp_Force_Field>  (202) 
OPLS3e

>  <r_lp_Energy>  (202) 
31.6608

>  <b_lp_Chiralities_Consistent>  (202) 
1

>  <s_lp_Variant>  (202) 
50:0-3

>  <s_i_glide_gridfile>  (202) 
pfpi4k_grid

>  <i_i_glide_lignum>  (202) 
40

>  <i_i_glide_rotatable_bonds>  (202) 
3

>  <r_i_docking_score>  (202) 
-3.42312

>  <r_i_glide_ligand_efficiency>  (202) 
-0.163006

>  <r_i_glide_ligand_efficiency_sa>  (202) 
-0.449721

>  <r_i_glide_ligand_efficiency_ln>  (202) 
-0.84636

>  <r_i_glide_gscore>  (202) 
-3.42312

>  <r_i_glide_lipo>  (202) 
-0.519925

>  <r_i_glide_hbond>  (202) 
-0.0631407

>  <r_i_glide_metal>  (202) 
-0

>  <r_i_glide_rewards>  (202) 
-1.41561

>  <r_i_glide_evdw>  (202) 
-27.1076

>  <r_i_glide_ecoul>  (202) 
-2.69023

>  <r_i_glide_erotb>  (202) 
0.42712

>  <r_i_glide_esite>  (202) 
-0.0926479

>  <r_i_glide_emodel>  (202) 
-36.5843

>  <r_i_glide_energy>  (202) 
-29.7979

>  <r_i_glide_einternal>  (202) 
1.3305

>  <r_i_glide_intrahb_reward>  (202) 
-0

>  <i_i_glide_confnum>  (202) 
5

>  <i_i_glide_posenum>  (202) 
14

>  <r_i_glide_eff_state_penalty>  (202) 
0

>  <ligand_id>  (202) 
50

>  <original_smiles>  (202) 
CCN1CC2(CCN(Cc3nccn3C)CC2)OCC1=O

>  <smiles>  (202) 
[H]c1nc(C([H])([H])N2C([H])([H])C([H])([H])C3(OC([H])([H])C(=O)N(C([H])([H])C([H])([H])[H])C3([H])[H])C([H])([H])C2([H])[H])n(C([H])([H])[H])c1[H]

$$$$
51:0:0
     RDKit          3D

 55 58  0  0  1  0  0  0  0  0999 V2000
    5.6174   -4.2821    4.0389 C   0  0  0  0  0  0  0  0  0  0  0  0
    5.4601   -3.9651    2.6430 O   0  0  0  0  0  0  0  0  0  0  0  0
    5.1858   -4.9513    1.6958 C   0  0  0  0  0  0  0  0  0  0  0  0
    6.3851   -5.6218    1.3532 O   0  0  0  0  0  0  0  0  0  0  0  0
    7.0746   -6.4498    2.2987 C   0  0  0  0  0  0  0  0  0  0  0  0
    4.2401   -5.8505    2.2063 O   0  0  0  0  0  0  0  0  0  0  0  0
    2.8326   -5.6964    2.1160 C   0  0  1  0  0  0  0  0  0  0  0  0
    2.3232   -6.9606    2.8359 C   0  0  0  0  0  0  0  0  0  0  0  0
    2.1858   -4.4800    2.8788 C   0  0  0  0  0  0  0  0  0  0  0  0
    2.6717   -3.0395    2.6117 C   0  0  0  0  0  0  0  0  0  0  0  0
    2.8637   -2.5663    1.1391 C   0  0  1  0  0  0  0  0  0  0  0  0
    3.6256   -1.2074    1.0315 C   0  0  1  0  0  0  0  0  0  0  0  0
    2.8275   -0.0743    1.7105 C   0  0  0  0  0  0  0  0  0  0  0  0
    5.0759   -1.2076    1.5649 C   0  0  0  0  0  0  0  0  0  0  0  0
    6.1719   -2.0012    0.8097 C   0  0  0  0  0  0  0  0  0  0  0  0
    5.8050   -3.1673   -0.1465 C   0  0  2  0  0  0  0  0  0  0  0  0
    5.5194   -2.5483   -1.4970 C   0  0  0  0  0  0  0  0  0  0  0  0
    4.2954   -2.4925   -2.0529 C   0  0  0  0  0  0  0  0  0  0  0  0
    4.0691   -1.8350   -3.4045 C   0  0  0  0  0  0  0  0  0  0  0  0
    3.0851   -3.0990   -1.3657 C   0  0  0  0  0  0  0  0  0  0  0  0
    3.2724   -3.6470    0.0995 C   0  0  2  0  0  0  0  0  0  0  0  0
    2.1321   -4.5183    0.1848 O   0  0  0  0  0  0  0  0  0  0  0  0
    2.4451   -5.8516    0.7656 O   0  0  0  0  0  0  0  0  0  0  0  0
    4.7358   -4.2515    0.2996 C   0  0  2  0  0  0  0  0  0  0  0  0
    4.8509   -5.2393   -0.7196 O   0  0  0  0  0  0  0  0  0  0  0  0
    5.5846   -3.3239    4.5680 H   0  0  0  0  0  0  0  0  0  0  0  0
    6.5288   -4.7697    4.2975 H   0  0  0  0  0  0  0  0  0  0  0  0
    4.7654   -4.8812    4.3847 H   0  0  0  0  0  0  0  0  0  0  0  0
    7.9018   -6.9340    1.7754 H   0  0  0  0  0  0  0  0  0  0  0  0
    6.4179   -7.2472    2.6783 H   0  0  0  0  0  0  0  0  0  0  0  0
    7.5056   -5.8854    3.0836 H   0  0  0  0  0  0  0  0  0  0  0  0
    2.6862   -7.8606    2.3424 H   0  0  0  0  0  0  0  0  0  0  0  0
    1.2321   -7.0304    2.8661 H   0  0  0  0  0  0  0  0  0  0  0  0
    2.6635   -7.0142    3.8734 H   0  0  0  0  0  0  0  0  0  0  0  0
    1.1018   -4.5024    2.7703 H   0  0  0  0  0  0  0  0  0  0  0  0
    2.3255   -4.6291    3.9482 H   0  0  0  0  0  0  0  0  0  0  0  0
    1.9499   -2.3669    3.0819 H   0  0  0  0  0  0  0  0  0  0  0  0
    3.5521   -2.8462    3.2059 H   0  0  0  0  0  0  0  0  0  0  0  0
    1.8420   -2.3206    0.8468 H   0  0  0  0  0  0  0  0  0  0  0  0
    3.6580   -0.9097   -0.0156 H   0  0  0  0  0  0  0  0  0  0  0  0
    2.7844   -0.1906    2.7943 H   0  0  0  0  0  0  0  0  0  0  0  0
    1.8029   -0.0282    1.3400 H   0  0  0  0  0  0  0  0  0  0  0  0
    3.2779    0.8976    1.5109 H   0  0  0  0  0  0  0  0  0  0  0  0
    5.4172   -0.1748    1.5839 H   0  0  0  0  0  0  0  0  0  0  0  0
    5.0935   -1.4854    2.6163 H   0  0  0  0  0  0  0  0  0  0  0  0
    6.7727   -1.2772    0.2536 H   0  0  0  0  0  0  0  0  0  0  0  0
    6.8893   -2.3641    1.5471 H   0  0  0  0  0  0  0  0  0  0  0  0
    6.7360   -3.7060   -0.3145 H   0  0  0  0  0  0  0  0  0  0  0  0
    6.3539   -2.1113   -2.0109 H   0  0  0  0  0  0  0  0  0  0  0  0
    3.6355   -2.5434   -4.1115 H   0  0  0  0  0  0  0  0  0  0  0  0
    4.9981   -1.4679   -3.8380 H   0  0  0  0  0  0  0  0  0  0  0  0
    3.3909   -0.9826   -3.3221 H   0  0  0  0  0  0  0  0  0  0  0  0
    2.2742   -2.3730   -1.4042 H   0  0  0  0  0  0  0  0  0  0  0  0
    2.7666   -3.8947   -2.0380 H   0  0  0  0  0  0  0  0  0  0  0  0
    4.1301   -5.1334   -1.3652 H   0  0  0  0  0  0  0  0  0  0  0  0
  1  2  1  0
  1 26  1  0
  1 27  1  0
  1 28  1  0
  2  3  1  0
  3 24  1  0
  3  4  1  0
  3  6  1  0
  4  5  1  0
  5 29  1  0
  5 30  1  0
  5 31  1  0
  6  7  1  0
  7 23  1  0
  7  8  1  1
  7  9  1  0
  8 32  1  0
  8 33  1  0
  8 34  1  0
  9 10  1  0
  9 35  1  0
  9 36  1  0
 10 11  1  0
 10 37  1  0
 10 38  1  0
 11 21  1  0
 11 12  1  0
 11 39  1  6
 12 13  1  0
 12 14  1  0
 12 40  1  6
 13 41  1  0
 13 42  1  0
 13 43  1  0
 14 15  1  0
 14 44  1  0
 14 45  1  0
 15 16  1  0
 15 46  1  0
 15 47  1  0
 16 24  1  0
 16 17  1  0
 16 48  1  6
 17 18  2  0
 17 49  1  0
 18 19  1  0
 18 20  1  0
 19 50  1  0
 19 51  1  0
 19 52  1  0
 21 20  1  6
 20 53  1  0
 20 54  1  0
 21 22  1  0
 21 24  1  0
 22 23  1  0
 24 25  1  6
 25 55  1  0
M  END
>  <i_m_ct_stereo_status>  (203) 
1

>  <s_m_source_file>  (203) 
/var/tmp/pbs.5076255.sched01/tmpuxvxg9lz/41q4u19exn.sdf

>  <i_m_source_file_index>  (203) 
41

>  <i_lp_mmshare_version>  (203) 
48012

>  <i_f3d_flags>  (203) 
0

>  <s_epik_input>  (203) 
W0NAQF0xMjNbQ0BIXTRbQ0gyXVtDSDJdW0NAQF0oW0NIM10pKE9PMilPQyhPW0NIM10pKE9bQ0gzXSlbQ0BdMyhbT0hdKVtDQEBIXShbQ0hdPUMoW0NIM10pW0NIMl0xKVtDSDJdW0NIMl1bQ0BASF00W0NIM10=

>  <s_epik_cmdline>  (203) 
J2VwaWtfcHl0aG9uJywgJy1waHQnLCAnMi4wJywgJy1waCcsICc3LjAnLCAnLXRuJywgJzgnLCAnLW1hJywgJzIwMCcsICctaW1hZScsICc8aW5maWxlLm1hZT4nLCAnLW9tYWUnLCAnPG91dGZpbGUubWFlPic=

>  <r_lp_tautomer_probability>  (203) 
1

>  <r_epik_Ionization_Penalty>  (203) 
6.61811e-08

>  <r_epik_Ionization_Penalty_Charging>  (203) 
0

>  <r_epik_Ionization_Penalty_Neutral>  (203) 
6.61811e-08

>  <r_epik_State_Penalty>  (203) 
-0

>  <r_epik_Charging_Adjusted_Penalty>  (203) 
0

>  <i_epik_Tot_Q>  (203) 
0

>  <i_epik_Tot_abs_Q>  (203) 
0

>  <s_lp_Force_Field>  (203) 
OPLS3e

>  <r_lp_Energy>  (203) 
53.5861

>  <b_lp_Chiralities_Consistent>  (203) 
1

>  <s_lp_Variant>  (203) 
51:0-1

>  <s_i_glide_gridfile>  (203) 
pfpi4k_grid

>  <i_i_glide_lignum>  (203) 
41

>  <i_i_glide_rotatable_bonds>  (203) 
3

>  <r_i_docking_score>  (203) 
-3.04974

>  <r_i_glide_ligand_efficiency>  (203) 
-0.12199

>  <r_i_glide_ligand_efficiency_sa>  (203) 
-0.3567

>  <r_i_glide_ligand_efficiency_ln>  (203) 
-0.72288

>  <r_i_glide_gscore>  (203) 
-3.04974

>  <r_i_glide_lipo>  (203) 
-0.528386

>  <r_i_glide_hbond>  (203) 
-0.0114116

>  <r_i_glide_metal>  (203) 
-0

>  <r_i_glide_rewards>  (203) 
-1.03921

>  <r_i_glide_evdw>  (203) 
-19.1828

>  <r_i_glide_ecoul>  (203) 
-3.3803

>  <r_i_glide_erotb>  (203) 
0

>  <r_i_glide_esite>  (203) 
-0.00454676

>  <r_i_glide_emodel>  (203) 
-25.1767

>  <r_i_glide_energy>  (203) 
-22.5631

>  <r_i_glide_einternal>  (203) 
1.59547

>  <r_i_glide_intrahb_reward>  (203) 
-0

>  <i_i_glide_confnum>  (203) 
1

>  <i_i_glide_posenum>  (203) 
36

>  <r_i_glide_eff_state_penalty>  (203) 
0

>  <ligand_id>  (203) 
51

>  <original_smiles>  (203) 
COC1(OC)OC2(C)CCC3C(C)CCC4C=C(C)CC3(OO2)C41O

>  <smiles>  (203) 
[H]OC12C(OC([H])([H])[H])(OC([H])([H])[H])OC3(C([H])([H])[H])OOC14C([H])([H])C(C([H])([H])[H])=C([H])C2([H])C([H])([H])C([H])([H])C([H])(C([H])([H])[H])C4([H])C([H])([H])C3([H])[H]

$$$$
51:0:1
     RDKit          3D

 55 58  0  0  1  0  0  0  0  0999 V2000
    5.6642   -4.4760    3.8004 C   0  0  0  0  0  0  0  0  0  0  0  0
    5.5100   -4.0611    2.4461 O   0  0  0  0  0  0  0  0  0  0  0  0
    5.2972   -4.9767    1.4159 C   0  0  0  0  0  0  0  0  0  0  0  0
    6.5387   -5.5551    1.0411 O   0  0  0  0  0  0  0  0  0  0  0  0
    7.2419   -6.4295    1.9064 C   0  0  0  0  0  0  0  0  0  0  0  0
    4.4012   -5.9678    1.8363 O   0  0  0  0  0  0  0  0  0  0  0  0
    2.9846   -5.8730    1.7509 C   0  0  1  0  0  0  0  0  0  0  0  0
    2.5411   -7.2320    2.3404 C   0  0  0  0  0  0  0  0  0  0  0  0
    2.2707   -4.7676    2.5977 C   0  0  0  0  0  0  0  0  0  0  0  0
    2.6778   -3.2838    2.4558 C   0  0  0  0  0  0  0  0  0  0  0  0
    2.8559   -2.6698    1.0347 C   0  0  1  0  0  0  0  0  0  0  0  0
    3.5459   -1.2756    1.0529 C   0  0  1  0  0  0  0  0  0  0  0  0
    2.6776   -0.2515    1.8115 C   0  0  0  0  0  0  0  0  0  0  0  0
    4.9870   -1.2423    1.6093 C   0  0  0  0  0  0  0  0  0  0  0  0
    6.1366   -1.9067    0.8099 C   0  0  0  0  0  0  0  0  0  0  0  0
    5.8416   -3.0047   -0.2488 C   0  0  2  0  0  0  0  0  0  0  0  0
    5.5408   -2.2867   -1.5391 C   0  0  0  0  0  0  0  0  0  0  0  0
    4.3052   -2.2548   -2.1229 C   0  0  0  0  0  0  0  0  0  0  0  0
    4.0745   -1.5026   -3.4086 C   0  0  0  0  0  0  0  0  0  0  0  0
    3.1298   -2.9866   -1.5130 C   0  0  0  0  0  0  0  0  0  0  0  0
    3.3321   -3.6398   -0.0858 C   0  0  2  0  0  0  0  0  0  0  0  0
    2.2199   -4.5587   -0.0619 O   0  0  0  0  0  0  0  0  0  0  0  0
    2.6009   -5.9168    0.3953 O   0  0  0  0  0  0  0  0  0  0  0  0
    4.8320   -4.1791    0.0855 C   0  0  2  0  0  0  0  0  0  0  0  0
    5.0075   -5.0357   -1.0517 O   0  0  0  0  0  0  0  0  0  0  0  0
    5.5796   -3.5767    4.4332 H   0  0  0  0  0  0  0  0  0  0  0  0
    6.6029   -4.9149    4.0576 H   0  0  0  0  0  0  0  0  0  0  0  0
    4.8800   -5.1714    4.1049 H   0  0  0  0  0  0  0  0  0  0  0  0
    8.1202   -6.8226    1.3686 H   0  0  0  0  0  0  0  0  0  0  0  0
    6.6418   -7.2913    2.2012 H   0  0  0  0  0  0  0  0  0  0  0  0
    7.6593   -5.9532    2.7595 H   0  0  0  0  0  0  0  0  0  0  0  0
    2.9609   -8.0606    1.7756 H   0  0  0  0  0  0  0  0  0  0  0  0
    1.4542   -7.3557    2.3433 H   0  0  0  0  0  0  0  0  0  0  0  0
    2.8717   -7.3497    3.3743 H   0  0  0  0  0  0  0  0  0  0  0  0
    1.1899   -4.8412    2.4591 H   0  0  0  0  0  0  0  0  0  0  0  0
    2.4018   -5.0022    3.6501 H   0  0  0  0  0  0  0  0  0  0  0  0
    1.9126   -2.6983    2.9654 H   0  0  0  0  0  0  0  0  0  0  0  0
    3.5362   -3.0996    3.0800 H   0  0  0  0  0  0  0  0  0  0  0  0
    1.8287   -2.4563    0.7393 H   0  0  0  0  0  0  0  0  0  0  0  0
    3.5759   -0.8892    0.0340 H   0  0  0  0  0  0  0  0  0  0  0  0
    2.6275   -0.4629    2.8799 H   0  0  0  0  0  0  0  0  0  0  0  0
    1.6565   -0.2305    1.4288 H   0  0  0  0  0  0  0  0  0  0  0  0
    3.0747    0.7574    1.7017 H   0  0  0  0  0  0  0  0  0  0  0  0
    5.2700   -0.1969    1.7226 H   0  0  0  0  0  0  0  0  0  0  0  0
    5.0057   -1.6099    2.6328 H   0  0  0  0  0  0  0  0  0  0  0  0
    6.7003   -1.1083    0.3257 H   0  0  0  0  0  0  0  0  0  0  0  0
    6.8628   -2.2948    1.5259 H   0  0  0  0  0  0  0  0  0  0  0  0
    6.8025   -3.4774   -0.4451 H   0  0  0  0  0  0  0  0  0  0  0  0
    6.3496   -1.7698   -2.0068 H   0  0  0  0  0  0  0  0  0  0  0  0
    3.6896   -2.1669   -4.1842 H   0  0  0  0  0  0  0  0  0  0  0  0
    4.9889   -1.0520   -3.7960 H   0  0  0  0  0  0  0  0  0  0  0  0
    3.3519   -0.6936   -3.2686 H   0  0  0  0  0  0  0  0  0  0  0  0
    2.2818   -2.3061   -1.5048 H   0  0  0  0  0  0  0  0  0  0  0  0
    2.8786   -3.7602   -2.2450 H   0  0  0  0  0  0  0  0  0  0  0  0
    4.1712   -5.4256   -1.2809 H   0  0  0  0  0  0  0  0  0  0  0  0
  1  2  1  0
  1 26  1  0
  1 27  1  0
  1 28  1  0
  2  3  1  0
  3 24  1  0
  3  4  1  0
  3  6  1  0
  4  5  1  0
  5 29  1  0
  5 30  1  0
  5 31  1  0
  6  7  1  0
  7 23  1  0
  7  8  1  1
  7  9  1  0
  8 32  1  0
  8 33  1  0
  8 34  1  0
  9 10  1  0
  9 35  1  0
  9 36  1  0
 10 11  1  0
 10 37  1  0
 10 38  1  0
 11 21  1  0
 11 12  1  0
 11 39  1  6
 12 13  1  0
 12 14  1  0
 12 40  1  6
 13 41  1  0
 13 42  1  0
 13 43  1  0
 14 15  1  0
 14 44  1  0
 14 45  1  0
 15 16  1  0
 15 46  1  0
 15 47  1  0
 16 24  1  0
 16 17  1  0
 16 48  1  6
 17 18  2  0
 17 49  1  0
 18 19  1  0
 18 20  1  0
 19 50  1  0
 19 51  1  0
 19 52  1  0
 21 20  1  6
 20 53  1  0
 20 54  1  0
 21 22  1  0
 21 24  1  0
 22 23  1  0
 24 25  1  6
 25 55  1  0
M  END
>  <i_m_ct_stereo_status>  (204) 
1

>  <s_m_source_file>  (204) 
/var/tmp/pbs.5076255.sched01/tmpuxvxg9lz/41q4u19exn.sdf

>  <i_m_source_file_index>  (204) 
41

>  <i_lp_mmshare_version>  (204) 
48012

>  <i_f3d_flags>  (204) 
0

>  <s_epik_input>  (204) 
W0NAQF0xMjNbQ0BIXTRbQ0gyXVtDSDJdW0NAQF0oW0NIM10pKE9PMilPQyhPW0NIM10pKE9bQ0gzXSlbQ0BdMyhbT0hdKVtDQEBIXShbQ0hdPUMoW0NIM10pW0NIMl0xKVtDSDJdW0NIMl1bQ0BASF00W0NIM10=

>  <s_epik_cmdline>  (204) 
J2VwaWtfcHl0aG9uJywgJy1waHQnLCAnMi4wJywgJy1waCcsICc3LjAnLCAnLXRuJywgJzgnLCAnLW1hJywgJzIwMCcsICctaW1hZScsICc8aW5maWxlLm1hZT4nLCAnLW9tYWUnLCAnPG91dGZpbGUubWFlPic=

>  <r_lp_tautomer_probability>  (204) 
1

>  <r_epik_Ionization_Penalty>  (204) 
6.61811e-08

>  <r_epik_Ionization_Penalty_Charging>  (204) 
0

>  <r_epik_Ionization_Penalty_Neutral>  (204) 
6.61811e-08

>  <r_epik_State_Penalty>  (204) 
-0

>  <r_epik_Charging_Adjusted_Penalty>  (204) 
0

>  <i_epik_Tot_Q>  (204) 
0

>  <i_epik_Tot_abs_Q>  (204) 
0

>  <s_lp_Force_Field>  (204) 
OPLS3e

>  <r_lp_Energy>  (204) 
53.5861

>  <b_lp_Chiralities_Consistent>  (204) 
1

>  <s_lp_Variant>  (204) 
51:0-1

>  <s_i_glide_gridfile>  (204) 
pfpi4k_grid

>  <i_i_glide_lignum>  (204) 
41

>  <i_i_glide_rotatable_bonds>  (204) 
3

>  <r_i_docking_score>  (204) 
-2.97819

>  <r_i_glide_ligand_efficiency>  (204) 
-0.119128

>  <r_i_glide_ligand_efficiency_sa>  (204) 
-0.348331

>  <r_i_glide_ligand_efficiency_ln>  (204) 
-0.705921

>  <r_i_glide_gscore>  (204) 
-2.97819

>  <r_i_glide_lipo>  (204) 
-0.485432

>  <r_i_glide_hbond>  (204) 
-0.00267115

>  <r_i_glide_metal>  (204) 
-0

>  <r_i_glide_rewards>  (204) 
-1.06401

>  <r_i_glide_evdw>  (204) 
-19.9718

>  <r_i_glide_ecoul>  (204) 
-2.84991

>  <r_i_glide_erotb>  (204) 
0

>  <r_i_glide_esite>  (204) 
0

>  <r_i_glide_emodel>  (204) 
-25.631

>  <r_i_glide_energy>  (204) 
-22.8218

>  <r_i_glide_einternal>  (204) 
1.56885

>  <r_i_glide_intrahb_reward>  (204) 
-0

>  <i_i_glide_confnum>  (204) 
1

>  <i_i_glide_posenum>  (204) 
31

>  <r_i_glide_eff_state_penalty>  (204) 
0

>  <ligand_id>  (204) 
51

>  <original_smiles>  (204) 
COC1(OC)OC2(C)CCC3C(C)CCC4C=C(C)CC3(OO2)C41O

>  <smiles>  (204) 
[H]OC12C(OC([H])([H])[H])(OC([H])([H])[H])OC3(C([H])([H])[H])OOC14C([H])([H])C(C([H])([H])[H])=C([H])C2([H])C([H])([H])C([H])([H])C([H])(C([H])([H])[H])C4([H])C([H])([H])C3([H])[H]

$$$$
52:0:0
     RDKit          3D

 31 33  0  0  1  0  0  0  0  0999 V2000
   -0.0909   -6.5355    1.6614 O   0  0  0  0  0  0  0  0  0  0  0  0
    0.8568   -7.2530    1.9962 C   0  0  0  0  0  0  0  0  0  0  0  0
    2.2843   -6.7415    1.7638 C   0  0  0  0  0  0  0  0  0  0  0  0
    2.2829   -5.4601    0.4772 S   0  0  0  0  0  0  0  0  0  0  0  0
    3.9638   -4.9159    0.3423 C   0  0  0  0  0  0  0  0  0  0  0  0
    4.1361   -3.7716   -0.3564 N   0  0  0  0  0  0  0  0  0  0  0  0
    5.3732   -3.2850   -0.5091 N   0  0  0  0  0  0  0  0  0  0  0  0
    6.3748   -3.9818    0.0628 C   0  0  0  0  0  0  0  0  0  0  0  0
    6.1429   -5.1568    0.7700 C   0  0  0  0  0  0  0  0  0  0  0  0
    4.9133   -5.6644    0.9322 N   0  0  0  0  0  0  0  0  0  0  0  0
    7.4070   -5.7573    1.2988 C   0  0  0  0  0  0  0  0  0  0  0  0
    8.5027   -4.7662    0.8148 C   0  0  0  0  0  0  0  0  0  0  0  0
    7.8227   -3.6225    0.0107 C   0  0  0  0  0  0  0  0  0  0  0  0
    0.7112   -8.4507    2.5892 N   0  0  0  0  0  0  0  0  0  0  0  0
   -0.5138   -9.1114    2.9771 C   0  0  0  0  0  0  0  0  0  0  0  0
   -1.7991   -8.9501    2.1962 C   0  0  0  0  0  0  0  0  0  0  0  0
   -1.6520   -8.2989    3.5544 C   0  0  0  0  0  0  0  0  0  0  0  0
    2.6323   -6.3038    2.7046 H   0  0  0  0  0  0  0  0  0  0  0  0
    2.9637   -7.5560    1.4902 H   0  0  0  0  0  0  0  0  0  0  0  0
    7.3641   -5.8168    2.3863 H   0  0  0  0  0  0  0  0  0  0  0  0
    7.5535   -6.7557    0.8850 H   0  0  0  0  0  0  0  0  0  0  0  0
    9.0446   -4.3531    1.6693 H   0  0  0  0  0  0  0  0  0  0  0  0
    9.2278   -5.2896    0.1884 H   0  0  0  0  0  0  0  0  0  0  0  0
    8.1750   -3.5854   -1.0210 H   0  0  0  0  0  0  0  0  0  0  0  0
    7.9902   -2.6478    0.4697 H   0  0  0  0  0  0  0  0  0  0  0  0
    1.5535   -8.9641    2.7997 H   0  0  0  0  0  0  0  0  0  0  0  0
   -0.3687  -10.0966    3.4105 H   0  0  0  0  0  0  0  0  0  0  0  0
   -1.7510   -8.3509    1.2928 H   0  0  0  0  0  0  0  0  0  0  0  0
   -2.4765   -9.7988    2.1414 H   0  0  0  0  0  0  0  0  0  0  0  0
   -2.1907   -8.7387    4.3903 H   0  0  0  0  0  0  0  0  0  0  0  0
   -1.4964   -7.2250    3.6318 H   0  0  0  0  0  0  0  0  0  0  0  0
  1  2  2  0
  2  3  1  0
  2 14  1  0
  3  4  1  0
  3 18  1  0
  3 19  1  0
  4  5  1  0
  5 10  1  0
  5  6  2  0
  6  7  1  0
  7  8  2  0
  8 13  1  0
  8  9  1  0
  9 10  2  0
  9 11  1  0
 11 12  1  0
 11 20  1  0
 11 21  1  0
 12 13  1  0
 12 22  1  0
 12 23  1  0
 13 24  1  0
 13 25  1  0
 14 15  1  0
 14 26  1  0
 15 17  1  0
 15 16  1  0
 15 27  1  0
 16 17  1  0
 16 28  1  0
 16 29  1  0
 17 30  1  0
 17 31  1  0
M  END
>  <i_m_ct_stereo_status>  (205) 
1

>  <s_m_source_file>  (205) 
/var/tmp/pbs.5076255.sched01/tmp1t990xkq/82z3oanzij.sdf

>  <i_m_source_file_index>  (205) 
1

>  <i_lp_mmshare_version>  (205) 
48012

>  <i_f3d_flags>  (205) 
0

>  <s_epik_input>  (205) 
W0NIMl0xW0NIMl1bQ0hdMVtOSF1DKD1PKVtDSDJdU2Mobm4yKW5jKGMyMylbQ0gyXVtDSDJdW0NIMl0z

>  <s_epik_cmdline>  (205) 
J2VwaWtfcHl0aG9uJywgJy1waHQnLCAnMi4wJywgJy1waCcsICc3LjAnLCAnLXRuJywgJzgnLCAnLW1hJywgJzIwMCcsICctaW1hZScsICc8aW5maWxlLm1hZT4nLCAnLW9tYWUnLCAnPG91dGZpbGUubWFlPic=

>  <r_lp_tautomer_probability>  (205) 
1

>  <r_epik_Ionization_Penalty>  (205) 
1.08886e-07

>  <r_epik_Ionization_Penalty_Charging>  (205) 
0

>  <r_epik_Ionization_Penalty_Neutral>  (205) 
1.08886e-07

>  <r_epik_State_Penalty>  (205) 
-0

>  <r_epik_Charging_Adjusted_Penalty>  (205) 
0

>  <i_epik_Tot_Q>  (205) 
0

>  <i_epik_Tot_abs_Q>  (205) 
0

>  <s_lp_Force_Field>  (205) 
OPLS3e

>  <r_lp_Energy>  (205) 
20.6285

>  <b_lp_Chiralities_Consistent>  (205) 
1

>  <s_lp_Variant>  (205) 
52:0-1

>  <s_i_glide_gridfile>  (205) 
pfpi4k_grid

>  <i_i_glide_lignum>  (205) 
1

>  <i_i_glide_rotatable_bonds>  (205) 
5

>  <r_i_docking_score>  (205) 
-3.62331

>  <r_i_glide_ligand_efficiency>  (205) 
-0.213136

>  <r_i_glide_ligand_efficiency_sa>  (205) 
-0.548033

>  <r_i_glide_ligand_efficiency_ln>  (205) 
-0.945242

>  <r_i_glide_gscore>  (205) 
-3.62331

>  <r_i_glide_lipo>  (205) 
-0.696838

>  <r_i_glide_hbond>  (205) 
-0.277445

>  <r_i_glide_metal>  (205) 
-0

>  <r_i_glide_rewards>  (205) 
-1.72224

>  <r_i_glide_evdw>  (205) 
-23.3276

>  <r_i_glide_ecoul>  (205) 
-3.4554

>  <r_i_glide_erotb>  (205) 
0.838154

>  <r_i_glide_esite>  (205) 
-0.0802565

>  <r_i_glide_emodel>  (205) 
-28.5383

>  <r_i_glide_energy>  (205) 
-26.783

>  <r_i_glide_einternal>  (205) 
10.3518

>  <r_i_glide_intrahb_reward>  (205) 
-0

>  <i_i_glide_confnum>  (205) 
6

>  <i_i_glide_posenum>  (205) 
22

>  <r_i_glide_eff_state_penalty>  (205) 
0

>  <ligand_id>  (205) 
52

>  <original_smiles>  (205) 
O=C(CSc1nnc2c(n1)CCC2)NC1CC1

>  <smiles>  (205) 
[H]N(C(=O)C([H])([H])Sc1nnc2c(n1)C([H])([H])C([H])([H])C2([H])[H])C1([H])C([H])([H])C1([H])[H]

$$$$
52:0:1
     RDKit          3D

 31 33  0  0  1  0  0  0  0  0999 V2000
    0.2000   -6.2683    1.4488 O   0  0  0  0  0  0  0  0  0  0  0  0
    1.2374   -6.8869    1.6789 C   0  0  0  0  0  0  0  0  0  0  0  0
    2.5632   -6.3499    1.1330 C   0  0  0  0  0  0  0  0  0  0  0  0
    3.0327   -4.7680    1.9108 S   0  0  0  0  0  0  0  0  0  0  0  0
    3.4375   -3.6884    0.5344 C   0  0  0  0  0  0  0  0  0  0  0  0
    4.3941   -2.7758    0.8010 N   0  0  0  0  0  0  0  0  0  0  0  0
    4.7268   -1.8893   -0.1571 N   0  0  0  0  0  0  0  0  0  0  0  0
    4.0664   -1.9840   -1.3288 C   0  0  0  0  0  0  0  0  0  0  0  0
    3.0946   -2.9477   -1.5485 C   0  0  0  0  0  0  0  0  0  0  0  0
    2.7395   -3.8351   -0.6000 N   0  0  0  0  0  0  0  0  0  0  0  0
    2.5276   -2.8667   -2.9369 C   0  0  0  0  0  0  0  0  0  0  0  0
    3.3085   -1.6822   -3.5811 C   0  0  0  0  0  0  0  0  0  0  0  0
    4.3025   -1.1178   -2.5277 C   0  0  0  0  0  0  0  0  0  0  0  0
    1.2601   -8.0161    2.4070 N   0  0  0  0  0  0  0  0  0  0  0  0
    0.1390   -8.5745    3.0932 C   0  0  0  0  0  0  0  0  0  0  0  0
    0.4219   -9.6621    4.1126 C   0  0  0  0  0  0  0  0  0  0  0  0
   -0.2640  -10.0074    2.8209 C   0  0  0  0  0  0  0  0  0  0  0  0
    3.3561   -7.0781    1.3063 H   0  0  0  0  0  0  0  0  0  0  0  0
    2.4755   -6.2512    0.0566 H   0  0  0  0  0  0  0  0  0  0  0  0
    2.6990   -3.8012   -3.4715 H   0  0  0  0  0  0  0  0  0  0  0  0
    1.4572   -2.6683   -2.8937 H   0  0  0  0  0  0  0  0  0  0  0  0
    3.8491   -2.0140   -4.4683 H   0  0  0  0  0  0  0  0  0  0  0  0
    2.6205   -0.8974   -3.9061 H   0  0  0  0  0  0  0  0  0  0  0  0
    4.1065   -0.0683   -2.3106 H   0  0  0  0  0  0  0  0  0  0  0  0
    5.3375   -1.2128   -2.8485 H   0  0  0  0  0  0  0  0  0  0  0  0
    2.1365   -8.5024    2.5202 H   0  0  0  0  0  0  0  0  0  0  0  0
   -0.6696   -7.8959    3.3599 H   0  0  0  0  0  0  0  0  0  0  0  0
    1.4464  -10.0080    4.2395 H   0  0  0  0  0  0  0  0  0  0  0  0
   -0.1844   -9.6788    5.0170 H   0  0  0  0  0  0  0  0  0  0  0  0
   -1.3266  -10.2388    2.8732 H   0  0  0  0  0  0  0  0  0  0  0  0
    0.2966  -10.5753    2.0819 H   0  0  0  0  0  0  0  0  0  0  0  0
  1  2  2  0
  2  3  1  0
  2 14  1  0
  3  4  1  0
  3 18  1  0
  3 19  1  0
  4  5  1  0
  5 10  1  0
  5  6  2  0
  6  7  1  0
  7  8  2  0
  8 13  1  0
  8  9  1  0
  9 10  2  0
  9 11  1  0
 11 12  1  0
 11 20  1  0
 11 21  1  0
 12 13  1  0
 12 22  1  0
 12 23  1  0
 13 24  1  0
 13 25  1  0
 14 15  1  0
 14 26  1  0
 15 17  1  0
 15 16  1  0
 15 27  1  0
 16 17  1  0
 16 28  1  0
 16 29  1  0
 17 30  1  0
 17 31  1  0
M  END
>  <i_m_ct_stereo_status>  (206) 
1

>  <s_m_source_file>  (206) 
/var/tmp/pbs.5076255.sched01/tmp1t990xkq/82z3oanzij.sdf

>  <i_m_source_file_index>  (206) 
1

>  <i_lp_mmshare_version>  (206) 
48012

>  <i_f3d_flags>  (206) 
0

>  <s_epik_input>  (206) 
W0NIMl0xW0NIMl1bQ0hdMVtOSF1DKD1PKVtDSDJdU2Mobm4yKW5jKGMyMylbQ0gyXVtDSDJdW0NIMl0z

>  <s_epik_cmdline>  (206) 
J2VwaWtfcHl0aG9uJywgJy1waHQnLCAnMi4wJywgJy1waCcsICc3LjAnLCAnLXRuJywgJzgnLCAnLW1hJywgJzIwMCcsICctaW1hZScsICc8aW5maWxlLm1hZT4nLCAnLW9tYWUnLCAnPG91dGZpbGUubWFlPic=

>  <r_lp_tautomer_probability>  (206) 
1

>  <r_epik_Ionization_Penalty>  (206) 
1.08886e-07

>  <r_epik_Ionization_Penalty_Charging>  (206) 
0

>  <r_epik_Ionization_Penalty_Neutral>  (206) 
1.08886e-07

>  <r_epik_State_Penalty>  (206) 
-0

>  <r_epik_Charging_Adjusted_Penalty>  (206) 
0

>  <i_epik_Tot_Q>  (206) 
0

>  <i_epik_Tot_abs_Q>  (206) 
0

>  <s_lp_Force_Field>  (206) 
OPLS3e

>  <r_lp_Energy>  (206) 
20.6285

>  <b_lp_Chiralities_Consistent>  (206) 
1

>  <s_lp_Variant>  (206) 
52:0-1

>  <s_i_glide_gridfile>  (206) 
pfpi4k_grid

>  <i_i_glide_lignum>  (206) 
1

>  <i_i_glide_rotatable_bonds>  (206) 
5

>  <r_i_docking_score>  (206) 
-3.27838

>  <r_i_glide_ligand_efficiency>  (206) 
-0.192846

>  <r_i_glide_ligand_efficiency_sa>  (206) 
-0.495861

>  <r_i_glide_ligand_efficiency_ln>  (206) 
-0.855256

>  <r_i_glide_gscore>  (206) 
-3.27838

>  <r_i_glide_lipo>  (206) 
-0.285159

>  <r_i_glide_hbond>  (206) 
-0.240093

>  <r_i_glide_metal>  (206) 
-0

>  <r_i_glide_rewards>  (206) 
-1.70236

>  <r_i_glide_evdw>  (206) 
-23.6736

>  <r_i_glide_ecoul>  (206) 
-4.06265

>  <r_i_glide_erotb>  (206) 
0.838154

>  <r_i_glide_esite>  (206) 
-0.0958462

>  <r_i_glide_emodel>  (206) 
-33.4143

>  <r_i_glide_energy>  (206) 
-27.7362

>  <r_i_glide_einternal>  (206) 
1.73966

>  <r_i_glide_intrahb_reward>  (206) 
-0

>  <i_i_glide_confnum>  (206) 
2

>  <i_i_glide_posenum>  (206) 
2

>  <r_i_glide_eff_state_penalty>  (206) 
0

>  <ligand_id>  (206) 
52

>  <original_smiles>  (206) 
O=C(CSc1nnc2c(n1)CCC2)NC1CC1

>  <smiles>  (206) 
[H]N(C(=O)C([H])([H])Sc1nnc2c(n1)C([H])([H])C([H])([H])C2([H])[H])C1([H])C([H])([H])C1([H])[H]

$$$$
52:0:2
     RDKit          3D

 31 33  0  0  1  0  0  0  0  0999 V2000
   -1.3086    0.4430    4.1099 O   0  0  0  0  0  0  0  0  0  0  0  0
   -1.1788    1.5297    3.5452 C   0  0  0  0  0  0  0  0  0  0  0  0
   -2.2153    2.6228    3.7673 C   0  0  0  0  0  0  0  0  0  0  0  0
   -2.0963    3.3472    5.4406 S   0  0  0  0  0  0  0  0  0  0  0  0
   -0.5852    4.2965    5.4105 C   0  0  0  0  0  0  0  0  0  0  0  0
   -0.1729    4.7194    6.6211 N   0  0  0  0  0  0  0  0  0  0  0  0
    0.9386    5.4827    6.6934 N   0  0  0  0  0  0  0  0  0  0  0  0
    1.5724    5.7543    5.5361 C   0  0  0  0  0  0  0  0  0  0  0  0
    1.1031    5.2963    4.3210 C   0  0  0  0  0  0  0  0  0  0  0  0
   -0.0262    4.5624    4.2214 N   0  0  0  0  0  0  0  0  0  0  0  0
    1.9763    5.7124    3.1814 C   0  0  0  0  0  0  0  0  0  0  0  0
    3.1068    6.5269    3.8743 C   0  0  0  0  0  0  0  0  0  0  0  0
    2.8377    6.5456    5.4058 C   0  0  0  0  0  0  0  0  0  0  0  0
   -0.1340    1.8463    2.7742 N   0  0  0  0  0  0  0  0  0  0  0  0
    1.0725    1.0974    2.7096 C   0  0  0  0  0  0  0  0  0  0  0  0
    2.2625    1.8120    2.1154 C   0  0  0  0  0  0  0  0  0  0  0  0
    1.6072    0.6906    1.3618 C   0  0  0  0  0  0  0  0  0  0  0  0
   -2.1595    3.3950    2.9953 H   0  0  0  0  0  0  0  0  0  0  0  0
   -3.2032    2.1720    3.6757 H   0  0  0  0  0  0  0  0  0  0  0  0
    2.3792    4.8440    2.6648 H   0  0  0  0  0  0  0  0  0  0  0  0
    1.3882    6.3069    2.4851 H   0  0  0  0  0  0  0  0  0  0  0  0
    4.0848    6.0817    3.6728 H   0  0  0  0  0  0  0  0  0  0  0  0
    3.1430    7.5484    3.4892 H   0  0  0  0  0  0  0  0  0  0  0  0
    2.6967    7.5607    5.7786 H   0  0  0  0  0  0  0  0  0  0  0  0
    3.6513    6.0828    5.9689 H   0  0  0  0  0  0  0  0  0  0  0  0
   -0.1289    2.7541    2.3203 H   0  0  0  0  0  0  0  0  0  0  0  0
    1.2982    0.4419    3.5511 H   0  0  0  0  0  0  0  0  0  0  0  0
    2.1210    2.8109    1.7095 H   0  0  0  0  0  0  0  0  0  0  0  0
    3.2355    1.6109    2.5607 H   0  0  0  0  0  0  0  0  0  0  0  0
    2.1346   -0.2556    1.3062 H   0  0  0  0  0  0  0  0  0  0  0  0
    0.9999    0.9384    0.4961 H   0  0  0  0  0  0  0  0  0  0  0  0
  1  2  2  0
  2  3  1  0
  2 14  1  0
  3  4  1  0
  3 18  1  0
  3 19  1  0
  4  5  1  0
  5 10  1  0
  5  6  2  0
  6  7  1  0
  7  8  2  0
  8 13  1  0
  8  9  1  0
  9 10  2  0
  9 11  1  0
 11 12  1  0
 11 20  1  0
 11 21  1  0
 12 13  1  0
 12 22  1  0
 12 23  1  0
 13 24  1  0
 13 25  1  0
 14 15  1  0
 14 26  1  0
 15 17  1  0
 15 16  1  0
 15 27  1  0
 16 17  1  0
 16 28  1  0
 16 29  1  0
 17 30  1  0
 17 31  1  0
M  END
>  <i_m_ct_stereo_status>  (207) 
1

>  <s_m_source_file>  (207) 
/var/tmp/pbs.5076255.sched01/tmp1t990xkq/82z3oanzij.sdf

>  <i_m_source_file_index>  (207) 
1

>  <i_lp_mmshare_version>  (207) 
48012

>  <i_f3d_flags>  (207) 
0

>  <s_epik_input>  (207) 
W0NIMl0xW0NIMl1bQ0hdMVtOSF1DKD1PKVtDSDJdU2Mobm4yKW5jKGMyMylbQ0gyXVtDSDJdW0NIMl0z

>  <s_epik_cmdline>  (207) 
J2VwaWtfcHl0aG9uJywgJy1waHQnLCAnMi4wJywgJy1waCcsICc3LjAnLCAnLXRuJywgJzgnLCAnLW1hJywgJzIwMCcsICctaW1hZScsICc8aW5maWxlLm1hZT4nLCAnLW9tYWUnLCAnPG91dGZpbGUubWFlPic=

>  <r_lp_tautomer_probability>  (207) 
1

>  <r_epik_Ionization_Penalty>  (207) 
1.08886e-07

>  <r_epik_Ionization_Penalty_Charging>  (207) 
0

>  <r_epik_Ionization_Penalty_Neutral>  (207) 
1.08886e-07

>  <r_epik_State_Penalty>  (207) 
-0

>  <r_epik_Charging_Adjusted_Penalty>  (207) 
0

>  <i_epik_Tot_Q>  (207) 
0

>  <i_epik_Tot_abs_Q>  (207) 
0

>  <s_lp_Force_Field>  (207) 
OPLS3e

>  <r_lp_Energy>  (207) 
20.6285

>  <b_lp_Chiralities_Consistent>  (207) 
1

>  <s_lp_Variant>  (207) 
52:0-1

>  <s_i_glide_gridfile>  (207) 
pfpi4k_grid

>  <i_i_glide_lignum>  (207) 
1

>  <i_i_glide_rotatable_bonds>  (207) 
5

>  <r_i_docking_score>  (207) 
-2.48336

>  <r_i_glide_ligand_efficiency>  (207) 
-0.14608

>  <r_i_glide_ligand_efficiency_sa>  (207) 
-0.375613

>  <r_i_glide_ligand_efficiency_ln>  (207) 
-0.647854

>  <r_i_glide_gscore>  (207) 
-2.48336

>  <r_i_glide_lipo>  (207) 
-0.0361112

>  <r_i_glide_hbond>  (207) 
-0.080757

>  <r_i_glide_metal>  (207) 
-0

>  <r_i_glide_rewards>  (207) 
-1.70236

>  <r_i_glide_evdw>  (207) 
-19.1142

>  <r_i_glide_ecoul>  (207) 
-2.81009

>  <r_i_glide_erotb>  (207) 
0.838154

>  <r_i_glide_esite>  (207) 
-0.125068

>  <r_i_glide_emodel>  (207) 
-26.0374

>  <r_i_glide_energy>  (207) 
-21.9243

>  <r_i_glide_einternal>  (207) 
1.36283

>  <r_i_glide_intrahb_reward>  (207) 
-0

>  <i_i_glide_confnum>  (207) 
4

>  <i_i_glide_posenum>  (207) 
7

>  <r_i_glide_eff_state_penalty>  (207) 
0

>  <ligand_id>  (207) 
52

>  <original_smiles>  (207) 
O=C(CSc1nnc2c(n1)CCC2)NC1CC1

>  <smiles>  (207) 
[H]N(C(=O)C([H])([H])Sc1nnc2c(n1)C([H])([H])C([H])([H])C2([H])[H])C1([H])C([H])([H])C1([H])[H]

$$$$
53:0:0
     RDKit          3D

 21 22  0  0  1  0  0  0  0  0999 V2000
   -0.5844   -6.9395    5.1600 C   0  0  0  0  0  0  0  0  0  0  0  0
   -1.0688   -8.3084    4.6590 C   0  0  0  0  0  0  0  0  0  0  0  0
   -1.6072   -8.2631    2.9181 S   0  0  0  0  0  0  0  0  0  0  0  0
   -0.1249   -7.7051    2.1346 C   0  0  0  0  0  0  0  0  0  0  0  0
   -0.0775   -6.6633    1.3120 N   0  0  0  0  0  0  0  0  0  0  0  0
    1.2640   -6.5438    1.0021 N   0  0  0  0  0  0  0  0  0  0  0  0
    1.9706   -7.4474    1.6129 N   0  0  0  0  0  0  0  0  0  0  0  0
    1.1016   -8.2263    2.3037 N   0  0  0  0  0  0  0  0  0  0  0  0
    1.5982   -9.2965    3.1542 C   0  0  0  0  0  0  0  0  0  0  0  0
    2.4112  -10.3638    2.4672 C   0  0  0  0  0  0  0  0  0  0  0  0
    0.9779  -10.6458    2.8755 C   0  0  0  0  0  0  0  0  0  0  0  0
   -0.2756   -6.9985    6.2037 H   0  0  0  0  0  0  0  0  0  0  0  0
   -1.3810   -6.2017    5.0833 H   0  0  0  0  0  0  0  0  0  0  0  0
    0.2750   -6.5744    4.5977 H   0  0  0  0  0  0  0  0  0  0  0  0
   -0.3136   -9.0717    4.8239 H   0  0  0  0  0  0  0  0  0  0  0  0
   -1.9112   -8.6512    5.2547 H   0  0  0  0  0  0  0  0  0  0  0  0
    1.8482   -8.9727    4.1598 H   0  0  0  0  0  0  0  0  0  0  0  0
    2.6191  -10.2513    1.4045 H   0  0  0  0  0  0  0  0  0  0  0  0
    3.1978  -10.8476    3.0429 H   0  0  0  0  0  0  0  0  0  0  0  0
    0.8049  -11.3009    3.7271 H   0  0  0  0  0  0  0  0  0  0  0  0
    0.2350  -10.7123    2.0819 H   0  0  0  0  0  0  0  0  0  0  0  0
  1  2  1  0
  1 12  1  0
  1 13  1  0
  1 14  1  0
  2  3  1  0
  2 15  1  0
  2 16  1  0
  3  4  1  0
  4  8  1  0
  4  5  2  0
  5  6  1  0
  6  7  2  0
  7  8  1  0
  8  9  1  0
  9 11  1  0
  9 10  1  0
  9 17  1  0
 10 11  1  0
 10 18  1  0
 10 19  1  0
 11 20  1  0
 11 21  1  0
M  END
>  <i_m_ct_stereo_status>  (208) 
1

>  <s_m_source_file>  (208) 
/var/tmp/pbs.5076255.sched01/tmp1t990xkq/82z3oanzij.sdf

>  <i_m_source_file_index>  (208) 
2

>  <i_lp_mmshare_version>  (208) 
48012

>  <i_f3d_flags>  (208) 
0

>  <s_epik_input>  (208) 
W0NIM11bQ0gyXVNjMW5ubm4xW0NIXTJbQ0gyXVtDSDJdMg==

>  <s_epik_cmdline>  (208) 
J2VwaWtfcHl0aG9uJywgJy1waHQnLCAnMi4wJywgJy1waCcsICc3LjAnLCAnLXRuJywgJzgnLCAnLW1hJywgJzIwMCcsICctaW1hZScsICc8aW5maWxlLm1hZT4nLCAnLW9tYWUnLCAnPG91dGZpbGUubWFlPic=

>  <r_lp_tautomer_probability>  (208) 
1

>  <r_epik_Ionization_Penalty>  (208) 
1.49497e-10

>  <r_epik_Ionization_Penalty_Charging>  (208) 
0

>  <r_epik_Ionization_Penalty_Neutral>  (208) 
1.49497e-10

>  <r_epik_State_Penalty>  (208) 
-0

>  <r_epik_Charging_Adjusted_Penalty>  (208) 
0

>  <i_epik_Tot_Q>  (208) 
0

>  <i_epik_Tot_abs_Q>  (208) 
0

>  <s_lp_Force_Field>  (208) 
OPLS3e

>  <r_lp_Energy>  (208) 
3.9244

>  <b_lp_Chiralities_Consistent>  (208) 
1

>  <s_lp_Variant>  (208) 
53:0-1

>  <s_i_glide_gridfile>  (208) 
pfpi4k_grid

>  <i_i_glide_lignum>  (208) 
2

>  <i_i_glide_rotatable_bonds>  (208) 
3

>  <r_i_docking_score>  (208) 
-3.13757

>  <r_i_glide_ligand_efficiency>  (208) 
-0.285233

>  <r_i_glide_ligand_efficiency_sa>  (208) 
-0.634353

>  <r_i_glide_ligand_efficiency_ln>  (208) 
-0.923385

>  <r_i_glide_gscore>  (208) 
-3.13757

>  <r_i_glide_lipo>  (208) 
-0.147566

>  <r_i_glide_hbond>  (208) 
0

>  <r_i_glide_metal>  (208) 
-0

>  <r_i_glide_rewards>  (208) 
-2.24839

>  <r_i_glide_evdw>  (208) 
-18.8268

>  <r_i_glide_ecoul>  (208) 
-3.83254

>  <r_i_glide_erotb>  (208) 
1.06512

>  <r_i_glide_esite>  (208) 
-0.290515

>  <r_i_glide_emodel>  (208) 
-26.5009

>  <r_i_glide_energy>  (208) 
-22.6593

>  <r_i_glide_einternal>  (208) 
2.10425

>  <r_i_glide_intrahb_reward>  (208) 
-0

>  <i_i_glide_confnum>  (208) 
4

>  <i_i_glide_posenum>  (208) 
28

>  <r_i_glide_eff_state_penalty>  (208) 
0

>  <ligand_id>  (208) 
53

>  <original_smiles>  (208) 
CCSc1nnnn1C1CC1

>  <smiles>  (208) 
[H]C([H])([H])C([H])([H])Sc1nnnn1C1([H])C([H])([H])C1([H])[H]

$$$$
53:0:1
     RDKit          3D

 21 22  0  0  1  0  0  0  0  0999 V2000
    3.2476    0.4891   -5.2916 C   0  0  0  0  0  0  0  0  0  0  0  0
    4.0524   -0.4896   -4.4303 C   0  0  0  0  0  0  0  0  0  0  0  0
    3.0028   -1.7021   -3.6052 S   0  0  0  0  0  0  0  0  0  0  0  0
    4.1860   -2.5887   -2.6630 C   0  0  0  0  0  0  0  0  0  0  0  0
    5.4620   -2.7328   -2.9694 N   0  0  0  0  0  0  0  0  0  0  0  0
    5.9974   -3.4278   -1.9164 N   0  0  0  0  0  0  0  0  0  0  0  0
    5.0874   -3.7125   -1.0338 N   0  0  0  0  0  0  0  0  0  0  0  0
    3.9268   -3.2024   -1.5008 N   0  0  0  0  0  0  0  0  0  0  0  0
    2.7333   -3.2605   -0.7005 C   0  0  0  0  0  0  0  0  0  0  0  0
    2.3638   -4.6341   -0.1750 C   0  0  0  0  0  0  0  0  0  0  0  0
    1.6014   -4.0089   -1.3487 C   0  0  0  0  0  0  0  0  0  0  0  0
    3.9153    1.2051   -5.7533 H   0  0  0  0  0  0  0  0  0  0  0  0
    2.5210    1.0520   -4.7095 H   0  0  0  0  0  0  0  0  0  0  0  0
    2.7052   -0.0222   -6.0800 H   0  0  0  0  0  0  0  0  0  0  0  0
    4.7576   -1.0423   -5.0494 H   0  0  0  0  0  0  0  0  0  0  0  0
    4.6129    0.0460   -3.6624 H   0  0  0  0  0  0  0  0  0  0  0  0
    2.5859   -2.3605   -0.1153 H   0  0  0  0  0  0  0  0  0  0  0  0
    3.0546   -5.4601   -0.3559 H   0  0  0  0  0  0  0  0  0  0  0  0
    1.8576   -4.7045    0.7825 H   0  0  0  0  0  0  0  0  0  0  0  0
    0.6100   -3.6150   -1.1918 H   0  0  0  0  0  0  0  0  0  0  0  0
    1.7887   -4.3075   -2.3766 H   0  0  0  0  0  0  0  0  0  0  0  0
  1  2  1  0
  1 12  1  0
  1 13  1  0
  1 14  1  0
  2  3  1  0
  2 15  1  0
  2 16  1  0
  3  4  1  0
  4  8  1  0
  4  5  2  0
  5  6  1  0
  6  7  2  0
  7  8  1  0
  8  9  1  0
  9 11  1  0
  9 10  1  0
  9 17  1  0
 10 11  1  0
 10 18  1  0
 10 19  1  0
 11 20  1  0
 11 21  1  0
M  END
>  <i_m_ct_stereo_status>  (209) 
1

>  <s_m_source_file>  (209) 
/var/tmp/pbs.5076255.sched01/tmp1t990xkq/82z3oanzij.sdf

>  <i_m_source_file_index>  (209) 
2

>  <i_lp_mmshare_version>  (209) 
48012

>  <i_f3d_flags>  (209) 
0

>  <s_epik_input>  (209) 
W0NIM11bQ0gyXVNjMW5ubm4xW0NIXTJbQ0gyXVtDSDJdMg==

>  <s_epik_cmdline>  (209) 
J2VwaWtfcHl0aG9uJywgJy1waHQnLCAnMi4wJywgJy1waCcsICc3LjAnLCAnLXRuJywgJzgnLCAnLW1hJywgJzIwMCcsICctaW1hZScsICc8aW5maWxlLm1hZT4nLCAnLW9tYWUnLCAnPG91dGZpbGUubWFlPic=

>  <r_lp_tautomer_probability>  (209) 
1

>  <r_epik_Ionization_Penalty>  (209) 
1.49497e-10

>  <r_epik_Ionization_Penalty_Charging>  (209) 
0

>  <r_epik_Ionization_Penalty_Neutral>  (209) 
1.49497e-10

>  <r_epik_State_Penalty>  (209) 
-0

>  <r_epik_Charging_Adjusted_Penalty>  (209) 
0

>  <i_epik_Tot_Q>  (209) 
0

>  <i_epik_Tot_abs_Q>  (209) 
0

>  <s_lp_Force_Field>  (209) 
OPLS3e

>  <r_lp_Energy>  (209) 
3.9244

>  <b_lp_Chiralities_Consistent>  (209) 
1

>  <s_lp_Variant>  (209) 
53:0-1

>  <s_i_glide_gridfile>  (209) 
pfpi4k_grid

>  <i_i_glide_lignum>  (209) 
2

>  <i_i_glide_rotatable_bonds>  (209) 
3

>  <r_i_docking_score>  (209) 
-3.09273

>  <r_i_glide_ligand_efficiency>  (209) 
-0.281157

>  <r_i_glide_ligand_efficiency_sa>  (209) 
-0.625288

>  <r_i_glide_ligand_efficiency_ln>  (209) 
-0.91019

>  <r_i_glide_gscore>  (209) 
-3.09273

>  <r_i_glide_lipo>  (209) 
-0.675465

>  <r_i_glide_hbond>  (209) 
0

>  <r_i_glide_metal>  (209) 
-0

>  <r_i_glide_rewards>  (209) 
-2.38897

>  <r_i_glide_evdw>  (209) 
-18.7985

>  <r_i_glide_ecoul>  (209) 
-0.951929

>  <r_i_glide_erotb>  (209) 
1.06512

>  <r_i_glide_esite>  (209) 
-0.0107031

>  <r_i_glide_emodel>  (209) 
-24.0726

>  <r_i_glide_energy>  (209) 
-19.7504

>  <r_i_glide_einternal>  (209) 
1.11024

>  <r_i_glide_intrahb_reward>  (209) 
-0

>  <i_i_glide_confnum>  (209) 
2

>  <i_i_glide_posenum>  (209) 
5

>  <r_i_glide_eff_state_penalty>  (209) 
0

>  <ligand_id>  (209) 
53

>  <original_smiles>  (209) 
CCSc1nnnn1C1CC1

>  <smiles>  (209) 
[H]C([H])([H])C([H])([H])Sc1nnnn1C1([H])C([H])([H])C1([H])[H]

$$$$
53:0:2
     RDKit          3D

 21 22  0  0  1  0  0  0  0  0999 V2000
   -2.1405    2.3327    8.9929 C   0  0  0  0  0  0  0  0  0  0  0  0
   -2.9599    2.9890    7.8628 C   0  0  0  0  0  0  0  0  0  0  0  0
   -2.0139    3.2729    6.3251 S   0  0  0  0  0  0  0  0  0  0  0  0
   -1.7850    1.6157    5.7520 C   0  0  0  0  0  0  0  0  0  0  0  0
   -2.1158    0.5161    6.4139 N   0  0  0  0  0  0  0  0  0  0  0  0
   -1.7123   -0.5201    5.5933 N   0  0  0  0  0  0  0  0  0  0  0  0
   -1.1960   -0.0690    4.4951 N   0  0  0  0  0  0  0  0  0  0  0  0
   -1.2728    1.2872    4.5575 N   0  0  0  0  0  0  0  0  0  0  0  0
   -0.7707    2.1158    3.4792 C   0  0  0  0  0  0  0  0  0  0  0  0
   -1.8531    2.7414    2.6332 C   0  0  0  0  0  0  0  0  0  0  0  0
   -1.0246    1.5956    2.0801 C   0  0  0  0  0  0  0  0  0  0  0  0
   -2.7522    2.2181    9.8909 H   0  0  0  0  0  0  0  0  0  0  0  0
   -1.2731    2.9405    9.2511 H   0  0  0  0  0  0  0  0  0  0  0  0
   -1.7689    1.3422    8.7464 H   0  0  0  0  0  0  0  0  0  0  0  0
   -3.8580    2.4209    7.6299 H   0  0  0  0  0  0  0  0  0  0  0  0
   -3.3114    3.9598    8.2108 H   0  0  0  0  0  0  0  0  0  0  0  0
    0.1330    2.6511    3.7335 H   0  0  0  0  0  0  0  0  0  0  0  0
   -2.8915    2.5300    2.8822 H   0  0  0  0  0  0  0  0  0  0  0  0
   -1.6681    3.7381    2.2417 H   0  0  0  0  0  0  0  0  0  0  0  0
   -0.2824    1.8207    1.3188 H   0  0  0  0  0  0  0  0  0  0  0  0
   -1.5344    0.6440    1.9499 H   0  0  0  0  0  0  0  0  0  0  0  0
  1  2  1  0
  1 12  1  0
  1 13  1  0
  1 14  1  0
  2  3  1  0
  2 15  1  0
  2 16  1  0
  3  4  1  0
  4  8  1  0
  4  5  2  0
  5  6  1  0
  6  7  2  0
  7  8  1  0
  8  9  1  0
  9 11  1  0
  9 10  1  0
  9 17  1  0
 10 11  1  0
 10 18  1  0
 10 19  1  0
 11 20  1  0
 11 21  1  0
M  END
>  <i_m_ct_stereo_status>  (210) 
1

>  <s_m_source_file>  (210) 
/var/tmp/pbs.5076255.sched01/tmp1t990xkq/82z3oanzij.sdf

>  <i_m_source_file_index>  (210) 
2

>  <i_lp_mmshare_version>  (210) 
48012

>  <i_f3d_flags>  (210) 
0

>  <s_epik_input>  (210) 
W0NIM11bQ0gyXVNjMW5ubm4xW0NIXTJbQ0gyXVtDSDJdMg==

>  <s_epik_cmdline>  (210) 
J2VwaWtfcHl0aG9uJywgJy1waHQnLCAnMi4wJywgJy1waCcsICc3LjAnLCAnLXRuJywgJzgnLCAnLW1hJywgJzIwMCcsICctaW1hZScsICc8aW5maWxlLm1hZT4nLCAnLW9tYWUnLCAnPG91dGZpbGUubWFlPic=

>  <r_lp_tautomer_probability>  (210) 
1

>  <r_epik_Ionization_Penalty>  (210) 
1.49497e-10

>  <r_epik_Ionization_Penalty_Charging>  (210) 
0

>  <r_epik_Ionization_Penalty_Neutral>  (210) 
1.49497e-10

>  <r_epik_State_Penalty>  (210) 
-0

>  <r_epik_Charging_Adjusted_Penalty>  (210) 
0

>  <i_epik_Tot_Q>  (210) 
0

>  <i_epik_Tot_abs_Q>  (210) 
0

>  <s_lp_Force_Field>  (210) 
OPLS3e

>  <r_lp_Energy>  (210) 
3.9244

>  <b_lp_Chiralities_Consistent>  (210) 
1

>  <s_lp_Variant>  (210) 
53:0-1

>  <s_i_glide_gridfile>  (210) 
pfpi4k_grid

>  <i_i_glide_lignum>  (210) 
2

>  <i_i_glide_rotatable_bonds>  (210) 
3

>  <r_i_docking_score>  (210) 
-2.90897

>  <r_i_glide_ligand_efficiency>  (210) 
-0.264451

>  <r_i_glide_ligand_efficiency_sa>  (210) 
-0.588135

>  <r_i_glide_ligand_efficiency_ln>  (210) 
-0.856108

>  <r_i_glide_gscore>  (210) 
-2.90897

>  <r_i_glide_lipo>  (210) 
-0.211903

>  <r_i_glide_hbond>  (210) 
0

>  <r_i_glide_metal>  (210) 
-0

>  <r_i_glide_rewards>  (210) 
-2.24839

>  <r_i_glide_evdw>  (210) 
-15.3333

>  <r_i_glide_ecoul>  (210) 
-3.34423

>  <r_i_glide_erotb>  (210) 
1.06512

>  <r_i_glide_esite>  (210) 
-0.245498

>  <r_i_glide_emodel>  (210) 
-22.928

>  <r_i_glide_energy>  (210) 
-18.6775

>  <r_i_glide_einternal>  (210) 
0.331209

>  <r_i_glide_intrahb_reward>  (210) 
-0

>  <i_i_glide_confnum>  (210) 
3

>  <i_i_glide_posenum>  (210) 
32

>  <r_i_glide_eff_state_penalty>  (210) 
0

>  <ligand_id>  (210) 
53

>  <original_smiles>  (210) 
CCSc1nnnn1C1CC1

>  <smiles>  (210) 
[H]C([H])([H])C([H])([H])Sc1nnnn1C1([H])C([H])([H])C1([H])[H]

$$$$
54:0:0
     RDKit          3D

 93102  0  0  1  0  0  0  0  0999 V2000
    2.4248   -6.7423    1.8415 C   0  0  0  0  0  0  0  0  0  0  0  0
    3.6956   -5.9101    1.6488 C   0  0  0  0  0  0  0  0  0  0  0  0
    4.6379   -6.3527    0.9958 O   0  0  0  0  0  0  0  0  0  0  0  0
    3.7071   -4.6809    2.2336 O   0  0  0  0  0  0  0  0  0  0  0  0
    2.6358   -4.2035    3.0397 C   0  0  2  0  0  0  0  0  0  0  0  0
    2.5946   -2.6487    3.0261 C   0  0  0  0  0  0  0  0  0  0  0  0
    2.7005   -2.3611    4.5200 C   0  0  0  0  0  0  0  0  0  0  0  0
    3.8440   -1.8415    5.0292 C   0  0  0  0  0  0  0  0  0  0  0  0
    4.7286   -0.9086    4.2175 C   0  0  0  0  0  0  0  0  0  0  0  0
    4.5036   -2.4522    6.2784 C   0  0  2  0  0  0  0  0  0  0  0  0
    4.7263   -4.0211    6.2467 C   0  0  0  0  0  0  0  0  0  0  0  0
    4.1497   -4.8059    5.0473 C   0  0  1  0  0  0  0  0  0  0  0  0
    3.0284   -5.7271    5.1755 O   0  0  0  0  0  0  0  0  0  0  0  0
    2.7713   -4.4904    4.5462 C   0  0  2  0  0  0  0  0  0  0  0  0
    1.8982   -3.4486    5.2171 C   0  0  2  0  0  0  0  0  0  0  0  0
    0.4033   -3.5445    4.7601 C   0  0  0  0  0  0  0  0  0  0  0  0
    1.8362   -3.5112    6.7887 C   0  0  0  0  0  0  0  0  0  0  0  0
    2.3622   -2.3586    7.6746 C   0  0  2  0  0  0  0  0  0  0  0  0
    1.5615   -1.0453    7.7505 C   0  0  2  0  0  0  0  0  0  0  0  0
    0.5716   -0.6064    6.6855 C   0  0  0  0  0  0  0  0  0  0  0  0
    0.4503    0.8965    6.9762 C   0  0  1  0  0  0  0  0  0  0  0  0
    1.9896    1.4268    7.4724 C   0  0  2  0  0  0  0  0  0  0  0  0
    1.8215    2.1382    8.8369 C   0  0  0  0  0  0  0  0  0  0  0  0
    3.0917    2.3328    6.5721 C   0  0  0  0  0  0  0  0  0  0  0  0
    2.9031    3.6750    5.6070 C   0  0  1  0  0  0  0  0  0  0  0  0
    4.2028    3.9338    5.1386 O   0  0  0  0  0  0  0  0  0  0  0  0
    1.8808    3.8670    4.2980 C   0  0  1  0  0  0  0  0  0  0  0  0
    2.1669    5.0362    3.7213 F   0  0  0  0  0  0  0  0  0  0  0  0
    2.0041    2.7605    3.1658 C   0  0  0  0  0  0  0  0  0  0  0  0
    1.3464    1.4384    3.6582 C   0  0  2  0  0  0  0  0  0  0  0  0
    0.0019    1.1393    3.3592 O   0  0  0  0  0  0  0  0  0  0  0  0
   -0.9995    1.3255    4.4195 C   0  0  2  0  0  0  0  0  0  0  0  0
   -1.7312    2.5358    3.7486 C   0  0  1  0  0  0  0  0  0  0  0  0
   -2.9364    2.9330    4.3798 O   0  0  0  0  0  0  0  0  0  0  0  0
   -0.7628    3.7491    3.5939 C   0  0  1  0  0  0  0  0  0  0  0  0
   -1.4521    4.9417    3.2741 O   0  0  0  0  0  0  0  0  0  0  0  0
    0.3596    3.9084    4.7030 C   0  0  2  0  0  0  0  0  0  0  0  0
    0.0297    5.1586    5.5703 C   0  0  0  0  0  0  0  0  0  0  0  0
    0.5047    2.6564    5.5353 C   0  0  2  0  0  0  0  0  0  0  0  0
    1.3898    1.6153    4.9565 O   0  0  0  0  0  0  0  0  0  0  0  0
   -0.4958    1.7109    5.9053 C   0  0  2  0  0  0  0  0  0  0  0  0
   -1.5341    2.3241    6.6520 O   0  0  0  0  0  0  0  0  0  0  0  0
    2.5942    0.0373    7.7401 C   0  0  0  0  0  0  0  0  0  0  0  0
    3.8489   -0.4629    7.7446 C   0  0  0  0  0  0  0  0  0  0  0  0
    5.1822    0.2544    7.8647 C   0  0  0  0  0  0  0  0  0  0  0  0
    3.8484   -1.9749    7.5889 C   0  0  2  0  0  0  0  0  0  0  0  0
    1.5569   -6.2168    1.4385 H   0  0  0  0  0  0  0  0  0  0  0  0
    2.2579   -6.9427    2.9010 H   0  0  0  0  0  0  0  0  0  0  0  0
    2.4988   -7.7087    1.3336 H   0  0  0  0  0  0  0  0  0  0  0  0
    1.6809   -4.5598    2.6660 H   0  0  0  0  0  0  0  0  0  0  0  0
    3.3858   -2.2260    2.4039 H   0  0  0  0  0  0  0  0  0  0  0  0
    1.6480   -2.2931    2.6201 H   0  0  0  0  0  0  0  0  0  0  0  0
    5.0133   -0.0524    4.8271 H   0  0  0  0  0  0  0  0  0  0  0  0
    4.2203   -0.5010    3.3376 H   0  0  0  0  0  0  0  0  0  0  0  0
    5.6336   -1.4249    3.8870 H   0  0  0  0  0  0  0  0  0  0  0  0
    5.5151   -2.0445    6.2760 H   0  0  0  0  0  0  0  0  0  0  0  0
    5.8023   -4.2118    6.2411 H   0  0  0  0  0  0  0  0  0  0  0  0
    4.3934   -4.4947    7.1702 H   0  0  0  0  0  0  0  0  0  0  0  0
    4.9156   -5.1550    4.3549 H   0  0  0  0  0  0  0  0  0  0  0  0
   -0.0695   -4.4482    5.1571 H   0  0  0  0  0  0  0  0  0  0  0  0
    0.2213   -3.5661    3.6884 H   0  0  0  0  0  0  0  0  0  0  0  0
   -0.1733   -2.6912    5.1145 H   0  0  0  0  0  0  0  0  0  0  0  0
    0.7931   -3.6258    7.0867 H   0  0  0  0  0  0  0  0  0  0  0  0
    2.2443   -4.4583    7.1373 H   0  0  0  0  0  0  0  0  0  0  0  0
    2.2637   -2.7728    8.6746 H   0  0  0  0  0  0  0  0  0  0  0  0
    1.0673   -0.9935    8.7232 H   0  0  0  0  0  0  0  0  0  0  0  0
    0.9616   -0.7665    5.6833 H   0  0  0  0  0  0  0  0  0  0  0  0
   -0.3847   -1.1213    6.7790 H   0  0  0  0  0  0  0  0  0  0  0  0
   -0.1376    0.9081    7.8961 H   0  0  0  0  0  0  0  0  0  0  0  0
    1.3011    3.0925    8.7390 H   0  0  0  0  0  0  0  0  0  0  0  0
    2.7860    2.3410    9.3121 H   0  0  0  0  0  0  0  0  0  0  0  0
    1.2552    1.5310    9.5491 H   0  0  0  0  0  0  0  0  0  0  0  0
    3.8532    2.6497    7.2807 H   0  0  0  0  0  0  0  0  0  0  0  0
    3.6111    1.6097    5.9414 H   0  0  0  0  0  0  0  0  0  0  0  0
    2.6993    4.5014    6.2845 H   0  0  0  0  0  0  0  0  0  0  0  0
    4.3474    3.3912    4.3712 H   0  0  0  0  0  0  0  0  0  0  0  0
    1.6210    3.0358    2.1847 H   0  0  0  0  0  0  0  0  0  0  0  0
    3.0599    2.5593    2.9967 H   0  0  0  0  0  0  0  0  0  0  0  0
    1.9546    0.5782    3.3833 H   0  0  0  0  0  0  0  0  0  0  0  0
   -1.6505    0.4517    4.4571 H   0  0  0  0  0  0  0  0  0  0  0  0
   -2.0211    2.2205    2.7400 H   0  0  0  0  0  0  0  0  0  0  0  0
   -2.7422    2.9636    5.3141 H   0  0  0  0  0  0  0  0  0  0  0  0
   -0.3010    3.5179    2.6464 H   0  0  0  0  0  0  0  0  0  0  0  0
   -1.1140    5.2209    2.4255 H   0  0  0  0  0  0  0  0  0  0  0  0
   -0.9856    5.1001    5.9573 H   0  0  0  0  0  0  0  0  0  0  0  0
    0.1146    6.0769    4.9842 H   0  0  0  0  0  0  0  0  0  0  0  0
    0.6893    5.2810    6.4274 H   0  0  0  0  0  0  0  0  0  0  0  0
    0.7502    3.1109    6.4928 H   0  0  0  0  0  0  0  0  0  0  0  0
   -1.1409    2.7765    7.3874 H   0  0  0  0  0  0  0  0  0  0  0  0
    5.8180   -0.3103    8.5515 H   0  0  0  0  0  0  0  0  0  0  0  0
    5.0792    1.2513    8.2919 H   0  0  0  0  0  0  0  0  0  0  0  0
    5.6990    0.3128    6.9076 H   0  0  0  0  0  0  0  0  0  0  0  0
    4.3954   -2.4084    8.4262 H   0  0  0  0  0  0  0  0  0  0  0  0
  1  2  1  0
  1 47  1  0
  1 48  1  0
  1 49  1  0
  2  3  2  0
  2  4  1  0
  4  5  1  0
  5 14  1  0
  5  6  1  0
  5 50  1  6
  6  7  1  0
  6 51  1  0
  6 52  1  0
  7 15  1  0
  7  8  2  0
  8  9  1  0
  8 10  1  0
  9 53  1  0
  9 54  1  0
  9 55  1  0
 10 46  1  0
 10 11  1  0
 10 56  1  1
 11 12  1  0
 11 57  1  0
 11 58  1  0
 12 14  1  0
 12 13  1  0
 12 59  1  6
 14 13  1  6
 14 15  1  0
 15 16  1  6
 15 17  1  0
 16 60  1  0
 16 61  1  0
 16 62  1  0
 17 18  1  0
 17 63  1  0
 17 64  1  0
 18 46  1  0
 18 19  1  0
 18 65  1  1
 19 43  1  0
 19 20  1  0
 19 66  1  1
 20 21  1  0
 20 67  1  0
 20 68  1  0
 21 41  1  0
 21 22  1  0
 21 69  1  1
 22 23  1  1
 22 24  1  0
 22 43  1  0
 23 70  1  0
 23 71  1  0
 23 72  1  0
 24 25  1  0
 24 73  1  0
 24 74  1  0
 25 26  1  0
 25 27  1  0
 25 75  1  1
 26 76  1  0
 27 37  1  0
 27 28  1  6
 27 29  1  0
 29 30  1  0
 29 77  1  0
 29 78  1  0
 30 40  1  0
 30 31  1  0
 30 79  1  1
 31 32  1  0
 32 41  1  0
 32 33  1  0
 32 80  1  1
 33 34  1  0
 33 35  1  0
 33 81  1  6
 34 82  1  0
 35 36  1  0
 35 37  1  0
 35 83  1  6
 36 84  1  0
 37 38  1  1
 37 39  1  0
 38 85  1  0
 38 86  1  0
 38 87  1  0
 39 40  1  0
 39 41  1  0
 39 88  1  1
 41 42  1  1
 42 89  1  0
 43 44  2  0
 44 45  1  0
 44 46  1  0
 45 90  1  0
 45 91  1  0
 45 92  1  0
 46 93  1  1
M  END
>  <i_m_ct_stereo_status>  (211) 
1

>  <s_m_source_file>  (211) 
/var/tmp/pbs.5076255.sched01/tmp1t990xkq/82z3oanzij.sdf

>  <i_m_source_file_index>  (211) 
3

>  <i_lp_mmshare_version>  (211) 
48012

>  <i_f3d_flags>  (211) 
0

>  <s_epik_input>  (211) 
W0NIM11DKD1PKU9bQ0BASF0xW0NIMl1DKD1DMltDSDNdKVtDQF0zKFtDSDNdKVtDSDJdW0NAQEhdKFtDQEhdNFtDQEhdMltDSDJdW0NAQEhdKE81KVtDQF0xMzUpW0NASF02Qyg9QzRbQ0gzXSlbQ0BdNyhbQ0gzXSlbQ0BIXShbQ0gyXTYpW0NAXTgoW09IXSlbQ0BASF05T1tDQEhdMVtDSDJdW0NAXShGKShbQ0BASF0oW0NIMl03KVtPSF0pW0NAXShbQ0gzXSkoW0NAQEhdOE8xKVtDQEhdKFtPSF0pW0NAQEhdOVtPSF0=

>  <s_epik_cmdline>  (211) 
J2VwaWtfcHl0aG9uJywgJy1waHQnLCAnMi4wJywgJy1waCcsICc3LjAnLCAnLXRuJywgJzgnLCAnLW1hJywgJzIwMCcsICctaW1hZScsICc8aW5maWxlLm1hZT4nLCAnLW9tYWUnLCAnPG91dGZpbGUubWFlPic=

>  <r_lp_tautomer_probability>  (211) 
1

>  <r_epik_Ionization_Penalty>  (211) 
6.8561e-07

>  <r_epik_Ionization_Penalty_Charging>  (211) 
0

>  <r_epik_Ionization_Penalty_Neutral>  (211) 
6.8561e-07

>  <r_epik_State_Penalty>  (211) 
-0

>  <r_epik_Charging_Adjusted_Penalty>  (211) 
0

>  <i_epik_Tot_Q>  (211) 
0

>  <i_epik_Tot_abs_Q>  (211) 
0

>  <s_epik_Chemistry_Notes>  (211) 
This compound has an ester and may undergo hydrolysis at high or low pH. This compound contains an acetal/aminal-like group ( X-CH(R)-Y where X, Y are N, S, or O) that may be acid/base labile, releasing an aldehyde.

>  <s_lp_Force_Field>  (211) 
OPLS3e

>  <r_lp_Energy>  (211) 
285.156

>  <b_lp_Chiralities_Consistent>  (211) 
1

>  <s_lp_Variant>  (211) 
54:0-1

>  <s_i_glide_gridfile>  (211) 
pfpi4k_grid

>  <i_i_glide_lignum>  (211) 
3

>  <i_i_glide_rotatable_bonds>  (211) 
6

>  <r_i_docking_score>  (211) 
-3.073

>  <r_i_glide_ligand_efficiency>  (211) 
-0.0668043

>  <r_i_glide_ligand_efficiency_sa>  (211) 
-0.239363

>  <r_i_glide_ligand_efficiency_ln>  (211) 
-0.63641

>  <r_i_glide_gscore>  (211) 
-3.073

>  <r_i_glide_lipo>  (211) 
-0.0547219

>  <r_i_glide_hbond>  (211) 
0

>  <r_i_glide_metal>  (211) 
-0

>  <r_i_glide_rewards>  (211) 
-0.540744

>  <r_i_glide_evdw>  (211) 
-27.8384

>  <r_i_glide_ecoul>  (211) 
-7.2678

>  <r_i_glide_erotb>  (211) 
0.0513192

>  <r_i_glide_esite>  (211) 
-0.0467604

>  <r_i_glide_emodel>  (211) 
-44.2452

>  <r_i_glide_energy>  (211) 
-35.1062

>  <r_i_glide_einternal>  (211) 
6.77322

>  <r_i_glide_intrahb_reward>  (211) 
-0.5

>  <i_i_glide_confnum>  (211) 
6

>  <i_i_glide_posenum>  (211) 
19

>  <r_i_glide_eff_state_penalty>  (211) 
0

>  <ligand_id>  (211) 
54

>  <original_smiles>  (211) 
CC(=O)OC1CC2=C(C)C3CC4OC14C2(C)CC1C2CC4C(C)(CC(O)C5(F)CC6OC7C(O)C(O)C5(C)C(O6)C74O)C2=C(C)C31

>  <smiles>  (211) 
[H]OC1([H])C2([H])OC3([H])OC4([H])C2(O[H])C2([H])C([H])([H])C5([H])C(=C(C([H])([H])[H])C6([H])C7([H])C(C([H])([H])[H])=C8C([H])([H])C([H])(OC(=O)C([H])([H])[H])C9(OC9([H])C7([H])[H])C8(C([H])([H])[H])C([H])([H])C56[H])C2(C([H])([H])[H])C([H])([H])C([H])(O[H])C(F)(C3([H])[H])C4(C([H])([H])[H])C1([H])O[H]

$$$$
54:0:1
     RDKit          3D

 93102  0  0  1  0  0  0  0  0999 V2000
    4.4630   -6.0333    0.9749 C   0  0  0  0  0  0  0  0  0  0  0  0
    3.1742   -5.4672    1.5620 C   0  0  0  0  0  0  0  0  0  0  0  0
    2.1191   -5.4566    0.9187 O   0  0  0  0  0  0  0  0  0  0  0  0
    3.3359   -5.0036    2.8187 O   0  0  0  0  0  0  0  0  0  0  0  0
    2.2337   -4.4675    3.5470 C   0  0  2  0  0  0  0  0  0  0  0  0
    2.2563   -2.9099    3.4606 C   0  0  0  0  0  0  0  0  0  0  0  0
    2.3729   -2.5534    4.9402 C   0  0  0  0  0  0  0  0  0  0  0  0
    3.5321   -2.0653    5.4451 C   0  0  0  0  0  0  0  0  0  0  0  0
    4.4900   -1.2199    4.6170 C   0  0  0  0  0  0  0  0  0  0  0  0
    4.1382   -2.6428    6.7398 C   0  0  2  0  0  0  0  0  0  0  0  0
    4.2667   -4.2224    6.7892 C   0  0  0  0  0  0  0  0  0  0  0  0
    3.6729   -5.0323    5.6217 C   0  0  1  0  0  0  0  0  0  0  0  0
    2.5015   -5.8921    5.7764 O   0  0  0  0  0  0  0  0  0  0  0  0
    2.3134   -4.6732    5.0688 C   0  0  2  0  0  0  0  0  0  0  0  0
    1.4996   -3.5506    5.6794 C   0  0  2  0  0  0  0  0  0  0  0  0
    0.0114   -3.5661    5.2062 C   0  0  0  0  0  0  0  0  0  0  0  0
    1.4109   -3.5203    7.2518 C   0  0  0  0  0  0  0  0  0  0  0  0
    1.9879   -2.3564    8.0934 C   0  0  2  0  0  0  0  0  0  0  0  0
    1.2689   -0.9926    8.0954 C   0  0  2  0  0  0  0  0  0  0  0  0
    0.3287   -0.5548    6.9901 C   0  0  0  0  0  0  0  0  0  0  0  0
    0.2932    0.9634    7.2050 C   0  0  1  0  0  0  0  0  0  0  0  0
    1.8448    1.4336    7.7106 C   0  0  2  0  0  0  0  0  0  0  0  0
    1.6934    2.2212    9.0350 C   0  0  0  0  0  0  0  0  0  0  0  0
    3.0098    2.2288    6.7863 C   0  0  0  0  0  0  0  0  0  0  0  0
    2.9133    3.5306    5.7495 C   0  0  1  0  0  0  0  0  0  0  0  0
    4.2317    3.6960    5.2812 O   0  0  0  0  0  0  0  0  0  0  0  0
    1.9242    3.7157    4.4138 C   0  0  1  0  0  0  0  0  0  0  0  0
    2.2929    4.8341    3.7867 F   0  0  0  0  0  0  0  0  0  0  0  0
    2.0057    2.5527    3.3379 C   0  0  0  0  0  0  0  0  0  0  0  0
    1.2640    1.2958    3.8838 C   0  0  2  0  0  0  0  0  0  0  0  0
   -0.0843    1.0555    3.5745 O   0  0  0  0  0  0  0  0  0  0  0  0
   -1.0865    1.3426    4.6097 C   0  0  2  0  0  0  0  0  0  0  0  0
   -1.7333    2.5479    3.8573 C   0  0  1  0  0  0  0  0  0  0  0  0
   -2.9708    2.9563    4.3980 O   0  0  0  0  0  0  0  0  0  0  0  0
   -0.7173    3.7192    3.6715 C   0  0  1  0  0  0  0  0  0  0  0  0
   -1.3575    4.9313    3.2828 O   0  0  0  0  0  0  0  0  0  0  0  0
    0.3986    3.8711    4.7867 C   0  0  2  0  0  0  0  0  0  0  0  0
    0.1344    5.1773    5.5868 C   0  0  0  0  0  0  0  0  0  0  0  0
    0.4625    2.6539    5.6843 C   0  0  2  0  0  0  0  0  0  0  0  0
    1.2957    1.5383    5.1726 O   0  0  0  0  0  0  0  0  0  0  0  0
   -0.5878    1.7736    6.0863 C   0  0  2  0  0  0  0  0  0  0  0  0
   -1.6025    2.4419    6.8163 O   0  0  0  0  0  0  0  0  0  0  0  0
    2.3648    0.0235    8.0579 C   0  0  0  0  0  0  0  0  0  0  0  0
    3.5825   -0.5466    8.1113 C   0  0  0  0  0  0  0  0  0  0  0  0
    4.9549    0.0982    8.2187 C   0  0  0  0  0  0  0  0  0  0  0  0
    3.4961   -2.0638    8.0183 C   0  0  2  0  0  0  0  0  0  0  0  0
    4.8466   -6.8408    1.6005 H   0  0  0  0  0  0  0  0  0  0  0  0
    5.2262   -5.2559    0.9164 H   0  0  0  0  0  0  0  0  0  0  0  0
    4.2982   -6.4277   -0.0294 H   0  0  0  0  0  0  0  0  0  0  0  0
    1.2878   -4.8759    3.1873 H   0  0  0  0  0  0  0  0  0  0  0  0
    3.0806   -2.5578    2.8417 H   0  0  0  0  0  0  0  0  0  0  0  0
    1.3372   -2.5084    3.0313 H   0  0  0  0  0  0  0  0  0  0  0  0
    4.8095   -0.3501    5.1880 H   0  0  0  0  0  0  0  0  0  0  0  0
    4.0241   -0.8317    3.7089 H   0  0  0  0  0  0  0  0  0  0  0  0
    5.3750   -1.7933    4.3361 H   0  0  0  0  0  0  0  0  0  0  0  0
    5.1702   -2.2950    6.7488 H   0  0  0  0  0  0  0  0  0  0  0  0
    5.3291   -4.4719    6.8177 H   0  0  0  0  0  0  0  0  0  0  0  0
    3.8951   -4.6278    7.7295 H   0  0  0  0  0  0  0  0  0  0  0  0
    4.4212   -5.4608    4.9619 H   0  0  0  0  0  0  0  0  0  0  0  0
   -0.5223   -4.4150    5.6408 H   0  0  0  0  0  0  0  0  0  0  0  0
   -0.1434   -3.6404    4.1334 H   0  0  0  0  0  0  0  0  0  0  0  0
   -0.5169   -2.6622    5.5054 H   0  0  0  0  0  0  0  0  0  0  0  0
    0.3603   -3.5559    7.5400 H   0  0  0  0  0  0  0  0  0  0  0  0
    1.7560   -4.4676    7.6607 H   0  0  0  0  0  0  0  0  0  0  0  0
    1.8499   -2.7099    9.1139 H   0  0  0  0  0  0  0  0  0  0  0  0
    0.7602   -0.8644    9.0542 H   0  0  0  0  0  0  0  0  0  0  0  0
    0.7267   -0.7833    6.0050 H   0  0  0  0  0  0  0  0  0  0  0  0
   -0.6547   -1.0089    7.0879 H   0  0  0  0  0  0  0  0  0  0  0  0
   -0.3047    1.0457    8.1126 H   0  0  0  0  0  0  0  0  0  0  0  0
    1.2298    3.1968    8.8793 H   0  0  0  0  0  0  0  0  0  0  0  0
    2.6588    2.3901    9.5161 H   0  0  0  0  0  0  0  0  0  0  0  0
    1.0809    1.6830    9.7624 H   0  0  0  0  0  0  0  0  0  0  0  0
    3.7766    2.5391    7.4929 H   0  0  0  0  0  0  0  0  0  0  0  0
    3.4959    1.4476    6.1999 H   0  0  0  0  0  0  0  0  0  0  0  0
    2.7533    4.4027    6.3789 H   0  0  0  0  0  0  0  0  0  0  0  0
    4.3801    3.0728    4.5856 H   0  0  0  0  0  0  0  0  0  0  0  0
    1.6509    2.8033    2.3386 H   0  0  0  0  0  0  0  0  0  0  0  0
    3.0509    2.2848    3.1953 H   0  0  0  0  0  0  0  0  0  0  0  0
    1.8271    0.3890    3.6665 H   0  0  0  0  0  0  0  0  0  0  0  0
   -1.7926    0.5148    4.6717 H   0  0  0  0  0  0  0  0  0  0  0  0
   -2.0043    2.2077    2.8530 H   0  0  0  0  0  0  0  0  0  0  0  0
   -3.6114    2.2933    4.1771 H   0  0  0  0  0  0  0  0  0  0  0  0
   -0.2413    3.4480    2.7430 H   0  0  0  0  0  0  0  0  0  0  0  0
   -0.9940    5.1531    2.4310 H   0  0  0  0  0  0  0  0  0  0  0  0
   -0.8901    5.1934    5.9573 H   0  0  0  0  0  0  0  0  0  0  0  0
    0.2800    6.0592    4.9604 H   0  0  0  0  0  0  0  0  0  0  0  0
    0.7874    5.3001    6.4493 H   0  0  0  0  0  0  0  0  0  0  0  0
    0.7202    3.1390    6.6226 H   0  0  0  0  0  0  0  0  0  0  0  0
   -1.1957    2.9408    7.5099 H   0  0  0  0  0  0  0  0  0  0  0  0
    5.5448   -0.4652    8.9436 H   0  0  0  0  0  0  0  0  0  0  0  0
    4.9062    1.1180    8.5953 H   0  0  0  0  0  0  0  0  0  0  0  0
    5.4931    0.0783    7.2736 H   0  0  0  0  0  0  0  0  0  0  0  0
    4.0005   -2.4826    8.8893 H   0  0  0  0  0  0  0  0  0  0  0  0
  1  2  1  0
  1 47  1  0
  1 48  1  0
  1 49  1  0
  2  3  2  0
  2  4  1  0
  4  5  1  0
  5 14  1  0
  5  6  1  0
  5 50  1  6
  6  7  1  0
  6 51  1  0
  6 52  1  0
  7 15  1  0
  7  8  2  0
  8  9  1  0
  8 10  1  0
  9 53  1  0
  9 54  1  0
  9 55  1  0
 10 46  1  0
 10 11  1  0
 10 56  1  1
 11 12  1  0
 11 57  1  0
 11 58  1  0
 12 14  1  0
 12 13  1  0
 12 59  1  6
 14 13  1  6
 14 15  1  0
 15 16  1  6
 15 17  1  0
 16 60  1  0
 16 61  1  0
 16 62  1  0
 17 18  1  0
 17 63  1  0
 17 64  1  0
 18 46  1  0
 18 19  1  0
 18 65  1  1
 19 43  1  0
 19 20  1  0
 19 66  1  1
 20 21  1  0
 20 67  1  0
 20 68  1  0
 21 41  1  0
 21 22  1  0
 21 69  1  1
 22 23  1  1
 22 24  1  0
 22 43  1  0
 23 70  1  0
 23 71  1  0
 23 72  1  0
 24 25  1  0
 24 73  1  0
 24 74  1  0
 25 26  1  0
 25 27  1  0
 25 75  1  1
 26 76  1  0
 27 37  1  0
 27 28  1  6
 27 29  1  0
 29 30  1  0
 29 77  1  0
 29 78  1  0
 30 40  1  0
 30 31  1  0
 30 79  1  1
 31 32  1  0
 32 41  1  0
 32 33  1  0
 32 80  1  1
 33 34  1  0
 33 35  1  0
 33 81  1  6
 34 82  1  0
 35 36  1  0
 35 37  1  0
 35 83  1  6
 36 84  1  0
 37 38  1  1
 37 39  1  0
 38 85  1  0
 38 86  1  0
 38 87  1  0
 39 40  1  0
 39 41  1  0
 39 88  1  1
 41 42  1  1
 42 89  1  0
 43 44  2  0
 44 45  1  0
 44 46  1  0
 45 90  1  0
 45 91  1  0
 45 92  1  0
 46 93  1  1
M  END
>  <i_m_ct_stereo_status>  (212) 
1

>  <s_m_source_file>  (212) 
/var/tmp/pbs.5076255.sched01/tmp1t990xkq/82z3oanzij.sdf

>  <i_m_source_file_index>  (212) 
3

>  <i_lp_mmshare_version>  (212) 
48012

>  <i_f3d_flags>  (212) 
0

>  <s_epik_input>  (212) 
W0NIM11DKD1PKU9bQ0BASF0xW0NIMl1DKD1DMltDSDNdKVtDQF0zKFtDSDNdKVtDSDJdW0NAQEhdKFtDQEhdNFtDQEhdMltDSDJdW0NAQEhdKE81KVtDQF0xMzUpW0NASF02Qyg9QzRbQ0gzXSlbQ0BdNyhbQ0gzXSlbQ0BIXShbQ0gyXTYpW0NAXTgoW09IXSlbQ0BASF05T1tDQEhdMVtDSDJdW0NAXShGKShbQ0BASF0oW0NIMl03KVtPSF0pW0NAXShbQ0gzXSkoW0NAQEhdOE8xKVtDQEhdKFtPSF0pW0NAQEhdOVtPSF0=

>  <s_epik_cmdline>  (212) 
J2VwaWtfcHl0aG9uJywgJy1waHQnLCAnMi4wJywgJy1waCcsICc3LjAnLCAnLXRuJywgJzgnLCAnLW1hJywgJzIwMCcsICctaW1hZScsICc8aW5maWxlLm1hZT4nLCAnLW9tYWUnLCAnPG91dGZpbGUubWFlPic=

>  <r_lp_tautomer_probability>  (212) 
1

>  <r_epik_Ionization_Penalty>  (212) 
6.8561e-07

>  <r_epik_Ionization_Penalty_Charging>  (212) 
0

>  <r_epik_Ionization_Penalty_Neutral>  (212) 
6.8561e-07

>  <r_epik_State_Penalty>  (212) 
-0

>  <r_epik_Charging_Adjusted_Penalty>  (212) 
0

>  <i_epik_Tot_Q>  (212) 
0

>  <i_epik_Tot_abs_Q>  (212) 
0

>  <s_epik_Chemistry_Notes>  (212) 
This compound has an ester and may undergo hydrolysis at high or low pH. This compound contains an acetal/aminal-like group ( X-CH(R)-Y where X, Y are N, S, or O) that may be acid/base labile, releasing an aldehyde.

>  <s_lp_Force_Field>  (212) 
OPLS3e

>  <r_lp_Energy>  (212) 
285.156

>  <b_lp_Chiralities_Consistent>  (212) 
1

>  <s_lp_Variant>  (212) 
54:0-1

>  <s_i_glide_gridfile>  (212) 
pfpi4k_grid

>  <i_i_glide_lignum>  (212) 
3

>  <i_i_glide_rotatable_bonds>  (212) 
6

>  <r_i_docking_score>  (212) 
-2.98913

>  <r_i_glide_ligand_efficiency>  (212) 
-0.0649812

>  <r_i_glide_ligand_efficiency_sa>  (212) 
-0.232831

>  <r_i_glide_ligand_efficiency_ln>  (212) 
-0.619043

>  <r_i_glide_gscore>  (212) 
-2.98913

>  <r_i_glide_lipo>  (212) 
-0.107246

>  <r_i_glide_hbond>  (212) 
-0.0236066

>  <r_i_glide_metal>  (212) 
-0

>  <r_i_glide_rewards>  (212) 
-0.0108846

>  <r_i_glide_evdw>  (212) 
-28.0738

>  <r_i_glide_ecoul>  (212) 
-9.72475

>  <r_i_glide_erotb>  (212) 
0.0513192

>  <r_i_glide_esite>  (212) 
-0.036312

>  <r_i_glide_emodel>  (212) 
-44.2672

>  <r_i_glide_energy>  (212) 
-37.7986

>  <r_i_glide_einternal>  (212) 
2.12489

>  <r_i_glide_intrahb_reward>  (212) 
-0

>  <i_i_glide_confnum>  (212) 
6

>  <i_i_glide_posenum>  (212) 
1

>  <r_i_glide_eff_state_penalty>  (212) 
0

>  <ligand_id>  (212) 
54

>  <original_smiles>  (212) 
CC(=O)OC1CC2=C(C)C3CC4OC14C2(C)CC1C2CC4C(C)(CC(O)C5(F)CC6OC7C(O)C(O)C5(C)C(O6)C74O)C2=C(C)C31

>  <smiles>  (212) 
[H]OC1([H])C2([H])OC3([H])OC4([H])C2(O[H])C2([H])C([H])([H])C5([H])C(=C(C([H])([H])[H])C6([H])C7([H])C(C([H])([H])[H])=C8C([H])([H])C([H])(OC(=O)C([H])([H])[H])C9(OC9([H])C7([H])[H])C8(C([H])([H])[H])C([H])([H])C56[H])C2(C([H])([H])[H])C([H])([H])C([H])(O[H])C(F)(C3([H])[H])C4(C([H])([H])[H])C1([H])O[H]

$$$$
54:0:2
     RDKit          3D

 93102  0  0  1  0  0  0  0  0999 V2000
    1.8766    3.4571    3.5857 C   0  0  0  0  0  0  0  0  0  0  0  0
    2.8255    2.4475    4.2160 C   0  0  0  0  0  0  0  0  0  0  0  0
    3.8180    2.8107    4.8525 O   0  0  0  0  0  0  0  0  0  0  0  0
    2.4392    1.1670    4.0189 O   0  0  0  0  0  0  0  0  0  0  0  0
    3.2681    0.0997    4.4736 C   0  0  2  0  0  0  0  0  0  0  0  0
    2.7218   -1.2452    3.8980 C   0  0  0  0  0  0  0  0  0  0  0  0
    2.4733   -2.0223    5.1890 C   0  0  0  0  0  0  0  0  0  0  0  0
    1.2124   -2.2524    5.6278 C   0  0  0  0  0  0  0  0  0  0  0  0
    0.0403   -2.4225    4.6719 C   0  0  0  0  0  0  0  0  0  0  0  0
    0.8124   -1.9772    7.0897 C   0  0  2  0  0  0  0  0  0  0  0  0
    1.2167   -0.5521    7.6502 C   0  0  0  0  0  0  0  0  0  0  0  0
    2.0666    0.3548    6.7493 C   0  0  1  0  0  0  0  0  0  0  0  0
    3.4494    0.6912    7.0660 O   0  0  0  0  0  0  0  0  0  0  0  0
    3.2395   -0.2045    5.9841 C   0  0  2  0  0  0  0  0  0  0  0  0
    3.6247   -1.6635    6.1125 C   0  0  2  0  0  0  0  0  0  0  0  0
    5.0415   -1.9650    5.5151 C   0  0  0  0  0  0  0  0  0  0  0  0
    3.6721   -2.2403    7.5785 C   0  0  0  0  0  0  0  0  0  0  0  0
    2.7236   -3.3621    8.0641 C   0  0  2  0  0  0  0  0  0  0  0  0
    2.9435   -4.8036    7.5684 C   0  0  2  0  0  0  0  0  0  0  0  0
    3.7031   -5.1362    6.2983 C   0  0  0  0  0  0  0  0  0  0  0  0
    3.2184   -6.5657    6.0241 C   0  0  1  0  0  0  0  0  0  0  0  0
    1.5949   -6.6473    6.5019 C   0  0  2  0  0  0  0  0  0  0  0  0
    1.4514   -7.8303    7.4895 C   0  0  0  0  0  0  0  0  0  0  0  0
    0.2423   -6.6714    5.4924 C   0  0  0  0  0  0  0  0  0  0  0  0
   -0.0922   -7.5203    4.1001 C   0  0  1  0  0  0  0  0  0  0  0  0
   -1.3770   -7.0709    3.7156 O   0  0  0  0  0  0  0  0  0  0  0  0
    0.8012   -7.5726    2.6936 C   0  0  1  0  0  0  0  0  0  0  0  0
    0.0605   -8.2169    1.7944 F   0  0  0  0  0  0  0  0  0  0  0  0
    1.1318   -6.1658    2.0531 C   0  0  0  0  0  0  0  0  0  0  0  0
    2.2433   -5.4598    2.8774 C   0  0  2  0  0  0  0  0  0  0  0  0
    3.5944   -5.5856    2.5220 O   0  0  0  0  0  0  0  0  0  0  0  0
    4.4281   -6.4979    3.3222 C   0  0  2  0  0  0  0  0  0  0  0  0
    4.6355   -7.5314    2.1731 C   0  0  1  0  0  0  0  0  0  0  0  0
    5.5770   -8.5354    2.4896 O   0  0  0  0  0  0  0  0  0  0  0  0
    3.2881   -8.1621    1.6992 C   0  0  1  0  0  0  0  0  0  0  0  0
    3.5543   -9.3237    0.9252 O   0  0  0  0  0  0  0  0  0  0  0  0
    2.1811   -8.3217    2.8307 C   0  0  2  0  0  0  0  0  0  0  0  0
    1.9823   -9.8290    3.1530 C   0  0  0  0  0  0  0  0  0  0  0  0
    2.5103   -7.5109    4.0721 C   0  0  2  0  0  0  0  0  0  0  0  0
    2.1155   -6.0804    4.0220 O   0  0  0  0  0  0  0  0  0  0  0  0
    3.7857   -7.2062    4.6299 C   0  0  2  0  0  0  0  0  0  0  0  0
    4.4532   -8.4004    4.9933 O   0  0  0  0  0  0  0  0  0  0  0  0
    1.5703   -5.3412    7.3205 C   0  0  0  0  0  0  0  0  0  0  0  0
    0.6123   -4.4623    7.6674 C   0  0  0  0  0  0  0  0  0  0  0  0
   -0.8998   -4.6296    7.7017 C   0  0  0  0  0  0  0  0  0  0  0  0
    1.2052   -3.1148    8.0510 C   0  0  2  0  0  0  0  0  0  0  0  0
    0.8610    3.3157    3.9579 H   0  0  0  0  0  0  0  0  0  0  0  0
    1.8682    3.3433    2.5005 H   0  0  0  0  0  0  0  0  0  0  0  0
    2.1901    4.4754    3.8201 H   0  0  0  0  0  0  0  0  0  0  0  0
    4.2933    0.2669    4.1422 H   0  0  0  0  0  0  0  0  0  0  0  0
    1.8357   -1.0926    3.2809 H   0  0  0  0  0  0  0  0  0  0  0  0
    3.4580   -1.7581    3.2761 H   0  0  0  0  0  0  0  0  0  0  0  0
   -0.5587   -3.2799    4.9715 H   0  0  0  0  0  0  0  0  0  0  0  0
    0.3619   -2.6229    3.6464 H   0  0  0  0  0  0  0  0  0  0  0  0
   -0.5961   -1.5363    4.6700 H   0  0  0  0  0  0  0  0  0  0  0  0
   -0.2756   -1.9566    7.0796 H   0  0  0  0  0  0  0  0  0  0  0  0
    0.3004    0.0076    7.8542 H   0  0  0  0  0  0  0  0  0  0  0  0
    1.6904   -0.6194    8.6292 H   0  0  0  0  0  0  0  0  0  0  0  0
    1.5101    1.1908    6.3384 H   0  0  0  0  0  0  0  0  0  0  0  0
    5.8224   -1.5289    6.1417 H   0  0  0  0  0  0  0  0  0  0  0  0
    5.2306   -1.5943    4.5104 H   0  0  0  0  0  0  0  0  0  0  0  0
    5.2307   -3.0375    5.4660 H   0  0  0  0  0  0  0  0  0  0  0  0
    4.6699   -2.6401    7.7566 H   0  0  0  0  0  0  0  0  0  0  0  0
    3.6595   -1.4219    8.2956 H   0  0  0  0  0  0  0  0  0  0  0  0
    2.9594   -3.4258    9.1243 H   0  0  0  0  0  0  0  0  0  0  0  0
    3.3690   -5.3948    8.3839 H   0  0  0  0  0  0  0  0  0  0  0  0
    3.4254   -4.4785    5.4780 H   0  0  0  0  0  0  0  0  0  0  0  0
    4.7828   -5.0895    6.4431 H   0  0  0  0  0  0  0  0  0  0  0  0
    3.7454   -7.1334    6.7897 H   0  0  0  0  0  0  0  0  0  0  0  0
    1.5665   -8.7953    6.9929 H   0  0  0  0  0  0  0  0  0  0  0  0
    0.4777   -7.8314    7.9865 H   0  0  0  0  0  0  0  0  0  0  0  0
    2.1999   -7.7866    8.2834 H   0  0  0  0  0  0  0  0  0  0  0  0
   -0.5793   -6.9331    6.1374 H   0  0  0  0  0  0  0  0  0  0  0  0
    0.0525   -5.6289    5.2248 H   0  0  0  0  0  0  0  0  0  0  0  0
   -0.2475   -8.5525    4.4123 H   0  0  0  0  0  0  0  0  0  0  0  0
   -1.8104   -7.8155    3.3155 H   0  0  0  0  0  0  0  0  0  0  0  0
    1.3860   -6.1704    0.9959 H   0  0  0  0  0  0  0  0  0  0  0  0
    0.2385   -5.5574    2.1356 H   0  0  0  0  0  0  0  0  0  0  0  0
    2.0215   -4.4026    3.0096 H   0  0  0  0  0  0  0  0  0  0  0  0
    5.3704   -6.0051    3.5694 H   0  0  0  0  0  0  0  0  0  0  0  0
    5.0609   -7.0003    1.3166 H   0  0  0  0  0  0  0  0  0  0  0  0
    5.7171   -9.0408    1.6964 H   0  0  0  0  0  0  0  0  0  0  0  0
    2.9338   -7.5008    0.9194 H   0  0  0  0  0  0  0  0  0  0  0  0
    3.7636  -10.0603    1.4922 H   0  0  0  0  0  0  0  0  0  0  0  0
    2.9301  -10.3045    3.4045 H   0  0  0  0  0  0  0  0  0  0  0  0
    1.5548  -10.3574    2.3000 H   0  0  0  0  0  0  0  0  0  0  0  0
    1.3132  -10.0115    3.9937 H   0  0  0  0  0  0  0  0  0  0  0  0
    2.0904   -8.1672    4.8324 H   0  0  0  0  0  0  0  0  0  0  0  0
    4.6168   -8.8994    4.1998 H   0  0  0  0  0  0  0  0  0  0  0  0
   -1.2753   -4.1825    8.6225 H   0  0  0  0  0  0  0  0  0  0  0  0
   -1.1961   -5.6760    7.7310 H   0  0  0  0  0  0  0  0  0  0  0  0
   -1.3847   -4.1322    6.8651 H   0  0  0  0  0  0  0  0  0  0  0  0
    0.8604   -2.8645    9.0542 H   0  0  0  0  0  0  0  0  0  0  0  0
  1  2  1  0
  1 47  1  0
  1 48  1  0
  1 49  1  0
  2  3  2  0
  2  4  1  0
  4  5  1  0
  5 14  1  0
  5  6  1  0
  5 50  1  6
  6  7  1  0
  6 51  1  0
  6 52  1  0
  7 15  1  0
  7  8  2  0
  8  9  1  0
  8 10  1  0
  9 53  1  0
  9 54  1  0
  9 55  1  0
 10 46  1  0
 10 11  1  0
 10 56  1  6
 11 12  1  0
 11 57  1  0
 11 58  1  0
 12 14  1  0
 12 13  1  0
 12 59  1  6
 14 13  1  1
 14 15  1  0
 15 16  1  6
 15 17  1  0
 16 60  1  0
 16 61  1  0
 16 62  1  0
 17 18  1  0
 17 63  1  0
 17 64  1  0
 18 46  1  0
 18 19  1  0
 18 65  1  1
 19 43  1  0
 19 20  1  0
 19 66  1  1
 20 21  1  0
 20 67  1  0
 20 68  1  0
 21 41  1  0
 21 22  1  0
 21 69  1  1
 22 23  1  1
 22 24  1  0
 22 43  1  0
 23 70  1  0
 23 71  1  0
 23 72  1  0
 24 25  1  0
 24 73  1  0
 24 74  1  0
 25 26  1  0
 25 27  1  0
 25 75  1  1
 26 76  1  0
 27 37  1  0
 27 28  1  6
 27 29  1  0
 29 30  1  0
 29 77  1  0
 29 78  1  0
 30 40  1  0
 30 31  1  0
 30 79  1  1
 31 32  1  0
 32 41  1  0
 32 33  1  0
 32 80  1  1
 33 34  1  0
 33 35  1  0
 33 81  1  6
 34 82  1  0
 35 36  1  0
 35 37  1  0
 35 83  1  6
 36 84  1  0
 37 38  1  1
 37 39  1  0
 38 85  1  0
 38 86  1  0
 38 87  1  0
 39 40  1  0
 39 41  1  0
 39 88  1  1
 41 42  1  1
 42 89  1  0
 43 44  2  0
 44 45  1  0
 44 46  1  0
 45 90  1  0
 45 91  1  0
 45 92  1  0
 46 93  1  1
M  END
>  <i_m_ct_stereo_status>  (213) 
1

>  <s_m_source_file>  (213) 
/var/tmp/pbs.5076255.sched01/tmp1t990xkq/82z3oanzij.sdf

>  <i_m_source_file_index>  (213) 
3

>  <i_lp_mmshare_version>  (213) 
48012

>  <i_f3d_flags>  (213) 
0

>  <s_epik_input>  (213) 
W0NIM11DKD1PKU9bQ0BASF0xW0NIMl1DKD1DMltDSDNdKVtDQF0zKFtDSDNdKVtDSDJdW0NAQEhdKFtDQEhdNFtDQEhdMltDSDJdW0NAQEhdKE81KVtDQF0xMzUpW0NASF02Qyg9QzRbQ0gzXSlbQ0BdNyhbQ0gzXSlbQ0BIXShbQ0gyXTYpW0NAXTgoW09IXSlbQ0BASF05T1tDQEhdMVtDSDJdW0NAXShGKShbQ0BASF0oW0NIMl03KVtPSF0pW0NAXShbQ0gzXSkoW0NAQEhdOE8xKVtDQEhdKFtPSF0pW0NAQEhdOVtPSF0=

>  <s_epik_cmdline>  (213) 
J2VwaWtfcHl0aG9uJywgJy1waHQnLCAnMi4wJywgJy1waCcsICc3LjAnLCAnLXRuJywgJzgnLCAnLW1hJywgJzIwMCcsICctaW1hZScsICc8aW5maWxlLm1hZT4nLCAnLW9tYWUnLCAnPG91dGZpbGUubWFlPic=

>  <r_lp_tautomer_probability>  (213) 
1

>  <r_epik_Ionization_Penalty>  (213) 
6.8561e-07

>  <r_epik_Ionization_Penalty_Charging>  (213) 
0

>  <r_epik_Ionization_Penalty_Neutral>  (213) 
6.8561e-07

>  <r_epik_State_Penalty>  (213) 
-0

>  <r_epik_Charging_Adjusted_Penalty>  (213) 
0

>  <i_epik_Tot_Q>  (213) 
0

>  <i_epik_Tot_abs_Q>  (213) 
0

>  <s_epik_Chemistry_Notes>  (213) 
This compound has an ester and may undergo hydrolysis at high or low pH. This compound contains an acetal/aminal-like group ( X-CH(R)-Y where X, Y are N, S, or O) that may be acid/base labile, releasing an aldehyde.

>  <s_lp_Force_Field>  (213) 
OPLS3e

>  <r_lp_Energy>  (213) 
285.156

>  <b_lp_Chiralities_Consistent>  (213) 
1

>  <s_lp_Variant>  (213) 
54:0-1

>  <s_i_glide_gridfile>  (213) 
pfpi4k_grid

>  <i_i_glide_lignum>  (213) 
3

>  <i_i_glide_rotatable_bonds>  (213) 
6

>  <r_i_docking_score>  (213) 
-2.57721

>  <r_i_glide_ligand_efficiency>  (213) 
-0.0560264

>  <r_i_glide_ligand_efficiency_sa>  (213) 
-0.200745

>  <r_i_glide_ligand_efficiency_ln>  (213) 
-0.533735

>  <r_i_glide_gscore>  (213) 
-2.57721

>  <r_i_glide_lipo>  (213) 
-0.10975

>  <r_i_glide_hbond>  (213) 
-0.044681

>  <r_i_glide_metal>  (213) 
-0

>  <r_i_glide_rewards>  (213) 
-0.5

>  <r_i_glide_evdw>  (213) 
-30.6081

>  <r_i_glide_ecoul>  (213) 
-2.36133

>  <r_i_glide_erotb>  (213) 
0.0513192

>  <r_i_glide_esite>  (213) 
-0.0894958

>  <r_i_glide_emodel>  (213) 
-43.2535

>  <r_i_glide_energy>  (213) 
-32.9695

>  <r_i_glide_einternal>  (213) 
1.75225

>  <r_i_glide_intrahb_reward>  (213) 
-0.5

>  <i_i_glide_confnum>  (213) 
6

>  <i_i_glide_posenum>  (213) 
2

>  <r_i_glide_eff_state_penalty>  (213) 
0

>  <ligand_id>  (213) 
54

>  <original_smiles>  (213) 
CC(=O)OC1CC2=C(C)C3CC4OC14C2(C)CC1C2CC4C(C)(CC(O)C5(F)CC6OC7C(O)C(O)C5(C)C(O6)C74O)C2=C(C)C31

>  <smiles>  (213) 
[H]OC1([H])C2([H])OC3([H])OC4([H])C2(O[H])C2([H])C([H])([H])C5([H])C(=C(C([H])([H])[H])C6([H])C7([H])C(C([H])([H])[H])=C8C([H])([H])C([H])(OC(=O)C([H])([H])[H])C9(OC9([H])C7([H])[H])C8(C([H])([H])[H])C([H])([H])C56[H])C2(C([H])([H])[H])C([H])([H])C([H])(O[H])C(F)(C3([H])[H])C4(C([H])([H])[H])C1([H])O[H]

$$$$
58:0:0
     RDKit          3D

 67 72  0  0  1  0  0  0  0  0999 V2000
    5.5201  -10.8365    2.0786 O   0  0  0  0  0  0  0  0  0  0  0  0
    4.6647   -9.7391    2.3236 C   0  0  2  0  0  0  0  0  0  0  0  0
    5.4778   -8.4486    2.0803 C   0  0  0  0  0  0  0  0  0  0  0  0
    4.5926   -7.3305    2.0076 O   0  0  0  0  0  0  0  0  0  0  0  0
    5.1757   -6.1341    1.4764 C   0  0  2  0  0  0  0  0  0  0  0  0
    5.1144   -4.9724    2.5007 C   0  0  2  0  0  0  0  0  0  0  0  0
    3.6443   -4.6549    2.8593 C   0  0  0  0  0  0  0  0  0  0  0  0
    2.8797   -4.2481    1.5833 C   0  0  1  0  0  0  0  0  0  0  0  0
    3.5302   -2.9874    0.9733 C   0  0  0  0  0  0  0  0  0  0  0  0
    4.9957   -3.2978    0.6094 C   0  0  1  0  0  0  0  0  0  0  0  0
    5.7682   -3.7112    1.8819 C   0  0  0  0  0  0  0  0  0  0  0  0
    5.0397   -4.4527   -0.4124 C   0  0  0  0  0  0  0  0  0  0  0  0
    4.3977   -5.7176    0.2036 C   0  0  2  0  0  0  0  0  0  0  0  0
    2.9268   -5.4105    0.5694 C   0  0  0  0  0  0  0  0  0  0  0  0
    4.0633   -9.8409    3.7406 C   0  0  0  0  0  0  0  0  0  0  0  0
    2.8512  -10.6924    3.8092 N   0  0  2  0  0  0  0  0  0  0  0  0
    1.6503  -10.2687    3.0743 C   0  0  1  0  0  0  0  0  0  0  0  0
    0.6164  -11.3347    3.4507 C   0  0  0  0  0  0  0  0  0  0  0  0
    1.0353  -11.8076    4.8578 C   0  0  0  0  0  0  0  0  0  0  0  0
    2.3060  -10.9941    5.1426 C   0  0  2  0  0  0  0  0  0  0  0  0
    1.9174   -9.6891    5.8839 C   0  0  0  0  0  0  0  0  0  0  0  0
    0.8809   -8.8237    5.0961 C   0  0  1  0  0  0  0  0  0  0  0  0
    0.7820   -7.3792    5.6274 C   0  0  0  0  0  0  0  0  0  0  0  0
    0.2678   -6.3455    4.7972 C   0  0  0  0  0  0  0  0  0  0  0  0
    0.2524   -5.0163    5.2433 C   0  0  0  0  0  0  0  0  0  0  0  0
    0.7229   -4.6887    6.5251 C   0  0  0  0  0  0  0  0  0  0  0  0
    1.2127   -5.7101    7.3691 C   0  0  0  0  0  0  0  0  0  0  0  0
    1.2289   -7.0374    6.9253 C   0  0  0  0  0  0  0  0  0  0  0  0
    1.1761   -8.8844    3.5682 C   0  0  0  0  0  0  0  0  0  0  0  0
    5.0885  -11.4106    1.4374 H   0  0  0  0  0  0  0  0  0  0  0  0
    3.9095   -9.7774    1.5358 H   0  0  0  0  0  0  0  0  0  0  0  0
    6.2326   -8.2858    2.8606 H   0  0  0  0  0  0  0  0  0  0  0  0
    5.9998   -8.5507    1.1195 H   0  0  0  0  0  0  0  0  0  0  0  0
    6.2261   -6.2845    1.2069 H   0  0  0  0  0  0  0  0  0  0  0  0
    5.6598   -5.2516    3.4034 H   0  0  0  0  0  0  0  0  0  0  0  0
    3.1695   -5.5201    3.3222 H   0  0  0  0  0  0  0  0  0  0  0  0
    3.6020   -3.8492    3.5923 H   0  0  0  0  0  0  0  0  0  0  0  0
    1.8446   -4.0280    1.8390 H   0  0  0  0  0  0  0  0  0  0  0  0
    2.9807   -2.6538    0.0904 H   0  0  0  0  0  0  0  0  0  0  0  0
    3.4900   -2.1635    1.6867 H   0  0  0  0  0  0  0  0  0  0  0  0
    5.4500   -2.4085    0.1705 H   0  0  0  0  0  0  0  0  0  0  0  0
    5.7679   -2.8914    2.5996 H   0  0  0  0  0  0  0  0  0  0  0  0
    6.8150   -3.8995    1.6392 H   0  0  0  0  0  0  0  0  0  0  0  0
    4.5132   -4.1698   -1.3251 H   0  0  0  0  0  0  0  0  0  0  0  0
    6.0709   -4.6505   -0.7046 H   0  0  0  0  0  0  0  0  0  0  0  0
    4.4365   -6.5273   -0.5275 H   0  0  0  0  0  0  0  0  0  0  0  0
    2.4571   -6.2972    0.9951 H   0  0  0  0  0  0  0  0  0  0  0  0
    2.3601   -5.1551   -0.3258 H   0  0  0  0  0  0  0  0  0  0  0  0
    4.8141  -10.2504    4.4131 H   0  0  0  0  0  0  0  0  0  0  0  0
    3.8748   -8.8408    4.1186 H   0  0  0  0  0  0  0  0  0  0  0  0
    1.8014  -10.2337    2.0043 H   0  0  0  0  0  0  0  0  0  0  0  0
   -0.3801  -10.9019    3.4436 H   0  0  0  0  0  0  0  0  0  0  0  0
    0.6470  -12.1700    2.7458 H   0  0  0  0  0  0  0  0  0  0  0  0
    0.2484  -11.6761    5.6193 H   0  0  0  0  0  0  0  0  0  0  0  0
    1.2746  -12.8693    4.8580 H   0  0  0  0  0  0  0  0  0  0  0  0
    3.0113  -11.5659    5.7463 H   0  0  0  0  0  0  0  0  0  0  0  0
    1.5238   -9.9319    6.8783 H   0  0  0  0  0  0  0  0  0  0  0  0
    2.8287   -9.1207    6.0466 H   0  0  0  0  0  0  0  0  0  0  0  0
   -0.1036   -9.2720    5.2559 H   0  0  0  0  0  0  0  0  0  0  0  0
   -0.0941   -6.5537    3.8030 H   0  0  0  0  0  0  0  0  0  0  0  0
   -0.1136   -4.2417    4.5782 H   0  0  0  0  0  0  0  0  0  0  0  0
    0.7206   -3.6652    6.8666 H   0  0  0  0  0  0  0  0  0  0  0  0
    1.5935   -5.4801    8.3540 H   0  0  0  0  0  0  0  0  0  0  0  0
    1.6234   -7.7811    7.6095 H   0  0  0  0  0  0  0  0  0  0  0  0
    1.9245   -8.1375    3.3086 H   0  0  0  0  0  0  0  0  0  0  0  0
    0.2746   -8.6293    3.0113 H   0  0  0  0  0  0  0  0  0  0  0  0
    3.1084  -11.5900    3.4152 H   0  0  0  0  0  0  0  0  0  0  0  0
  1  2  1  0
  1 30  1  0
  2  3  1  0
  2 15  1  0
  2 31  1  6
  3  4  1  0
  3 32  1  0
  3 33  1  0
  4  5  1  0
  5 13  1  0
  5  6  1  0
  5 34  1  6
  6 11  1  0
  6  7  1  0
  6 35  1  1
  7  8  1  0
  7 36  1  0
  7 37  1  0
  8 14  1  0
  8  9  1  0
  8 38  1  1
  9 10  1  0
  9 39  1  0
  9 40  1  0
 10 11  1  0
 10 12  1  0
 10 41  1  6
 11 42  1  0
 11 43  1  0
 12 13  1  0
 12 44  1  0
 12 45  1  0
 13 14  1  0
 13 46  1  6
 14 47  1  0
 14 48  1  0
 15 16  1  0
 15 49  1  0
 15 50  1  0
 16 20  1  0
 16 17  1  0
 16 67  1  6
 17 29  1  0
 17 18  1  0
 17 51  1  6
 18 19  1  0
 18 52  1  0
 18 53  1  0
 19 20  1  0
 19 54  1  0
 19 55  1  0
 20 21  1  0
 20 56  1  1
 21 22  1  0
 21 57  1  0
 21 58  1  0
 22 23  1  0
 22 29  1  0
 22 59  1  6
 23 28  1  0
 23 24  2  0
 24 25  1  0
 24 60  1  0
 25 26  2  0
 25 61  1  0
 26 27  1  0
 26 62  1  0
 27 28  2  0
 27 63  1  0
 28 64  1  0
 29 65  1  0
 29 66  1  0
M  CHG  1  16   1
M  END
>  <i_m_ct_stereo_status>  (214) 
1

>  <s_m_source_file>  (214) 
/var/tmp/pbs.5076255.sched01/tmp1t990xkq/82z3oanzij.sdf

>  <i_m_source_file_index>  (214) 
7

>  <i_lp_mmshare_version>  (214) 
48012

>  <i_f3d_flags>  (214) 
0

>  <s_epik_input>  (214) 
W0NIMl0xW0NAQEhdKFtDSDJdMilbQ0gyXVtDQEhdKFtDSDJdMylbQ0gyXVtDQEBIXTJbQ0BASF0oW0NAQEhdMTMpT1tDSDJdW0NAQEhdKFtPSF0pW0NIMl1OKFtDQEBIXTQ1KVtDQEhdKFtDSDJdW0NIMl00KVtDSDJdW0NASF0oW0NIMl01KWM2W2NIXVtjSF1bY0hdW2NIXVtjSF02

>  <s_epik_cmdline>  (214) 
J2VwaWtfcHl0aG9uJywgJy1waHQnLCAnMi4wJywgJy1waCcsICc3LjAnLCAnLXRuJywgJzgnLCAnLW1hJywgJzIwMCcsICctaW1hZScsICc8aW5maWxlLm1hZT4nLCAnLW9tYWUnLCAnPG91dGZpbGUubWFlPic=

>  <r_epik_Ionization_Penalty>  (214) 
0.000779926

>  <r_epik_Ionization_Penalty_Charging>  (214) 
0.000779819

>  <r_epik_Ionization_Penalty_Neutral>  (214) 
1.0663e-07

>  <r_epik_State_Penalty>  (214) 
0.000499895

>  <r_epik_Charging_Adjusted_Penalty>  (214) 
0.00127971

>  <i_epik_Tot_Q>  (214) 
1

>  <i_epik_Tot_abs_Q>  (214) 
1

>  <s_lp_Force_Field>  (214) 
OPLS3e

>  <r_lp_Energy>  (214) 
36.0839

>  <b_lp_Chiralities_Consistent>  (214) 
1

>  <s_lp_Variant>  (214) 
58:0-1

>  <s_i_glide_gridfile>  (214) 
pfpi4k_grid

>  <i_i_glide_lignum>  (214) 
7

>  <i_i_glide_rotatable_bonds>  (214) 
7

>  <r_i_docking_score>  (214) 
-3.11684

>  <r_i_glide_ligand_efficiency>  (214) 
-0.107477

>  <r_i_glide_ligand_efficiency_sa>  (214) 
-0.330204

>  <r_i_glide_ligand_efficiency_ln>  (214) 
-0.713678

>  <r_i_glide_gscore>  (214) 
-3.11684

>  <r_i_glide_lipo>  (214) 
-0.48041

>  <r_i_glide_hbond>  (214) 
-0.16

>  <r_i_glide_metal>  (214) 
-0

>  <r_i_glide_rewards>  (214) 
-0.705099

>  <r_i_glide_evdw>  (214) 
-20.1502

>  <r_i_glide_ecoul>  (214) 
-9.15372

>  <r_i_glide_erotb>  (214) 
0.622021

>  <r_i_glide_esite>  (214) 
-0.0127833

>  <r_i_glide_emodel>  (214) 
-33.8661

>  <r_i_glide_energy>  (214) 
-29.304

>  <r_i_glide_einternal>  (214) 
6.6886

>  <r_i_glide_intrahb_reward>  (214) 
-0

>  <i_i_glide_confnum>  (214) 
1

>  <i_i_glide_posenum>  (214) 
9

>  <r_i_glide_eff_state_penalty>  (214) 
0

>  <ligand_id>  (214) 
58

>  <original_smiles>  (214) 
OC(COC1C2CC3CC(C2)CC1C3)CN1C2CCC1CC(c1ccccc1)C2

>  <smiles>  (214) 
[H]OC([H])(C([H])([H])OC1([H])C2([H])C([H])([H])C3([H])C([H])([H])C([H])(C2([H])[H])C([H])([H])C1([H])C3([H])[H])C([H])([H])[N+]1([H])C2([H])C([H])([H])C([H])([H])C1([H])C([H])([H])C([H])(c1c([H])c([H])c([H])c([H])c1[H])C2([H])[H]

$$$$
58:0:1
     RDKit          3D

 67 72  0  0  1  0  0  0  0  0999 V2000
    5.2760   -9.8642    1.1071 O   0  0  0  0  0  0  0  0  0  0  0  0
    4.3648   -8.8707    1.5374 C   0  0  2  0  0  0  0  0  0  0  0  0
    5.1101   -7.5210    1.5104 C   0  0  0  0  0  0  0  0  0  0  0  0
    4.2299   -6.4628    1.8933 O   0  0  0  0  0  0  0  0  0  0  0  0
    4.8418   -5.1624    1.9093 C   0  0  2  0  0  0  0  0  0  0  0  0
    3.9051   -4.1583    2.6280 C   0  0  2  0  0  0  0  0  0  0  0  0
    2.5768   -4.0024    1.8526 C   0  0  0  0  0  0  0  0  0  0  0  0
    2.8828   -3.4689    0.4378 C   0  0  1  0  0  0  0  0  0  0  0  0
    3.5622   -2.0893    0.5474 C   0  0  0  0  0  0  0  0  0  0  0  0
    4.8827   -2.2283    1.3326 C   0  0  1  0  0  0  0  0  0  0  0  0
    4.5862   -2.7724    2.7450 C   0  0  0  0  0  0  0  0  0  0  0  0
    5.8150   -3.2120    0.6003 C   0  0  0  0  0  0  0  0  0  0  0  0
    5.1381   -4.5970    0.4912 C   0  0  2  0  0  0  0  0  0  0  0  0
    3.8131   -4.4618   -0.2846 C   0  0  0  0  0  0  0  0  0  0  0  0
    3.8390   -9.2358    2.9419 C   0  0  0  0  0  0  0  0  0  0  0  0
    2.5494   -9.9580    2.9371 N   0  0  2  0  0  0  0  0  0  0  0  0
    1.3750   -9.3322    2.2983 C   0  0  1  0  0  0  0  0  0  0  0  0
    0.2575  -10.3501    2.5452 C   0  0  0  0  0  0  0  0  0  0  0  0
    0.6676  -11.0482    3.8617 C   0  0  0  0  0  0  0  0  0  0  0  0
    2.0031  -10.3820    4.2342 C   0  0  2  0  0  0  0  0  0  0  0  0
    1.7351   -9.1560    5.1592 C   0  0  0  0  0  0  0  0  0  0  0  0
    0.7934   -8.1117    4.4865 C   0  0  1  0  0  0  0  0  0  0  0  0
    0.8609   -6.7470    5.1682 C   0  0  0  0  0  0  0  0  0  0  0  0
   -0.2947   -6.1299    5.6816 C   0  0  0  0  0  0  0  0  0  0  0  0
   -0.2083   -4.8640    6.2980 C   0  0  0  0  0  0  0  0  0  0  0  0
    1.0356   -4.2009    6.3885 C   0  0  0  0  0  0  0  0  0  0  0  0
    2.1923   -4.8159    5.8648 C   0  0  0  0  0  0  0  0  0  0  0  0
    2.1031   -6.0733    5.2517 C   0  0  0  0  0  0  0  0  0  0  0  0
    1.0501   -7.9832    2.9658 C   0  0  0  0  0  0  0  0  0  0  0  0
    4.8239  -10.6889    0.8838 H   0  0  0  0  0  0  0  0  0  0  0  0
    3.5893   -8.7937    0.7719 H   0  0  0  0  0  0  0  0  0  0  0  0
    5.9843   -7.5361    2.1695 H   0  0  0  0  0  0  0  0  0  0  0  0
    5.4528   -7.3624    0.4847 H   0  0  0  0  0  0  0  0  0  0  0  0
    5.7677   -5.2105    2.4864 H   0  0  0  0  0  0  0  0  0  0  0  0
    3.7052   -4.5208    3.6299 H   0  0  0  0  0  0  0  0  0  0  0  0
    2.0599   -4.9596    1.7946 H   0  0  0  0  0  0  0  0  0  0  0  0
    1.9053   -3.3202    2.3763 H   0  0  0  0  0  0  0  0  0  0  0  0
    1.9607   -3.3637   -0.1327 H   0  0  0  0  0  0  0  0  0  0  0  0
    3.7480   -1.6751   -0.4446 H   0  0  0  0  0  0  0  0  0  0  0  0
    2.8952   -1.3881    1.0513 H   0  0  0  0  0  0  0  0  0  0  0  0
    5.3652   -1.2524    1.4001 H   0  0  0  0  0  0  0  0  0  0  0  0
    3.9440   -2.0748    3.2853 H   0  0  0  0  0  0  0  0  0  0  0  0
    5.5077   -2.8456    3.3238 H   0  0  0  0  0  0  0  0  0  0  0  0
    6.0516   -2.8356   -0.3950 H   0  0  0  0  0  0  0  0  0  0  0  0
    6.7641   -3.2965    1.1306 H   0  0  0  0  0  0  0  0  0  0  0  0
    5.8217   -5.2426   -0.0572 H   0  0  0  0  0  0  0  0  0  0  0  0
    3.3284   -5.4363   -0.3309 H   0  0  0  0  0  0  0  0  0  0  0  0
    4.0000   -4.1377   -1.3089 H   0  0  0  0  0  0  0  0  0  0  0  0
    4.5846   -9.8466    3.4461 H   0  0  0  0  0  0  0  0  0  0  0  0
    3.7973   -8.3352    3.5410 H   0  0  0  0  0  0  0  0  0  0  0  0
    1.5195   -9.1749    1.2452 H   0  0  0  0  0  0  0  0  0  0  0  0
   -0.7241   -9.8780    2.5889 H   0  0  0  0  0  0  0  0  0  0  0  0
    0.2145  -11.0794    1.7355 H   0  0  0  0  0  0  0  0  0  0  0  0
   -0.0757  -10.9616    4.6637 H   0  0  0  0  0  0  0  0  0  0  0  0
    0.8161  -12.1115    3.6645 H   0  0  0  0  0  0  0  0  0  0  0  0
    2.6686  -11.0846    4.7344 H   0  0  0  0  0  0  0  0  0  0  0  0
    1.3226   -9.4499    6.1306 H   0  0  0  0  0  0  0  0  0  0  0  0
    2.6995   -8.7204    5.4044 H   0  0  0  0  0  0  0  0  0  0  0  0
   -0.2227   -8.5008    4.5932 H   0  0  0  0  0  0  0  0  0  0  0  0
   -1.2535   -6.6277    5.6010 H   0  0  0  0  0  0  0  0  0  0  0  0
   -1.0983   -4.3998    6.6990 H   0  0  0  0  0  0  0  0  0  0  0  0
    1.1144   -3.2263    6.8506 H   0  0  0  0  0  0  0  0  0  0  0  0
    3.1549   -4.3220    5.9201 H   0  0  0  0  0  0  0  0  0  0  0  0
    2.9918   -6.5185    4.8283 H   0  0  0  0  0  0  0  0  0  0  0  0
    1.8705   -7.2969    2.7699 H   0  0  0  0  0  0  0  0  0  0  0  0
    0.1776   -7.5331    2.4923 H   0  0  0  0  0  0  0  0  0  0  0  0
    2.7206  -10.8124    2.4208 H   0  0  0  0  0  0  0  0  0  0  0  0
  1  2  1  0
  1 30  1  0
  2  3  1  0
  2 15  1  0
  2 31  1  6
  3  4  1  0
  3 32  1  0
  3 33  1  0
  4  5  1  0
  5 13  1  0
  5  6  1  0
  5 34  1  1
  6 11  1  0
  6  7  1  0
  6 35  1  1
  7  8  1  0
  7 36  1  0
  7 37  1  0
  8 14  1  0
  8  9  1  0
  8 38  1  6
  9 10  1  0
  9 39  1  0
  9 40  1  0
 10 11  1  0
 10 12  1  0
 10 41  1  1
 11 42  1  0
 11 43  1  0
 12 13  1  0
 12 44  1  0
 12 45  1  0
 13 14  1  0
 13 46  1  6
 14 47  1  0
 14 48  1  0
 15 16  1  0
 15 49  1  0
 15 50  1  0
 16 20  1  0
 16 17  1  0
 16 67  1  6
 17 29  1  0
 17 18  1  0
 17 51  1  6
 18 19  1  0
 18 52  1  0
 18 53  1  0
 19 20  1  0
 19 54  1  0
 19 55  1  0
 20 21  1  0
 20 56  1  1
 21 22  1  0
 21 57  1  0
 21 58  1  0
 22 23  1  0
 22 29  1  0
 22 59  1  6
 23 28  1  0
 23 24  2  0
 24 25  1  0
 24 60  1  0
 25 26  2  0
 25 61  1  0
 26 27  1  0
 26 62  1  0
 27 28  2  0
 27 63  1  0
 28 64  1  0
 29 65  1  0
 29 66  1  0
M  CHG  1  16   1
M  END
>  <i_m_ct_stereo_status>  (215) 
1

>  <s_m_source_file>  (215) 
/var/tmp/pbs.5076255.sched01/tmp1t990xkq/82z3oanzij.sdf

>  <i_m_source_file_index>  (215) 
7

>  <i_lp_mmshare_version>  (215) 
48012

>  <i_f3d_flags>  (215) 
0

>  <s_epik_input>  (215) 
W0NIMl0xW0NAQEhdKFtDSDJdMilbQ0gyXVtDQEhdKFtDSDJdMylbQ0gyXVtDQEBIXTJbQ0BASF0oW0NAQEhdMTMpT1tDSDJdW0NAQEhdKFtPSF0pW0NIMl1OKFtDQEBIXTQ1KVtDQEhdKFtDSDJdW0NIMl00KVtDSDJdW0NASF0oW0NIMl01KWM2W2NIXVtjSF1bY0hdW2NIXVtjSF02

>  <s_epik_cmdline>  (215) 
J2VwaWtfcHl0aG9uJywgJy1waHQnLCAnMi4wJywgJy1waCcsICc3LjAnLCAnLXRuJywgJzgnLCAnLW1hJywgJzIwMCcsICctaW1hZScsICc8aW5maWxlLm1hZT4nLCAnLW9tYWUnLCAnPG91dGZpbGUubWFlPic=

>  <r_epik_Ionization_Penalty>  (215) 
0.000779926

>  <r_epik_Ionization_Penalty_Charging>  (215) 
0.000779819

>  <r_epik_Ionization_Penalty_Neutral>  (215) 
1.0663e-07

>  <r_epik_State_Penalty>  (215) 
0.000499895

>  <r_epik_Charging_Adjusted_Penalty>  (215) 
0.00127971

>  <i_epik_Tot_Q>  (215) 
1

>  <i_epik_Tot_abs_Q>  (215) 
1

>  <s_lp_Force_Field>  (215) 
OPLS3e

>  <r_lp_Energy>  (215) 
36.0839

>  <b_lp_Chiralities_Consistent>  (215) 
1

>  <s_lp_Variant>  (215) 
58:0-1

>  <s_i_glide_gridfile>  (215) 
pfpi4k_grid

>  <i_i_glide_lignum>  (215) 
7

>  <i_i_glide_rotatable_bonds>  (215) 
7

>  <r_i_docking_score>  (215) 
-2.93773

>  <r_i_glide_ligand_efficiency>  (215) 
-0.101301

>  <r_i_glide_ligand_efficiency_sa>  (215) 
-0.311228

>  <r_i_glide_ligand_efficiency_ln>  (215) 
-0.672665

>  <r_i_glide_gscore>  (215) 
-2.93773

>  <r_i_glide_lipo>  (215) 
-0.57473

>  <r_i_glide_hbond>  (215) 
-0.16

>  <r_i_glide_metal>  (215) 
-0

>  <r_i_glide_rewards>  (215) 
-0.705099

>  <r_i_glide_evdw>  (215) 
-19.6401

>  <r_i_glide_ecoul>  (215) 
-7.55006

>  <r_i_glide_erotb>  (215) 
0.622021

>  <r_i_glide_esite>  (215) 
-0.00540545

>  <r_i_glide_emodel>  (215) 
-33.3349

>  <r_i_glide_energy>  (215) 
-27.1901

>  <r_i_glide_einternal>  (215) 
2.30087

>  <r_i_glide_intrahb_reward>  (215) 
-0

>  <i_i_glide_confnum>  (215) 
2

>  <i_i_glide_posenum>  (215) 
8

>  <r_i_glide_eff_state_penalty>  (215) 
0

>  <ligand_id>  (215) 
58

>  <original_smiles>  (215) 
OC(COC1C2CC3CC(C2)CC1C3)CN1C2CCC1CC(c1ccccc1)C2

>  <smiles>  (215) 
[H]OC([H])(C([H])([H])OC1([H])C2([H])C([H])([H])C3([H])C([H])([H])C([H])(C2([H])[H])C([H])([H])C1([H])C3([H])[H])C([H])([H])[N+]1([H])C2([H])C([H])([H])C([H])([H])C1([H])C([H])([H])C([H])(c1c([H])c([H])c([H])c([H])c1[H])C2([H])[H]

$$$$
58:0:2
     RDKit          3D

 67 72  0  0  1  0  0  0  0  0999 V2000
    0.6301  -12.1904    3.9180 O   0  0  0  0  0  0  0  0  0  0  0  0
    1.5878  -11.1543    3.9641 C   0  0  2  0  0  0  0  0  0  0  0  0
    2.8655  -11.7001    4.6528 C   0  0  0  0  0  0  0  0  0  0  0  0
    3.9169  -10.7369    4.6358 O   0  0  0  0  0  0  0  0  0  0  0  0
    4.6339  -10.6128    3.4030 C   0  0  2  0  0  0  0  0  0  0  0  0
    6.0802  -11.1368    3.5071 C   0  0  2  0  0  0  0  0  0  0  0  0
    6.8687  -10.3392    4.5775 C   0  0  0  0  0  0  0  0  0  0  0  0
    6.8989   -8.8394    4.2060 C   0  0  1  0  0  0  0  0  0  0  0  0
    7.5888   -8.6612    2.8358 C   0  0  0  0  0  0  0  0  0  0  0  0
    6.8128   -9.4488    1.7539 C   0  0  1  0  0  0  0  0  0  0  0  0
    6.7671  -10.9527    2.1298 C   0  0  0  0  0  0  0  0  0  0  0  0
    5.3785   -8.9143    1.6713 C   0  0  0  0  0  0  0  0  0  0  0  0
    4.7102   -9.1227    3.0366 C   0  0  2  0  0  0  0  0  0  0  0  0
    5.4555   -8.3201    4.1257 C   0  0  0  0  0  0  0  0  0  0  0  0
    0.9598   -9.9496    4.6919 C   0  0  0  0  0  0  0  0  0  0  0  0
   -0.1072   -9.2837    3.9062 N   0  0  2  0  0  0  0  0  0  0  0  0
    0.2192   -8.6063    2.6372 C   0  0  1  0  0  0  0  0  0  0  0  0
   -1.1233   -8.0386    2.1763 C   0  0  0  0  0  0  0  0  0  0  0  0
   -1.8866   -7.7836    3.4955 C   0  0  0  0  0  0  0  0  0  0  0  0
   -0.9243   -8.2765    4.5916 C   0  0  2  0  0  0  0  0  0  0  0  0
   -0.0525   -7.0865    5.0945 C   0  0  0  0  0  0  0  0  0  0  0  0
    0.7085   -6.3931    3.9332 C   0  0  1  0  0  0  0  0  0  0  0  0
    1.8811   -5.5550    4.4457 C   0  0  0  0  0  0  0  0  0  0  0  0
    2.9180   -6.1628    5.1969 C   0  0  0  0  0  0  0  0  0  0  0  0
    4.0039   -5.4010    5.6636 C   0  0  0  0  0  0  0  0  0  0  0  0
    4.0676   -4.0253    5.3830 C   0  0  0  0  0  0  0  0  0  0  0  0
    3.0401   -3.4150    4.6252 C   0  0  0  0  0  0  0  0  0  0  0  0
    1.9549   -4.1786    4.1577 C   0  0  0  0  0  0  0  0  0  0  0  0
    1.1808   -7.4198    2.8888 C   0  0  0  0  0  0  0  0  0  0  0  0
    1.0881  -12.9974    3.6569 H   0  0  0  0  0  0  0  0  0  0  0  0
    1.8507  -10.9043    2.9356 H   0  0  0  0  0  0  0  0  0  0  0  0
    2.6476  -11.9511    5.6926 H   0  0  0  0  0  0  0  0  0  0  0  0
    3.2156  -12.6327    4.1899 H   0  0  0  0  0  0  0  0  0  0  0  0
    4.1219  -11.1322    2.5895 H   0  0  0  0  0  0  0  0  0  0  0  0
    6.0633  -12.1963    3.7689 H   0  0  0  0  0  0  0  0  0  0  0  0
    6.4069  -10.4688    5.5579 H   0  0  0  0  0  0  0  0  0  0  0  0
    7.8862  -10.7217    4.6577 H   0  0  0  0  0  0  0  0  0  0  0  0
    7.4451   -8.2787    4.9664 H   0  0  0  0  0  0  0  0  0  0  0  0
    7.6484   -7.6037    2.5675 H   0  0  0  0  0  0  0  0  0  0  0  0
    8.6148   -9.0203    2.8971 H   0  0  0  0  0  0  0  0  0  0  0  0
    7.2895   -9.3081    0.7818 H   0  0  0  0  0  0  0  0  0  0  0  0
    7.7708  -11.3716    2.1676 H   0  0  0  0  0  0  0  0  0  0  0  0
    6.2248  -11.5076    1.3606 H   0  0  0  0  0  0  0  0  0  0  0  0
    5.3688   -7.8565    1.4066 H   0  0  0  0  0  0  0  0  0  0  0  0
    4.8115   -9.4329    0.8985 H   0  0  0  0  0  0  0  0  0  0  0  0
    3.7014   -8.7890    2.9198 H   0  0  0  0  0  0  0  0  0  0  0  0
    4.9658   -8.4389    5.0919 H   0  0  0  0  0  0  0  0  0  0  0  0
    5.4426   -7.2549    3.8962 H   0  0  0  0  0  0  0  0  0  0  0  0
    0.5356  -10.3025    5.6299 H   0  0  0  0  0  0  0  0  0  0  0  0
    1.7453   -9.2573    4.9743 H   0  0  0  0  0  0  0  0  0  0  0  0
    0.6426   -9.2906    1.9109 H   0  0  0  0  0  0  0  0  0  0  0  0
   -0.9812   -7.1348    1.5842 H   0  0  0  0  0  0  0  0  0  0  0  0
   -1.6539   -8.7690    1.5617 H   0  0  0  0  0  0  0  0  0  0  0  0
   -2.1915   -6.7380    3.6438 H   0  0  0  0  0  0  0  0  0  0  0  0
   -2.7896   -8.3904    3.4987 H   0  0  0  0  0  0  0  0  0  0  0  0
   -1.4520   -8.7473    5.4176 H   0  0  0  0  0  0  0  0  0  0  0  0
   -0.6437   -6.3336    5.6247 H   0  0  0  0  0  0  0  0  0  0  0  0
    0.6375   -7.4759    5.8388 H   0  0  0  0  0  0  0  0  0  0  0  0
    0.0128   -5.7284    3.4206 H   0  0  0  0  0  0  0  0  0  0  0  0
    2.8974   -7.2215    5.4099 H   0  0  0  0  0  0  0  0  0  0  0  0
    4.7897   -5.8849    6.2351 H   0  0  0  0  0  0  0  0  0  0  0  0
    4.9009   -3.4379    5.7437 H   0  0  0  0  0  0  0  0  0  0  0  0
    3.0871   -2.3582    4.4053 H   0  0  0  0  0  0  0  0  0  0  0  0
    1.1772   -3.7050    3.5706 H   0  0  0  0  0  0  0  0  0  0  0  0
    2.0591   -7.8316    3.3287 H   0  0  0  0  0  0  0  0  0  0  0  0
    1.4822   -6.9344    1.9562 H   0  0  0  0  0  0  0  0  0  0  0  0
   -0.7556  -10.0418    3.6984 H   0  0  0  0  0  0  0  0  0  0  0  0
  1  2  1  0
  1 30  1  0
  2  3  1  0
  2 15  1  0
  2 31  1  6
  3  4  1  0
  3 32  1  0
  3 33  1  0
  4  5  1  0
  5 13  1  0
  5  6  1  0
  5 34  1  6
  6 11  1  0
  6  7  1  0
  6 35  1  1
  7  8  1  0
  7 36  1  0
  7 37  1  0
  8 14  1  0
  8  9  1  0
  8 38  1  1
  9 10  1  0
  9 39  1  0
  9 40  1  0
 10 11  1  0
 10 12  1  0
 10 41  1  6
 11 42  1  0
 11 43  1  0
 12 13  1  0
 12 44  1  0
 12 45  1  0
 13 14  1  0
 13 46  1  6
 14 47  1  0
 14 48  1  0
 15 16  1  0
 15 49  1  0
 15 50  1  0
 16 20  1  0
 16 17  1  0
 16 67  1  6
 17 29  1  0
 17 18  1  0
 17 51  1  6
 18 19  1  0
 18 52  1  0
 18 53  1  0
 19 20  1  0
 19 54  1  0
 19 55  1  0
 20 21  1  0
 20 56  1  1
 21 22  1  0
 21 57  1  0
 21 58  1  0
 22 23  1  0
 22 29  1  0
 22 59  1  6
 23 28  1  0
 23 24  2  0
 24 25  1  0
 24 60  1  0
 25 26  2  0
 25 61  1  0
 26 27  1  0
 26 62  1  0
 27 28  2  0
 27 63  1  0
 28 64  1  0
 29 65  1  0
 29 66  1  0
M  CHG  1  16   1
M  END
>  <i_m_ct_stereo_status>  (216) 
1

>  <s_m_source_file>  (216) 
/var/tmp/pbs.5076255.sched01/tmp1t990xkq/82z3oanzij.sdf

>  <i_m_source_file_index>  (216) 
7

>  <i_lp_mmshare_version>  (216) 
48012

>  <i_f3d_flags>  (216) 
0

>  <s_epik_input>  (216) 
W0NIMl0xW0NAQEhdKFtDSDJdMilbQ0gyXVtDQEhdKFtDSDJdMylbQ0gyXVtDQEBIXTJbQ0BASF0oW0NAQEhdMTMpT1tDSDJdW0NAQEhdKFtPSF0pW0NIMl1OKFtDQEBIXTQ1KVtDQEhdKFtDSDJdW0NIMl00KVtDSDJdW0NASF0oW0NIMl01KWM2W2NIXVtjSF1bY0hdW2NIXVtjSF02

>  <s_epik_cmdline>  (216) 
J2VwaWtfcHl0aG9uJywgJy1waHQnLCAnMi4wJywgJy1waCcsICc3LjAnLCAnLXRuJywgJzgnLCAnLW1hJywgJzIwMCcsICctaW1hZScsICc8aW5maWxlLm1hZT4nLCAnLW9tYWUnLCAnPG91dGZpbGUubWFlPic=

>  <r_epik_Ionization_Penalty>  (216) 
0.000779926

>  <r_epik_Ionization_Penalty_Charging>  (216) 
0.000779819

>  <r_epik_Ionization_Penalty_Neutral>  (216) 
1.0663e-07

>  <r_epik_State_Penalty>  (216) 
0.000499895

>  <r_epik_Charging_Adjusted_Penalty>  (216) 
0.00127971

>  <i_epik_Tot_Q>  (216) 
1

>  <i_epik_Tot_abs_Q>  (216) 
1

>  <s_lp_Force_Field>  (216) 
OPLS3e

>  <r_lp_Energy>  (216) 
36.0839

>  <b_lp_Chiralities_Consistent>  (216) 
1

>  <s_lp_Variant>  (216) 
58:0-1

>  <s_i_glide_gridfile>  (216) 
pfpi4k_grid

>  <i_i_glide_lignum>  (216) 
7

>  <i_i_glide_rotatable_bonds>  (216) 
7

>  <r_i_docking_score>  (216) 
-2.80263

>  <r_i_glide_ligand_efficiency>  (216) 
-0.0966425

>  <r_i_glide_ligand_efficiency_sa>  (216) 
-0.296916

>  <r_i_glide_ligand_efficiency_ln>  (216) 
-0.641732

>  <r_i_glide_gscore>  (216) 
-2.80263

>  <r_i_glide_lipo>  (216) 
-0.121581

>  <r_i_glide_hbond>  (216) 
-0.369392

>  <r_i_glide_metal>  (216) 
-0

>  <r_i_glide_rewards>  (216) 
-0.705099

>  <r_i_glide_evdw>  (216) 
-20.1114

>  <r_i_glide_ecoul>  (216) 
-7.74062

>  <r_i_glide_erotb>  (216) 
0.622021

>  <r_i_glide_esite>  (216) 
-0.0619187

>  <r_i_glide_emodel>  (216) 
-33.2911

>  <r_i_glide_energy>  (216) 
-27.852

>  <r_i_glide_einternal>  (216) 
2.27285

>  <r_i_glide_intrahb_reward>  (216) 
-0

>  <i_i_glide_confnum>  (216) 
1

>  <i_i_glide_posenum>  (216) 
13

>  <r_i_glide_eff_state_penalty>  (216) 
0

>  <ligand_id>  (216) 
58

>  <original_smiles>  (216) 
OC(COC1C2CC3CC(C2)CC1C3)CN1C2CCC1CC(c1ccccc1)C2

>  <smiles>  (216) 
[H]OC([H])(C([H])([H])OC1([H])C2([H])C([H])([H])C3([H])C([H])([H])C([H])(C2([H])[H])C([H])([H])C1([H])C3([H])[H])C([H])([H])[N+]1([H])C2([H])C([H])([H])C([H])([H])C1([H])C([H])([H])C([H])(c1c([H])c([H])c([H])c([H])c1[H])C2([H])[H]

$$$$
59:0:0
     RDKit          3D

 28 29  0  0  1  0  0  0  0  0999 V2000
    4.2122   -2.0571    4.0687 C   0  0  0  0  0  0  0  0  0  0  0  0
    3.9001   -1.8853    2.5716 C   0  0  2  0  0  0  0  0  0  0  0  0
    4.3709   -3.0591    1.8928 O   0  0  0  0  0  0  0  0  0  0  0  0
    5.4754   -2.7789    1.0756 C   0  0  1  0  0  0  0  0  0  0  0  0
    5.0628   -2.8181   -0.3817 N   0  0  0  0  0  0  0  0  0  0  0  0
    3.7616   -2.5624   -0.7885 C   0  0  0  0  0  0  0  0  0  0  0  0
    3.4057   -2.4838   -2.0826 C   0  0  0  0  0  0  0  0  0  0  0  0
    4.3872   -2.7030   -3.1265 C   0  0  0  0  0  0  0  0  0  0  0  0
    4.1260   -2.6808   -4.3145 O   0  0  0  0  0  0  0  0  0  0  0  0
    5.6872   -2.9459   -2.6881 N   0  0  0  0  0  0  0  0  0  0  0  0
    6.0792   -2.9943   -1.3557 C   0  0  0  0  0  0  0  0  0  0  0  0
    7.2652   -3.1506   -1.0772 O   0  0  0  0  0  0  0  0  0  0  0  0
    5.9487   -1.3743    1.4839 C   0  0  1  0  0  0  0  0  0  0  0  0
    6.6427   -0.6505    0.4862 O   0  0  0  0  0  0  0  0  0  0  0  0
    4.6615   -0.6945    1.9609 C   0  0  1  0  0  0  0  0  0  0  0  0
    3.9165   -0.0801    0.9168 O   0  0  0  0  0  0  0  0  0  0  0  0
    6.4113   -3.0705   -3.3837 H   0  0  0  0  0  0  0  0  0  0  0  0
    3.8789   -1.1879    4.6323 H   0  0  0  0  0  0  0  0  0  0  0  0
    5.2797   -2.1748    4.2498 H   0  0  0  0  0  0  0  0  0  0  0  0
    3.7114   -2.9319    4.4850 H   0  0  0  0  0  0  0  0  0  0  0  0
    2.8166   -1.7894    2.4534 H   0  0  0  0  0  0  0  0  0  0  0  0
    6.2336   -3.5583    1.2088 H   0  0  0  0  0  0  0  0  0  0  0  0
    2.9729   -2.3778   -0.0649 H   0  0  0  0  0  0  0  0  0  0  0  0
    2.3789   -2.2538   -2.3293 H   0  0  0  0  0  0  0  0  0  0  0  0
    6.6132   -1.4942    2.3440 H   0  0  0  0  0  0  0  0  0  0  0  0
    7.0627    0.1012    0.8995 H   0  0  0  0  0  0  0  0  0  0  0  0
    4.8449    0.0944    2.6943 H   0  0  0  0  0  0  0  0  0  0  0  0
    2.9948   -0.0824    1.1362 H   0  0  0  0  0  0  0  0  0  0  0  0
  1  2  1  0
  1 18  1  0
  1 19  1  0
  1 20  1  0
  2 15  1  0
  2  3  1  0
  2 21  1  1
  3  4  1  0
  4  5  1  0
  4 13  1  0
  4 22  1  6
  5 11  1  0
  5  6  1  0
  6  7  2  0
  6 23  1  0
  7  8  1  0
  7 24  1  0
  8  9  2  0
  8 10  1  0
 10 17  1  0
 10 11  1  0
 11 12  2  0
 13 14  1  0
 13 15  1  0
 13 25  1  1
 14 26  1  0
 15 16  1  0
 15 27  1  1
 16 28  1  0
M  END
>  <i_m_ct_stereo_status>  (217) 
1

>  <s_m_source_file>  (217) 
/var/tmp/pbs.5076255.sched01/tmp1t990xkq/82z3oanzij.sdf

>  <i_m_source_file_index>  (217) 
9

>  <i_lp_mmshare_version>  (217) 
48012

>  <i_f3d_flags>  (217) 
0

>  <s_epik_input>  (217) 
W0NIM11bQ0BASF0xT1tDQEhdKFtDQEBIXShbT0hdKVtDQEhdMVtPSF0pbjJbY0hdW2NIXWMoPU8pW25IXWMyPU8=

>  <s_epik_cmdline>  (217) 
J2VwaWtfcHl0aG9uJywgJy1waHQnLCAnMi4wJywgJy1waCcsICc3LjAnLCAnLXRuJywgJzgnLCAnLW1hJywgJzIwMCcsICctaW1hZScsICc8aW5maWxlLm1hZT4nLCAnLW9tYWUnLCAnPG91dGZpbGUubWFlPic=

>  <r_lp_tautomer_probability>  (217) 
0.999537

>  <r_epik_Ionization_Penalty>  (217) 
0.00420113

>  <r_epik_Ionization_Penalty_Charging>  (217) 
0.0042009

>  <r_epik_Ionization_Penalty_Neutral>  (217) 
2.23023e-07

>  <r_epik_State_Penalty>  (217) 
0.00301788

>  <r_epik_Charging_Adjusted_Penalty>  (217) 
0.00721878

>  <i_epik_Tot_Q>  (217) 
0

>  <i_epik_Tot_abs_Q>  (217) 
0

>  <s_epik_Chemistry_Notes>  (217) 
This compound contains an acetal/aminal-like group ( X-CH(R)-Y where X, Y are N, S, or O) that may be acid/base labile, releasing an aldehyde.

>  <s_lp_Force_Field>  (217) 
OPLS3e

>  <r_lp_Energy>  (217) 
18.8341

>  <b_lp_Chiralities_Consistent>  (217) 
1

>  <s_lp_Variant>  (217) 
59:0-1

>  <s_i_glide_gridfile>  (217) 
pfpi4k_grid

>  <i_i_glide_lignum>  (217) 
9

>  <i_i_glide_rotatable_bonds>  (217) 
3

>  <r_i_docking_score>  (217) 
-4.77128

>  <r_i_glide_ligand_efficiency>  (217) 
-0.298205

>  <r_i_glide_ligand_efficiency_sa>  (217) 
-0.751429

>  <r_i_glide_ligand_efficiency_ln>  (217) 
-1.26472

>  <r_i_glide_gscore>  (217) 
-4.77128

>  <r_i_glide_lipo>  (217) 
-0.41887

>  <r_i_glide_hbond>  (217) 
-0.31353

>  <r_i_glide_metal>  (217) 
-0

>  <r_i_glide_rewards>  (217) 
-2.00945

>  <r_i_glide_evdw>  (217) 
-21.8833

>  <r_i_glide_ecoul>  (217) 
-8.41587

>  <r_i_glide_erotb>  (217) 
0.327119

>  <r_i_glide_esite>  (217) 
0

>  <r_i_glide_emodel>  (217) 
-38.5651

>  <r_i_glide_energy>  (217) 
-30.2992

>  <r_i_glide_einternal>  (217) 
1.60559

>  <r_i_glide_intrahb_reward>  (217) 
-0

>  <i_i_glide_confnum>  (217) 
6

>  <i_i_glide_posenum>  (217) 
39

>  <r_i_glide_eff_state_penalty>  (217) 
0

>  <ligand_id>  (217) 
59

>  <original_smiles>  (217) 
CC1OC(n2ccc(=O)[nH]c2=O)C(O)C1O

>  <smiles>  (217) 
[H]OC1([H])C([H])(n2c([H])c([H])c(=O)n([H])c2=O)OC([H])(C([H])([H])[H])C1([H])O[H]

$$$$
59:0:1
     RDKit          3D

 28 29  0  0  1  0  0  0  0  0999 V2000
    4.3438   -2.2077    4.1985 C   0  0  0  0  0  0  0  0  0  0  0  0
    3.9691   -2.0600    2.7216 C   0  0  2  0  0  0  0  0  0  0  0  0
    4.4872   -3.2106    2.0308 O   0  0  0  0  0  0  0  0  0  0  0  0
    5.4866   -2.8436    1.1195 C   0  0  1  0  0  0  0  0  0  0  0  0
    4.9860   -2.9365   -0.3192 N   0  0  0  0  0  0  0  0  0  0  0  0
    5.9215   -3.0617   -1.3421 C   0  0  0  0  0  0  0  0  0  0  0  0
    5.5937   -3.0716   -2.6526 C   0  0  0  0  0  0  0  0  0  0  0  0
    4.2085   -2.9397   -3.0796 C   0  0  0  0  0  0  0  0  0  0  0  0
    3.8308   -2.9177   -4.2459 O   0  0  0  0  0  0  0  0  0  0  0  0
    3.3045   -2.8235   -2.0242 N   0  0  0  0  0  0  0  0  0  0  0  0
    3.6169   -2.8428   -0.6687 C   0  0  0  0  0  0  0  0  0  0  0  0
    2.7083   -2.7683    0.1580 O   0  0  0  0  0  0  0  0  0  0  0  0
    5.9032   -1.4151    1.5064 C   0  0  1  0  0  0  0  0  0  0  0  0
    6.5370   -0.6613    0.4807 O   0  0  0  0  0  0  0  0  0  0  0  0
    4.6206   -0.8232    2.0755 C   0  0  1  0  0  0  0  0  0  0  0  0
    3.7784   -0.2928    1.0769 O   0  0  0  0  0  0  0  0  0  0  0  0
    2.3246   -2.7054   -2.2506 H   0  0  0  0  0  0  0  0  0  0  0  0
    3.9836   -1.3593    4.7814 H   0  0  0  0  0  0  0  0  0  0  0  0
    5.4237   -2.2713    4.3184 H   0  0  0  0  0  0  0  0  0  0  0  0
    3.9122   -3.1179    4.6163 H   0  0  0  0  0  0  0  0  0  0  0  0
    2.8803   -2.0362    2.6448 H   0  0  0  0  0  0  0  0  0  0  0  0
    6.3138   -3.5554    1.1799 H   0  0  0  0  0  0  0  0  0  0  0  0
    6.9697   -3.1211   -1.0809 H   0  0  0  0  0  0  0  0  0  0  0  0
    6.3746   -3.1641   -3.3844 H   0  0  0  0  0  0  0  0  0  0  0  0
    6.6103   -1.4988    2.3339 H   0  0  0  0  0  0  0  0  0  0  0  0
    6.9097    0.1149    0.8808 H   0  0  0  0  0  0  0  0  0  0  0  0
    4.7923   -0.0086    2.7850 H   0  0  0  0  0  0  0  0  0  0  0  0
    3.4750   -1.0058    0.5226 H   0  0  0  0  0  0  0  0  0  0  0  0
  1  2  1  0
  1 18  1  0
  1 19  1  0
  1 20  1  0
  2 15  1  0
  2  3  1  0
  2 21  1  1
  3  4  1  0
  4  5  1  0
  4 13  1  0
  4 22  1  6
  5 11  1  0
  5  6  1  0
  6  7  2  0
  6 23  1  0
  7  8  1  0
  7 24  1  0
  8  9  2  0
  8 10  1  0
 10 17  1  0
 10 11  1  0
 11 12  2  0
 13 14  1  0
 13 15  1  0
 13 25  1  1
 14 26  1  0
 15 16  1  0
 15 27  1  1
 16 28  1  0
M  END
>  <i_m_ct_stereo_status>  (218) 
1

>  <s_m_source_file>  (218) 
/var/tmp/pbs.5076255.sched01/tmp1t990xkq/82z3oanzij.sdf

>  <i_m_source_file_index>  (218) 
9

>  <i_lp_mmshare_version>  (218) 
48012

>  <i_f3d_flags>  (218) 
0

>  <s_epik_input>  (218) 
W0NIM11bQ0BASF0xT1tDQEhdKFtDQEBIXShbT0hdKVtDQEhdMVtPSF0pbjJbY0hdW2NIXWMoPU8pW25IXWMyPU8=

>  <s_epik_cmdline>  (218) 
J2VwaWtfcHl0aG9uJywgJy1waHQnLCAnMi4wJywgJy1waCcsICc3LjAnLCAnLXRuJywgJzgnLCAnLW1hJywgJzIwMCcsICctaW1hZScsICc8aW5maWxlLm1hZT4nLCAnLW9tYWUnLCAnPG91dGZpbGUubWFlPic=

>  <r_lp_tautomer_probability>  (218) 
0.999537

>  <r_epik_Ionization_Penalty>  (218) 
0.00420113

>  <r_epik_Ionization_Penalty_Charging>  (218) 
0.0042009

>  <r_epik_Ionization_Penalty_Neutral>  (218) 
2.23023e-07

>  <r_epik_State_Penalty>  (218) 
0.00301788

>  <r_epik_Charging_Adjusted_Penalty>  (218) 
0.00721878

>  <i_epik_Tot_Q>  (218) 
0

>  <i_epik_Tot_abs_Q>  (218) 
0

>  <s_epik_Chemistry_Notes>  (218) 
This compound contains an acetal/aminal-like group ( X-CH(R)-Y where X, Y are N, S, or O) that may be acid/base labile, releasing an aldehyde.

>  <s_lp_Force_Field>  (218) 
OPLS3e

>  <r_lp_Energy>  (218) 
18.8341

>  <b_lp_Chiralities_Consistent>  (218) 
1

>  <s_lp_Variant>  (218) 
59:0-1

>  <s_i_glide_gridfile>  (218) 
pfpi4k_grid

>  <i_i_glide_lignum>  (218) 
9

>  <i_i_glide_rotatable_bonds>  (218) 
3

>  <r_i_docking_score>  (218) 
-4.37483

>  <r_i_glide_ligand_efficiency>  (218) 
-0.273427

>  <r_i_glide_ligand_efficiency_sa>  (218) 
-0.688993

>  <r_i_glide_ligand_efficiency_ln>  (218) 
-1.15964

>  <r_i_glide_gscore>  (218) 
-4.37483

>  <r_i_glide_lipo>  (218) 
-0.641921

>  <r_i_glide_hbond>  (218) 
-0.258568

>  <r_i_glide_metal>  (218) 
-0

>  <r_i_glide_rewards>  (218) 
-1.95518

>  <r_i_glide_evdw>  (218) 
-22.1207

>  <r_i_glide_ecoul>  (218) 
-4.65706

>  <r_i_glide_erotb>  (218) 
0.327119

>  <r_i_glide_esite>  (218) 
-0.0416872

>  <r_i_glide_emodel>  (218) 
-34.8032

>  <r_i_glide_energy>  (218) 
-26.7777

>  <r_i_glide_einternal>  (218) 
0.739747

>  <r_i_glide_intrahb_reward>  (218) 
-0

>  <i_i_glide_confnum>  (218) 
6

>  <i_i_glide_posenum>  (218) 
2

>  <r_i_glide_eff_state_penalty>  (218) 
0

>  <ligand_id>  (218) 
59

>  <original_smiles>  (218) 
CC1OC(n2ccc(=O)[nH]c2=O)C(O)C1O

>  <smiles>  (218) 
[H]OC1([H])C([H])(n2c([H])c([H])c(=O)n([H])c2=O)OC([H])(C([H])([H])[H])C1([H])O[H]

$$$$
59:0:2
     RDKit          3D

 28 29  0  0  1  0  0  0  0  0999 V2000
    1.9866    0.2697    3.2098 C   0  0  0  0  0  0  0  0  0  0  0  0
    3.4035    0.1326    2.6295 C   0  0  2  0  0  0  0  0  0  0  0  0
    3.3056   -0.0871    1.2264 O   0  0  0  0  0  0  0  0  0  0  0  0
    3.1229   -1.4476    1.0369 C   0  0  1  0  0  0  0  0  0  0  0  0
    3.4865   -1.8390   -0.3710 N   0  0  0  0  0  0  0  0  0  0  0  0
    4.1920   -1.0150   -1.2373 C   0  0  0  0  0  0  0  0  0  0  0  0
    4.4618   -1.3767   -2.5176 C   0  0  0  0  0  0  0  0  0  0  0  0
    4.0475   -2.6725   -3.0238 C   0  0  0  0  0  0  0  0  0  0  0  0
    4.2929   -3.1402   -4.1308 O   0  0  0  0  0  0  0  0  0  0  0  0
    3.3435   -3.4478   -2.1084 N   0  0  0  0  0  0  0  0  0  0  0  0
    3.0557   -3.1057   -0.7948 C   0  0  0  0  0  0  0  0  0  0  0  0
    2.4618   -3.8954   -0.0531 O   0  0  0  0  0  0  0  0  0  0  0  0
    4.0069   -2.1596    2.0793 C   0  0  1  0  0  0  0  0  0  0  0  0
    5.2450   -2.6026    1.5536 O   0  0  0  0  0  0  0  0  0  0  0  0
    4.1931   -1.0737    3.1545 C   0  0  1  0  0  0  0  0  0  0  0  0
    5.5528   -0.6900    3.3344 O   0  0  0  0  0  0  0  0  0  0  0  0
    3.1225   -4.4132   -2.3573 H   0  0  0  0  0  0  0  0  0  0  0  0
    2.0108    0.4162    4.2911 H   0  0  0  0  0  0  0  0  0  0  0  0
    1.3715   -0.6100    3.0250 H   0  0  0  0  0  0  0  0  0  0  0  0
    1.4760    1.1199    2.7500 H   0  0  0  0  0  0  0  0  0  0  0  0
    3.9439    1.0542    2.8254 H   0  0  0  0  0  0  0  0  0  0  0  0
    2.0547   -1.6749    1.1248 H   0  0  0  0  0  0  0  0  0  0  0  0
    4.5286   -0.0428   -0.9472 H   0  0  0  0  0  0  0  0  0  0  0  0
    4.9848   -0.6878   -3.1362 H   0  0  0  0  0  0  0  0  0  0  0  0
    3.4601   -3.0232    2.4560 H   0  0  0  0  0  0  0  0  0  0  0  0
    5.6824   -1.8441    1.1950 H   0  0  0  0  0  0  0  0  0  0  0  0
    3.8006   -1.4201    4.1100 H   0  0  0  0  0  0  0  0  0  0  0  0
    5.6147   -0.0737    4.0503 H   0  0  0  0  0  0  0  0  0  0  0  0
  1  2  1  0
  1 18  1  0
  1 19  1  0
  1 20  1  0
  2 15  1  0
  2  3  1  0
  2 21  1  6
  3  4  1  0
  4  5  1  0
  4 13  1  0
  4 22  1  1
  5 11  1  0
  5  6  1  0
  6  7  2  0
  6 23  1  0
  7  8  1  0
  7 24  1  0
  8  9  2  0
  8 10  1  0
 10 17  1  0
 10 11  1  0
 11 12  2  0
 13 14  1  0
 13 15  1  0
 13 25  1  1
 14 26  1  0
 15 16  1  0
 15 27  1  1
 16 28  1  0
M  END
>  <i_m_ct_stereo_status>  (219) 
1

>  <s_m_source_file>  (219) 
/var/tmp/pbs.5076255.sched01/tmp1t990xkq/82z3oanzij.sdf

>  <i_m_source_file_index>  (219) 
9

>  <i_lp_mmshare_version>  (219) 
48012

>  <i_f3d_flags>  (219) 
0

>  <s_epik_input>  (219) 
W0NIM11bQ0BASF0xT1tDQEhdKFtDQEBIXShbT0hdKVtDQEhdMVtPSF0pbjJbY0hdW2NIXWMoPU8pW25IXWMyPU8=

>  <s_epik_cmdline>  (219) 
J2VwaWtfcHl0aG9uJywgJy1waHQnLCAnMi4wJywgJy1waCcsICc3LjAnLCAnLXRuJywgJzgnLCAnLW1hJywgJzIwMCcsICctaW1hZScsICc8aW5maWxlLm1hZT4nLCAnLW9tYWUnLCAnPG91dGZpbGUubWFlPic=

>  <r_lp_tautomer_probability>  (219) 
0.999537

>  <r_epik_Ionization_Penalty>  (219) 
0.00420113

>  <r_epik_Ionization_Penalty_Charging>  (219) 
0.0042009

>  <r_epik_Ionization_Penalty_Neutral>  (219) 
2.23023e-07

>  <r_epik_State_Penalty>  (219) 
0.00301788

>  <r_epik_Charging_Adjusted_Penalty>  (219) 
0.00721878

>  <i_epik_Tot_Q>  (219) 
0

>  <i_epik_Tot_abs_Q>  (219) 
0

>  <s_epik_Chemistry_Notes>  (219) 
This compound contains an acetal/aminal-like group ( X-CH(R)-Y where X, Y are N, S, or O) that may be acid/base labile, releasing an aldehyde.

>  <s_lp_Force_Field>  (219) 
OPLS3e

>  <r_lp_Energy>  (219) 
18.8341

>  <b_lp_Chiralities_Consistent>  (219) 
1

>  <s_lp_Variant>  (219) 
59:0-1

>  <s_i_glide_gridfile>  (219) 
pfpi4k_grid

>  <i_i_glide_lignum>  (219) 
9

>  <i_i_glide_rotatable_bonds>  (219) 
3

>  <r_i_docking_score>  (219) 
-4.35957

>  <r_i_glide_ligand_efficiency>  (219) 
-0.272473

>  <r_i_glide_ligand_efficiency_sa>  (219) 
-0.68659

>  <r_i_glide_ligand_efficiency_ln>  (219) 
-1.15559

>  <r_i_glide_gscore>  (219) 
-4.35957

>  <r_i_glide_lipo>  (219) 
-0.141715

>  <r_i_glide_hbond>  (219) 
-0.474166

>  <r_i_glide_metal>  (219) 
-0

>  <r_i_glide_rewards>  (219) 
-1.85317

>  <r_i_glide_evdw>  (219) 
-19.5115

>  <r_i_glide_ecoul>  (219) 
-7.30046

>  <r_i_glide_erotb>  (219) 
0.327119

>  <r_i_glide_esite>  (219) 
-0.147002

>  <r_i_glide_emodel>  (219) 
-32.9458

>  <r_i_glide_energy>  (219) 
-26.8119

>  <r_i_glide_einternal>  (219) 
4.19732

>  <r_i_glide_intrahb_reward>  (219) 
-0

>  <i_i_glide_confnum>  (219) 
2

>  <i_i_glide_posenum>  (219) 
18

>  <r_i_glide_eff_state_penalty>  (219) 
0

>  <ligand_id>  (219) 
59

>  <original_smiles>  (219) 
CC1OC(n2ccc(=O)[nH]c2=O)C(O)C1O

>  <smiles>  (219) 
[H]OC1([H])C([H])(n2c([H])c([H])c(=O)n([H])c2=O)OC([H])(C([H])([H])[H])C1([H])O[H]

$$$$
61:0:0
     RDKit          3D

 40 43  0  0  1  0  0  0  0  0999 V2000
    2.6656   -0.3518   -4.5975 C   0  0  0  0  0  0  0  0  0  0  0  0
    3.5016   -0.7125   -3.5076 O   0  0  0  0  0  0  0  0  0  0  0  0
    4.0742   -1.9356   -3.4736 C   0  0  0  0  0  0  0  0  0  0  0  0
    3.8744   -2.8065   -4.3154 O   0  0  0  0  0  0  0  0  0  0  0  0
    4.9415   -2.0395   -2.3858 N   0  0  0  0  0  0  0  0  0  0  0  0
    5.1019   -1.0254   -1.3496 C   0  0  0  0  0  0  0  0  0  0  0  0
    5.9635   -1.6750   -0.2714 C   0  0  0  0  0  0  0  0  0  0  0  0
    6.7412   -2.7647   -1.0075 C   0  0  1  0  0  0  0  0  0  0  0  0
    7.1373   -3.8540   -0.1258 N   0  0  0  0  0  0  0  0  0  0  0  0
    8.4551   -4.0039    0.2011 N   0  0  0  0  0  0  0  0  0  0  0  0
    8.5804   -5.0284    0.9983 N   0  0  0  0  0  0  0  0  0  0  0  0
    7.3165   -5.5477    1.2184 C   0  0  0  0  0  0  0  0  0  0  0  0
    6.9640   -6.5880    1.9752 N   0  0  0  0  0  0  0  0  0  0  0  0
    5.6327   -6.8611    1.9887 C   0  0  0  0  0  0  0  0  0  0  0  0
    4.6652   -6.1233    1.2561 C   0  0  0  0  0  0  0  0  0  0  0  0
    3.2209   -6.4301    1.2865 C   0  0  0  0  0  0  0  0  0  0  0  0
    2.1966   -5.7366    0.5838 C   0  0  0  0  0  0  0  0  0  0  0  0
    1.0004   -6.2558    0.8282 N   0  0  0  0  0  0  0  0  0  0  0  0
    1.2370   -7.2783    1.6892 N   0  0  0  0  0  0  0  0  0  0  0  0
    0.1228   -8.0618    2.1855 C   0  0  0  0  0  0  0  0  0  0  0  0
    2.5809   -7.4182    1.9857 C   0  0  0  0  0  0  0  0  0  0  0  0
    5.0182   -5.0608    0.4853 N   0  0  0  0  0  0  0  0  0  0  0  0
    6.3569   -4.8074    0.5020 C   0  0  0  0  0  0  0  0  0  0  0  0
    5.8144   -3.1846   -2.1641 C   0  0  0  0  0  0  0  0  0  0  0  0
    2.2554    0.6443   -4.4392 H   0  0  0  0  0  0  0  0  0  0  0  0
    1.8297   -1.0441   -4.7171 H   0  0  0  0  0  0  0  0  0  0  0  0
    3.2284   -0.3371   -5.5317 H   0  0  0  0  0  0  0  0  0  0  0  0
    5.6067   -0.1796   -1.8021 H   0  0  0  0  0  0  0  0  0  0  0  0
    4.1449   -0.6897   -0.9483 H   0  0  0  0  0  0  0  0  0  0  0  0
    6.6078   -0.9672    0.2514 H   0  0  0  0  0  0  0  0  0  0  0  0
    5.3031   -2.1300    0.4675 H   0  0  0  0  0  0  0  0  0  0  0  0
    7.6389   -2.3225   -1.4471 H   0  0  0  0  0  0  0  0  0  0  0  0
    5.3338   -7.6909    2.6106 H   0  0  0  0  0  0  0  0  0  0  0  0
    2.2711   -4.8814   -0.0799 H   0  0  0  0  0  0  0  0  0  0  0  0
    0.4864   -8.9817    2.6457 H   0  0  0  0  0  0  0  0  0  0  0  0
   -0.5501   -8.3117    1.3658 H   0  0  0  0  0  0  0  0  0  0  0  0
   -0.4321   -7.4914    2.9298 H   0  0  0  0  0  0  0  0  0  0  0  0
    2.9556   -8.1861    2.6509 H   0  0  0  0  0  0  0  0  0  0  0  0
    5.1757   -4.0321   -1.9227 H   0  0  0  0  0  0  0  0  0  0  0  0
    6.3776   -3.4471   -3.0616 H   0  0  0  0  0  0  0  0  0  0  0  0
  1  2  1  0
  1 25  1  0
  1 26  1  0
  1 27  1  0
  2  3  1  0
  3  4  2  0
  3  5  1  0
  5 24  1  0
  5  6  1  0
  6  7  1  0
  6 28  1  0
  6 29  1  0
  7  8  1  0
  7 30  1  0
  7 31  1  0
  8  9  1  0
  8 24  1  0
  8 32  1  6
  9 23  1  0
  9 10  1  0
 10 11  2  0
 11 12  1  0
 12 23  2  0
 12 13  1  0
 13 14  2  0
 14 15  1  0
 14 33  1  0
 15 16  1  0
 15 22  2  0
 16 21  2  0
 16 17  1  0
 17 18  2  0
 17 34  1  0
 18 19  1  0
 19 20  1  0
 19 21  1  0
 20 35  1  0
 20 36  1  0
 20 37  1  0
 21 38  1  0
 22 23  1  0
 24 39  1  0
 24 40  1  0
M  END
>  <i_m_ct_stereo_status>  (220) 
1

>  <s_m_source_file>  (220) 
/var/tmp/pbs.5076255.sched01/tmp1t990xkq/82z3oanzij.sdf

>  <i_m_source_file_index>  (220) 
11

>  <i_lp_mmshare_version>  (220) 
48012

>  <i_f3d_flags>  (220) 
0

>  <s_epik_input>  (220) 
W0NIM11PQyg9TylOMVtDSDJdW0NIMl1bQ0BIXShbQ0gyXTEpbihubjIpYyhjMjMpbmMoW2NIXW4zKS1jNFtjSF1ubihbQ0gzXSlbY0hdNA==

>  <s_epik_cmdline>  (220) 
J2VwaWtfcHl0aG9uJywgJy1waHQnLCAnMi4wJywgJy1waCcsICc3LjAnLCAnLXRuJywgJzgnLCAnLW1hJywgJzIwMCcsICctaW1hZScsICc8aW5maWxlLm1hZT4nLCAnLW9tYWUnLCAnPG91dGZpbGUubWFlPic=

>  <r_lp_tautomer_probability>  (220) 
1

>  <r_epik_Ionization_Penalty>  (220) 
4.98913e-05

>  <r_epik_Ionization_Penalty_Charging>  (220) 
0

>  <r_epik_Ionization_Penalty_Neutral>  (220) 
4.98913e-05

>  <r_epik_State_Penalty>  (220) 
-0

>  <r_epik_Charging_Adjusted_Penalty>  (220) 
0

>  <i_epik_Tot_Q>  (220) 
0

>  <i_epik_Tot_abs_Q>  (220) 
0

>  <s_epik_Chemistry_Notes>  (220) 
This compound has an ester and may undergo hydrolysis at high or low pH.

>  <s_lp_Force_Field>  (220) 
OPLS3e

>  <r_lp_Energy>  (220) 
18.5149

>  <b_lp_Chiralities_Consistent>  (220) 
1

>  <s_lp_Variant>  (220) 
61:0-1

>  <s_i_glide_gridfile>  (220) 
pfpi4k_grid

>  <i_i_glide_lignum>  (220) 
11

>  <i_i_glide_rotatable_bonds>  (220) 
4

>  <r_i_docking_score>  (220) 
-5.08104

>  <r_i_glide_ligand_efficiency>  (220) 
-0.21171

>  <r_i_glide_ligand_efficiency_sa>  (220) 
-0.610677

>  <r_i_glide_ligand_efficiency_ln>  (220) 
-1.21613

>  <r_i_glide_gscore>  (220) 
-5.08104

>  <r_i_glide_lipo>  (220) 
-0.565213

>  <r_i_glide_hbond>  (220) 
-0.445827

>  <r_i_glide_metal>  (220) 
-0

>  <r_i_glide_rewards>  (220) 
-1.91589

>  <r_i_glide_evdw>  (220) 
-35.9944

>  <r_i_glide_ecoul>  (220) 
-5.51402

>  <r_i_glide_erotb>  (220) 
0.522637

>  <r_i_glide_esite>  (220) 
-0.0499206

>  <r_i_glide_emodel>  (220) 
-54.5769

>  <r_i_glide_energy>  (220) 
-41.5084

>  <r_i_glide_einternal>  (220) 
0.616084

>  <r_i_glide_intrahb_reward>  (220) 
-0

>  <i_i_glide_confnum>  (220) 
5

>  <i_i_glide_posenum>  (220) 
28

>  <r_i_glide_eff_state_penalty>  (220) 
0

>  <ligand_id>  (220) 
61

>  <original_smiles>  (220) 
COC(=O)N1CCC(n2nnc3ncc(-c4cnn(C)c4)nc32)C1

>  <smiles>  (220) 
[H]c1nc2nnn(C3([H])C([H])([H])N(C(=O)OC([H])([H])[H])C([H])([H])C3([H])[H])c2nc1-c1c([H])nn(C([H])([H])[H])c1[H]

$$$$
61:0:1
     RDKit          3D

 40 43  0  0  1  0  0  0  0  0999 V2000
   -4.6919    3.5434    1.8293 C   0  0  0  0  0  0  0  0  0  0  0  0
   -3.5379    2.9443    2.3965 O   0  0  0  0  0  0  0  0  0  0  0  0
   -2.5439    3.7142    2.8820 C   0  0  0  0  0  0  0  0  0  0  0  0
   -2.5705    4.9422    2.8808 O   0  0  0  0  0  0  0  0  0  0  0  0
   -1.5107    2.9098    3.3775 N   0  0  0  0  0  0  0  0  0  0  0  0
   -0.3083    3.4391    4.0096 C   0  0  0  0  0  0  0  0  0  0  0  0
    0.4036    2.2132    4.5965 C   0  0  0  0  0  0  0  0  0  0  0  0
   -0.0878    1.0378    3.7441 C   0  0  1  0  0  0  0  0  0  0  0  0
   -0.0718   -0.2532    4.4252 N   0  0  0  0  0  0  0  0  0  0  0  0
   -0.8253   -0.4399    5.5537 N   0  0  0  0  0  0  0  0  0  0  0  0
   -0.7024   -1.6672    5.9594 N   0  0  0  0  0  0  0  0  0  0  0  0
    0.1752   -2.2996    5.0971 C   0  0  0  0  0  0  0  0  0  0  0  0
    0.5897   -3.5680    5.1328 N   0  0  0  0  0  0  0  0  0  0  0  0
    1.4464   -3.9094    4.1362 C   0  0  0  0  0  0  0  0  0  0  0  0
    1.8803   -3.0146    3.1188 C   0  0  0  0  0  0  0  0  0  0  0  0
    2.7950   -3.4229    2.0363 C   0  0  0  0  0  0  0  0  0  0  0  0
    3.1216   -2.6606    0.8766 C   0  0  0  0  0  0  0  0  0  0  0  0
    3.9734   -3.3127    0.0993 N   0  0  0  0  0  0  0  0  0  0  0  0
    4.1938   -4.4935    0.7270 N   0  0  0  0  0  0  0  0  0  0  0  0
    5.0847   -5.4640    0.1248 C   0  0  0  0  0  0  0  0  0  0  0  0
    3.4917   -4.5927    1.9119 C   0  0  0  0  0  0  0  0  0  0  0  0
    1.4564   -1.7251    3.0752 N   0  0  0  0  0  0  0  0  0  0  0  0
    0.5999   -1.4111    4.0895 C   0  0  0  0  0  0  0  0  0  0  0  0
   -1.4949    1.4557    3.3137 C   0  0  0  0  0  0  0  0  0  0  0  0
   -5.3703    2.7660    1.4821 H   0  0  0  0  0  0  0  0  0  0  0  0
   -4.4512    4.1785    0.9766 H   0  0  0  0  0  0  0  0  0  0  0  0
   -5.2237    4.1442    2.5664 H   0  0  0  0  0  0  0  0  0  0  0  0
    0.3069    3.9298    3.2531 H   0  0  0  0  0  0  0  0  0  0  0  0
   -0.5404    4.1799    4.7771 H   0  0  0  0  0  0  0  0  0  0  0  0
    1.4881    2.3233    4.5881 H   0  0  0  0  0  0  0  0  0  0  0  0
    0.0943    2.0991    5.6354 H   0  0  0  0  0  0  0  0  0  0  0  0
    0.5406    0.9722    2.8559 H   0  0  0  0  0  0  0  0  0  0  0  0
    1.7850   -4.9312    4.1507 H   0  0  0  0  0  0  0  0  0  0  0  0
    2.7730   -1.6803    0.5759 H   0  0  0  0  0  0  0  0  0  0  0  0
    5.3490   -6.2337    0.8505 H   0  0  0  0  0  0  0  0  0  0  0  0
    5.9972   -4.9773   -0.2205 H   0  0  0  0  0  0  0  0  0  0  0  0
    4.5921   -5.9379   -0.7231 H   0  0  0  0  0  0  0  0  0  0  0  0
    3.5558   -5.4684    2.5471 H   0  0  0  0  0  0  0  0  0  0  0  0
   -2.2500    1.1005    4.0125 H   0  0  0  0  0  0  0  0  0  0  0  0
   -1.7334    1.0844    2.3156 H   0  0  0  0  0  0  0  0  0  0  0  0
  1  2  1  0
  1 25  1  0
  1 26  1  0
  1 27  1  0
  2  3  1  0
  3  4  2  0
  3  5  1  0
  5 24  1  0
  5  6  1  0
  6  7  1  0
  6 28  1  0
  6 29  1  0
  7  8  1  0
  7 30  1  0
  7 31  1  0
  8  9  1  0
  8 24  1  0
  8 32  1  6
  9 23  1  0
  9 10  1  0
 10 11  2  0
 11 12  1  0
 12 23  2  0
 12 13  1  0
 13 14  2  0
 14 15  1  0
 14 33  1  0
 15 16  1  0
 15 22  2  0
 16 21  2  0
 16 17  1  0
 17 18  2  0
 17 34  1  0
 18 19  1  0
 19 20  1  0
 19 21  1  0
 20 35  1  0
 20 36  1  0
 20 37  1  0
 21 38  1  0
 22 23  1  0
 24 39  1  0
 24 40  1  0
M  END
>  <i_m_ct_stereo_status>  (221) 
1

>  <s_m_source_file>  (221) 
/var/tmp/pbs.5076255.sched01/tmp1t990xkq/82z3oanzij.sdf

>  <i_m_source_file_index>  (221) 
11

>  <i_lp_mmshare_version>  (221) 
48012

>  <i_f3d_flags>  (221) 
0

>  <s_epik_input>  (221) 
W0NIM11PQyg9TylOMVtDSDJdW0NIMl1bQ0BIXShbQ0gyXTEpbihubjIpYyhjMjMpbmMoW2NIXW4zKS1jNFtjSF1ubihbQ0gzXSlbY0hdNA==

>  <s_epik_cmdline>  (221) 
J2VwaWtfcHl0aG9uJywgJy1waHQnLCAnMi4wJywgJy1waCcsICc3LjAnLCAnLXRuJywgJzgnLCAnLW1hJywgJzIwMCcsICctaW1hZScsICc8aW5maWxlLm1hZT4nLCAnLW9tYWUnLCAnPG91dGZpbGUubWFlPic=

>  <r_lp_tautomer_probability>  (221) 
1

>  <r_epik_Ionization_Penalty>  (221) 
4.98913e-05

>  <r_epik_Ionization_Penalty_Charging>  (221) 
0

>  <r_epik_Ionization_Penalty_Neutral>  (221) 
4.98913e-05

>  <r_epik_State_Penalty>  (221) 
-0

>  <r_epik_Charging_Adjusted_Penalty>  (221) 
0

>  <i_epik_Tot_Q>  (221) 
0

>  <i_epik_Tot_abs_Q>  (221) 
0

>  <s_epik_Chemistry_Notes>  (221) 
This compound has an ester and may undergo hydrolysis at high or low pH.

>  <s_lp_Force_Field>  (221) 
OPLS3e

>  <r_lp_Energy>  (221) 
18.5149

>  <b_lp_Chiralities_Consistent>  (221) 
1

>  <s_lp_Variant>  (221) 
61:0-1

>  <s_i_glide_gridfile>  (221) 
pfpi4k_grid

>  <i_i_glide_lignum>  (221) 
11

>  <i_i_glide_rotatable_bonds>  (221) 
4

>  <r_i_docking_score>  (221) 
-3.44433

>  <r_i_glide_ligand_efficiency>  (221) 
-0.143514

>  <r_i_glide_ligand_efficiency_sa>  (221) 
-0.413966

>  <r_i_glide_ligand_efficiency_ln>  (221) 
-0.824387

>  <r_i_glide_gscore>  (221) 
-3.44433

>  <r_i_glide_lipo>  (221) 
-0.349658

>  <r_i_glide_hbond>  (221) 
-0.16

>  <r_i_glide_metal>  (221) 
-0

>  <r_i_glide_rewards>  (221) 
-1.20947

>  <r_i_glide_evdw>  (221) 
-25.4259

>  <r_i_glide_ecoul>  (221) 
-4.97499

>  <r_i_glide_erotb>  (221) 
0.522637

>  <r_i_glide_esite>  (221) 
-0.230296

>  <r_i_glide_emodel>  (221) 
-39.2105

>  <r_i_glide_energy>  (221) 
-30.4009

>  <r_i_glide_einternal>  (221) 
0.415377

>  <r_i_glide_intrahb_reward>  (221) 
-0

>  <i_i_glide_confnum>  (221) 
2

>  <i_i_glide_posenum>  (221) 
3

>  <r_i_glide_eff_state_penalty>  (221) 
0

>  <ligand_id>  (221) 
61

>  <original_smiles>  (221) 
COC(=O)N1CCC(n2nnc3ncc(-c4cnn(C)c4)nc32)C1

>  <smiles>  (221) 
[H]c1nc2nnn(C3([H])C([H])([H])N(C(=O)OC([H])([H])[H])C([H])([H])C3([H])[H])c2nc1-c1c([H])nn(C([H])([H])[H])c1[H]

$$$$
61:0:2
     RDKit          3D

 40 43  0  0  1  0  0  0  0  0999 V2000
    1.6161   -3.6100    3.4457 C   0  0  0  0  0  0  0  0  0  0  0  0
    1.4160   -2.2439    3.1177 O   0  0  0  0  0  0  0  0  0  0  0  0
    2.2245   -1.3005    3.6433 C   0  0  0  0  0  0  0  0  0  0  0  0
    3.1507   -1.5459    4.4202 O   0  0  0  0  0  0  0  0  0  0  0  0
    1.8544   -0.0348    3.1867 N   0  0  0  0  0  0  0  0  0  0  0  0
    0.7525    0.2303    2.2650 C   0  0  0  0  0  0  0  0  0  0  0  0
    0.5959    1.7458    2.2418 C   0  0  0  0  0  0  0  0  0  0  0  0
    1.9658    2.2831    2.6629 C   0  0  1  0  0  0  0  0  0  0  0  0
    1.9017    3.6090    3.2676 N   0  0  0  0  0  0  0  0  0  0  0  0
    2.7059    4.6064    2.7930 N   0  0  0  0  0  0  0  0  0  0  0  0
    2.4675    5.7017    3.4617 N   0  0  0  0  0  0  0  0  0  0  0  0
    1.4835    5.4235    4.3941 C   0  0  0  0  0  0  0  0  0  0  0  0
    0.9295    6.2447    5.2912 N   0  0  0  0  0  0  0  0  0  0  0  0
    0.0102    5.6590    6.0984 C   0  0  0  0  0  0  0  0  0  0  0  0
   -0.3595    4.2874    6.0122 C   0  0  0  0  0  0  0  0  0  0  0  0
   -1.3893    3.6828    6.8735 C   0  0  0  0  0  0  0  0  0  0  0  0
   -2.0464    2.4372    6.6606 C   0  0  0  0  0  0  0  0  0  0  0  0
   -2.9251    2.1838    7.6162 N   0  0  0  0  0  0  0  0  0  0  0  0
   -2.8617    3.2530    8.4449 N   0  0  0  0  0  0  0  0  0  0  0  0
   -3.7232    3.3082    9.6060 C   0  0  0  0  0  0  0  0  0  0  0  0
   -1.9342    4.1842    8.0246 C   0  0  0  0  0  0  0  0  0  0  0  0
    0.2003    3.4490    5.1054 N   0  0  0  0  0  0  0  0  0  0  0  0
    1.1193    4.0676    4.3108 C   0  0  0  0  0  0  0  0  0  0  0  0
    2.5405    1.1934    3.5824 C   0  0  0  0  0  0  0  0  0  0  0  0
    0.8796   -4.2273    2.9319 H   0  0  0  0  0  0  0  0  0  0  0  0
    1.5042   -3.7778    4.5182 H   0  0  0  0  0  0  0  0  0  0  0  0
    2.6076   -3.9485    3.1402 H   0  0  0  0  0  0  0  0  0  0  0  0
    1.0159   -0.1400    1.2775 H   0  0  0  0  0  0  0  0  0  0  0  0
   -0.1759   -0.2417    2.5819 H   0  0  0  0  0  0  0  0  0  0  0  0
    0.2701    2.1326    1.2752 H   0  0  0  0  0  0  0  0  0  0  0  0
   -0.1692    2.0178    2.9684 H   0  0  0  0  0  0  0  0  0  0  0  0
    2.5908    2.3269    1.7680 H   0  0  0  0  0  0  0  0  0  0  0  0
   -0.4578    6.3147    6.8170 H   0  0  0  0  0  0  0  0  0  0  0  0
   -1.9196    1.7241    5.8563 H   0  0  0  0  0  0  0  0  0  0  0  0
   -3.3851    4.0915   10.2868 H   0  0  0  0  0  0  0  0  0  0  0  0
   -3.6899    2.3596   10.1397 H   0  0  0  0  0  0  0  0  0  0  0  0
   -4.7482    3.5151    9.2942 H   0  0  0  0  0  0  0  0  0  0  0  0
   -1.7503    5.1026    8.5661 H   0  0  0  0  0  0  0  0  0  0  0  0
    2.3241    1.3952    4.6321 H   0  0  0  0  0  0  0  0  0  0  0  0
    3.6239    1.1039    3.4686 H   0  0  0  0  0  0  0  0  0  0  0  0
  1  2  1  0
  1 25  1  0
  1 26  1  0
  1 27  1  0
  2  3  1  0
  3  4  2  0
  3  5  1  0
  5 24  1  0
  5  6  1  0
  6  7  1  0
  6 28  1  0
  6 29  1  0
  7  8  1  0
  7 30  1  0
  7 31  1  0
  8  9  1  0
  8 24  1  0
  8 32  1  6
  9 23  1  0
  9 10  1  0
 10 11  2  0
 11 12  1  0
 12 23  2  0
 12 13  1  0
 13 14  2  0
 14 15  1  0
 14 33  1  0
 15 16  1  0
 15 22  2  0
 16 21  2  0
 16 17  1  0
 17 18  2  0
 17 34  1  0
 18 19  1  0
 19 20  1  0
 19 21  1  0
 20 35  1  0
 20 36  1  0
 20 37  1  0
 21 38  1  0
 22 23  1  0
 24 39  1  0
 24 40  1  0
M  END
>  <i_m_ct_stereo_status>  (222) 
1

>  <s_m_source_file>  (222) 
/var/tmp/pbs.5076255.sched01/tmp1t990xkq/82z3oanzij.sdf

>  <i_m_source_file_index>  (222) 
11

>  <i_lp_mmshare_version>  (222) 
48012

>  <i_f3d_flags>  (222) 
0

>  <s_epik_input>  (222) 
W0NIM11PQyg9TylOMVtDSDJdW0NIMl1bQ0BIXShbQ0gyXTEpbihubjIpYyhjMjMpbmMoW2NIXW4zKS1jNFtjSF1ubihbQ0gzXSlbY0hdNA==

>  <s_epik_cmdline>  (222) 
J2VwaWtfcHl0aG9uJywgJy1waHQnLCAnMi4wJywgJy1waCcsICc3LjAnLCAnLXRuJywgJzgnLCAnLW1hJywgJzIwMCcsICctaW1hZScsICc8aW5maWxlLm1hZT4nLCAnLW9tYWUnLCAnPG91dGZpbGUubWFlPic=

>  <r_lp_tautomer_probability>  (222) 
1

>  <r_epik_Ionization_Penalty>  (222) 
4.98913e-05

>  <r_epik_Ionization_Penalty_Charging>  (222) 
0

>  <r_epik_Ionization_Penalty_Neutral>  (222) 
4.98913e-05

>  <r_epik_State_Penalty>  (222) 
-0

>  <r_epik_Charging_Adjusted_Penalty>  (222) 
0

>  <i_epik_Tot_Q>  (222) 
0

>  <i_epik_Tot_abs_Q>  (222) 
0

>  <s_epik_Chemistry_Notes>  (222) 
This compound has an ester and may undergo hydrolysis at high or low pH.

>  <s_lp_Force_Field>  (222) 
OPLS3e

>  <r_lp_Energy>  (222) 
18.5149

>  <b_lp_Chiralities_Consistent>  (222) 
1

>  <s_lp_Variant>  (222) 
61:0-1

>  <s_i_glide_gridfile>  (222) 
pfpi4k_grid

>  <i_i_glide_lignum>  (222) 
11

>  <i_i_glide_rotatable_bonds>  (222) 
4

>  <r_i_docking_score>  (222) 
-2.69421

>  <r_i_glide_ligand_efficiency>  (222) 
-0.112259

>  <r_i_glide_ligand_efficiency_sa>  (222) 
-0.32381

>  <r_i_glide_ligand_efficiency_ln>  (222) 
-0.644848

>  <r_i_glide_gscore>  (222) 
-2.69421

>  <r_i_glide_lipo>  (222) 
-0.128954

>  <r_i_glide_hbond>  (222) 
0

>  <r_i_glide_metal>  (222) 
-0

>  <r_i_glide_rewards>  (222) 
-1.3048

>  <r_i_glide_evdw>  (222) 
-26.0044

>  <r_i_glide_ecoul>  (222) 
-2.28473

>  <r_i_glide_erotb>  (222) 
0.522637

>  <r_i_glide_esite>  (222) 
-0.140166

>  <r_i_glide_emodel>  (222) 
-34.8479

>  <r_i_glide_energy>  (222) 
-28.2892

>  <r_i_glide_einternal>  (222) 
0.979846

>  <r_i_glide_intrahb_reward>  (222) 
-0

>  <i_i_glide_confnum>  (222) 
5

>  <i_i_glide_posenum>  (222) 
6

>  <r_i_glide_eff_state_penalty>  (222) 
0

>  <ligand_id>  (222) 
61

>  <original_smiles>  (222) 
COC(=O)N1CCC(n2nnc3ncc(-c4cnn(C)c4)nc32)C1

>  <smiles>  (222) 
[H]c1nc2nnn(C3([H])C([H])([H])N(C(=O)OC([H])([H])[H])C([H])([H])C3([H])[H])c2nc1-c1c([H])nn(C([H])([H])[H])c1[H]

$$$$
62:0:0
     RDKit          3D

 53 60  0  0  1  0  0  0  0  0999 V2000
    1.3980   -7.4451    2.7839 C   0  0  0  0  0  0  0  0  0  0  0  0
    2.4730   -7.8903    1.7597 C   0  0  2  0  0  0  0  0  0  0  0  0
    3.4026   -8.9527    2.3587 C   0  0  0  0  0  0  0  0  0  0  0  0
    4.7268   -8.7481    1.6551 C   0  0  0  0  0  0  0  0  0  0  0  0
    4.7596   -7.2591    1.3624 C   0  0  0  0  0  0  0  0  0  0  0  0
    3.3589   -6.7849    1.3100 N   0  0  0  0  0  0  0  0  0  0  0  0
    2.9212   -5.6324    0.7747 C   0  0  0  0  0  0  0  0  0  0  0  0
    1.7360   -5.4834    0.4478 O   0  0  0  0  0  0  0  0  0  0  0  0
    3.8726   -4.4057    0.6208 C   0  0  1  0  0  0  0  0  0  0  0  0
    4.5052   -4.0097    2.0258 C   0  0  2  0  0  0  0  0  0  0  0  0
    3.5140   -3.1321    2.8404 C   0  0  0  0  0  0  0  0  0  0  0  0
    3.8658   -1.7221    2.2905 C   0  0  1  0  0  0  0  0  0  0  0  0
    5.3409   -1.7834    2.6666 C   0  0  0  0  0  0  0  0  0  0  0  0
    5.7378   -3.0697    1.9420 C   0  0  2  0  0  0  0  0  0  0  0  0
    6.1812   -2.7364    0.5206 C   0  0  2  0  0  0  0  0  0  0  0  0
    5.9333   -1.3188   -0.0614 C   0  0  0  0  0  0  0  0  0  0  0  0
    4.4558   -1.2108   -0.4915 C   0  0  1  0  0  0  0  0  0  0  0  0
    4.1562   -2.1659   -1.8048 C   0  0  2  0  0  0  0  0  0  0  0  0
    4.6570   -3.7206   -2.2101 C   0  0  0  0  0  0  0  0  0  0  0  0
    4.8270   -4.6389   -0.7365 C   0  0  1  0  0  0  0  0  0  0  0  0
    5.4891   -3.4953   -0.5822 C   0  0  1  0  0  0  0  0  0  0  0  0
    3.8625   -3.1368   -0.8975 C   0  0  1  0  0  0  0  0  0  0  0  0
    3.1099   -3.0579    0.3038 C   0  0  2  0  0  0  0  0  0  0  0  0
    3.5129   -1.6608    0.7360 C   0  0  1  0  0  0  0  0  0  0  0  0
    0.8050   -8.2945    3.1140 H   0  0  0  0  0  0  0  0  0  0  0  0
    0.6976   -6.7101    2.3838 H   0  0  0  0  0  0  0  0  0  0  0  0
    1.8713   -6.9990    3.6601 H   0  0  0  0  0  0  0  0  0  0  0  0
    1.9828   -8.3176    0.8888 H   0  0  0  0  0  0  0  0  0  0  0  0
    3.5440   -8.7685    3.4288 H   0  0  0  0  0  0  0  0  0  0  0  0
    3.0260   -9.9699    2.2390 H   0  0  0  0  0  0  0  0  0  0  0  0
    5.5762   -9.0508    2.2685 H   0  0  0  0  0  0  0  0  0  0  0  0
    4.7566   -9.3218    0.7265 H   0  0  0  0  0  0  0  0  0  0  0  0
    5.3261   -6.7926    2.1628 H   0  0  0  0  0  0  0  0  0  0  0  0
    5.3034   -7.1376    0.4365 H   0  0  0  0  0  0  0  0  0  0  0  0
    4.7450   -4.8560    2.6564 H   0  0  0  0  0  0  0  0  0  0  0  0
    2.4663   -3.4124    2.7214 H   0  0  0  0  0  0  0  0  0  0  0  0
    3.7231   -3.2162    3.9104 H   0  0  0  0  0  0  0  0  0  0  0  0
    3.3543   -0.9336    2.8493 H   0  0  0  0  0  0  0  0  0  0  0  0
    5.9252   -0.8847    2.4768 H   0  0  0  0  0  0  0  0  0  0  0  0
    5.4592   -1.9254    3.7465 H   0  0  0  0  0  0  0  0  0  0  0  0
    6.5730   -3.5533    2.4436 H   0  0  0  0  0  0  0  0  0  0  0  0
    7.2611   -2.9248    0.4968 H   0  0  0  0  0  0  0  0  0  0  0  0
    6.2503   -0.4745    0.5493 H   0  0  0  0  0  0  0  0  0  0  0  0
    6.5303   -1.2173   -0.9658 H   0  0  0  0  0  0  0  0  0  0  0  0
    4.2406   -0.1701   -0.7517 H   0  0  0  0  0  0  0  0  0  0  0  0
    3.2598   -1.8414   -2.3461 H   0  0  0  0  0  0  0  0  0  0  0  0
    3.9651   -4.2129   -2.9154 H   0  0  0  0  0  0  0  0  0  0  0  0
    5.5156   -3.6986   -2.9048 H   0  0  0  0  0  0  0  0  0  0  0  0
    5.4601   -5.5073   -0.8031 H   0  0  0  0  0  0  0  0  0  0  0  0
    6.4213   -3.5707   -1.1952 H   0  0  0  0  0  0  0  0  0  0  0  0
    2.9227   -3.7013   -1.2868 H   0  0  0  0  0  0  0  0  0  0  0  0
    2.0150   -3.0975    0.2356 H   0  0  0  0  0  0  0  0  0  0  0  0
    2.6102   -1.0448    0.6613 H   0  0  0  0  0  0  0  0  0  0  0  0
  1  2  1  0
  1 25  1  0
  1 26  1  0
  1 27  1  0
  2  6  1  0
  2  3  1  0
  2 28  1  6
  3  4  1  0
  3 29  1  0
  3 30  1  0
  4  5  1  0
  4 31  1  0
  4 32  1  0
  5  6  1  0
  5 33  1  0
  5 34  1  0
  6  7  1  0
  7  8  2  0
  9  7  1  1
  9 20  1  0
  9 23  1  0
  9 10  1  0
 10 14  1  0
 10 11  1  0
 10 35  1  1
 11 12  1  0
 11 36  1  0
 11 37  1  0
 12 24  1  0
 12 13  1  0
 12 38  1  1
 13 14  1  0
 13 39  1  0
 13 40  1  0
 14 15  1  0
 14 41  1  1
 15 21  1  0
 15 16  1  0
 15 42  1  1
 16 17  1  0
 16 43  1  0
 16 44  1  0
 17 24  1  0
 17 18  1  0
 17 45  1  6
 18 22  1  0
 18 19  1  0
 18 46  1  6
 19 20  1  0
 19 47  1  0
 19 48  1  0
 20 21  1  0
 20 49  1  6
 21 22  1  0
 21 50  1  6
 22 23  1  0
 22 51  1  6
 23 24  1  0
 23 52  1  6
 24 53  1  1
M  END
>  <i_m_ct_stereo_status>  (223) 
1

>  <s_m_source_file>  (223) 
/var/tmp/pbs.5076255.sched01/tmp1t990xkq/82z3oanzij.sdf

>  <i_m_source_file_index>  (223) 
12

>  <i_lp_mmshare_version>  (223) 
48012

>  <i_f3d_flags>  (223) 
0

>  <s_epik_input>  (223) 
W0NIM11bQ0BASF0xW0NIMl1bQ0gyXVtDSDJdTjFDKD1PKVtDQEBdMjNbQ0BIXTRbQ0BIXTVbQ0BIXTZbQ0BIXTdbQ0BASF0yW0NIMl1bQ0BASF04W0NASF0oW0NIMl02KVtDQEhdKFtDQEBIXShbQ0gyXTQpW0NIMl01KVtDQEhdM1tDQEhdNzg=

>  <s_epik_cmdline>  (223) 
J2VwaWtfcHl0aG9uJywgJy1waHQnLCAnMi4wJywgJy1waCcsICc3LjAnLCAnLXRuJywgJzgnLCAnLW1hJywgJzIwMCcsICctaW1hZScsICc8aW5maWxlLm1hZT4nLCAnLW9tYWUnLCAnPG91dGZpbGUubWFlPic=

>  <r_lp_tautomer_probability>  (223) 
1

>  <r_epik_Ionization_Penalty>  (223) 
7.32492e-07

>  <r_epik_Ionization_Penalty_Charging>  (223) 
0

>  <r_epik_Ionization_Penalty_Neutral>  (223) 
7.32492e-07

>  <r_epik_State_Penalty>  (223) 
-0

>  <r_epik_Charging_Adjusted_Penalty>  (223) 
0

>  <i_epik_Tot_Q>  (223) 
0

>  <i_epik_Tot_abs_Q>  (223) 
0

>  <s_lp_Force_Field>  (223) 
OPLS3e

>  <r_lp_Energy>  (223) 
410.989

>  <b_lp_Chiralities_Consistent>  (223) 
1

>  <s_lp_Variant>  (223) 
62:0-1

>  <s_i_glide_gridfile>  (223) 
pfpi4k_grid

>  <i_i_glide_lignum>  (223) 
12

>  <i_i_glide_rotatable_bonds>  (223) 
2

>  <r_i_docking_score>  (223) 
-3.07499

>  <r_i_glide_ligand_efficiency>  (223) 
-0.128125

>  <r_i_glide_ligand_efficiency_sa>  (223) 
-0.369575

>  <r_i_glide_ligand_efficiency_ln>  (223) 
-0.735986

>  <r_i_glide_gscore>  (223) 
-3.07499

>  <r_i_glide_lipo>  (223) 
-0.384028

>  <r_i_glide_hbond>  (223) 
-0.111755

>  <r_i_glide_metal>  (223) 
-0

>  <r_i_glide_rewards>  (223) 
-1.28805

>  <r_i_glide_evdw>  (223) 
-25.9505

>  <r_i_glide_ecoul>  (223) 
-2.20774

>  <r_i_glide_erotb>  (223) 
0.357713

>  <r_i_glide_esite>  (223) 
-0.0201865

>  <r_i_glide_emodel>  (223) 
-33.1228

>  <r_i_glide_energy>  (223) 
-28.1582

>  <r_i_glide_einternal>  (223) 
0.870458

>  <r_i_glide_intrahb_reward>  (223) 
-0

>  <i_i_glide_confnum>  (223) 
5

>  <i_i_glide_posenum>  (223) 
38

>  <r_i_glide_eff_state_penalty>  (223) 
0

>  <ligand_id>  (223) 
62

>  <original_smiles>  (223) 
CC1CCCN1C(=O)C12C3CC4CC3C3CC5C6CC1C3C6C2C45

>  <smiles>  (223) 
[H]C([H])([H])C1([H])N(C(=O)C23C4([H])C([H])([H])C5([H])C([H])([H])C4([H])C4([H])C([H])([H])C6([H])C7([H])C([H])([H])C2([H])C4([H])C7([H])C3([H])C56[H])C([H])([H])C([H])([H])C1([H])[H]

$$$$
62:0:1
     RDKit          3D

 53 60  0  0  1  0  0  0  0  0999 V2000
    1.9073   -4.7523    4.7259 C   0  0  0  0  0  0  0  0  0  0  0  0
    1.5661   -5.4229    3.3774 C   0  0  2  0  0  0  0  0  0  0  0  0
    1.6906   -6.9508    3.4948 C   0  0  0  0  0  0  0  0  0  0  0  0
    2.1108   -7.4111    2.1231 C   0  0  0  0  0  0  0  0  0  0  0  0
    2.9128   -6.2444    1.5688 C   0  0  0  0  0  0  0  0  0  0  0  0
    2.4427   -5.0275    2.2612 N   0  0  0  0  0  0  0  0  0  0  0  0
    2.7079   -3.7347    1.9110 C   0  0  0  0  0  0  0  0  0  0  0  0
    2.1569   -2.8059    2.4996 O   0  0  0  0  0  0  0  0  0  0  0  0
    3.7349   -3.3834    0.7831 C   0  0  1  0  0  0  0  0  0  0  0  0
    5.2026   -3.6627    1.2912 C   0  0  2  0  0  0  0  0  0  0  0  0
    5.6754   -2.4444    2.1319 C   0  0  0  0  0  0  0  0  0  0  0  0
    6.2398   -1.5107    1.0248 C   0  0  1  0  0  0  0  0  0  0  0  0
    7.2343   -2.5247    0.4730 C   0  0  0  0  0  0  0  0  0  0  0  0
    6.2904   -3.6878    0.1745 C   0  0  2  0  0  0  0  0  0  0  0  0
    5.7339   -3.5189   -1.2265 C   0  0  2  0  0  0  0  0  0  0  0  0
    5.9438   -2.2243   -2.0281 C   0  0  0  0  0  0  0  0  0  0  0  0
    4.9459   -1.1556   -1.5311 C   0  0  1  0  0  0  0  0  0  0  0  0
    3.4110   -1.5689   -1.9639 C   0  0  2  0  0  0  0  0  0  0  0  0
    2.5761   -3.0382   -1.9916 C   0  0  0  0  0  0  0  0  0  0  0  0
    3.1873   -4.0108   -0.6658 C   0  0  1  0  0  0  0  0  0  0  0  0
    4.2460   -3.5819   -1.3646 C   0  0  1  0  0  0  0  0  0  0  0  0
    3.3784   -2.2510   -0.7832 C   0  0  1  0  0  0  0  0  0  0  0  0
    3.8218   -1.8268    0.4928 C   0  0  2  0  0  0  0  0  0  0  0  0
    5.0485   -1.0490    0.0736 C   0  0  1  0  0  0  0  0  0  0  0  0
    1.2506   -5.1157    5.5242 H   0  0  0  0  0  0  0  0  0  0  0  0
    1.8072   -3.6640    4.7158 H   0  0  0  0  0  0  0  0  0  0  0  0
    2.9381   -4.9797    5.0135 H   0  0  0  0  0  0  0  0  0  0  0  0
    0.5465   -5.1729    3.0949 H   0  0  0  0  0  0  0  0  0  0  0  0
    2.4853   -7.2166    4.1921 H   0  0  0  0  0  0  0  0  0  0  0  0
    0.7752   -7.4379    3.8345 H   0  0  0  0  0  0  0  0  0  0  0  0
    2.6741   -8.3418    2.1229 H   0  0  0  0  0  0  0  0  0  0  0  0
    1.2330   -7.5604    1.4998 H   0  0  0  0  0  0  0  0  0  0  0  0
    3.9822   -6.3931    1.7629 H   0  0  0  0  0  0  0  0  0  0  0  0
    2.7158   -6.3192    0.5138 H   0  0  0  0  0  0  0  0  0  0  0  0
    5.2563   -4.5665    1.8904 H   0  0  0  0  0  0  0  0  0  0  0  0
    4.9050   -1.9853    2.7597 H   0  0  0  0  0  0  0  0  0  0  0  0
    6.4456   -2.7521    2.8174 H   0  0  0  0  0  0  0  0  0  0  0  0
    6.7573   -0.6570    1.4507 H   0  0  0  0  0  0  0  0  0  0  0  0
    7.8780   -2.1744   -0.3292 H   0  0  0  0  0  0  0  0  0  0  0  0
    7.9454   -2.8443    1.2328 H   0  0  0  0  0  0  0  0  0  0  0  0
    6.8394   -4.6274    0.2228 H   0  0  0  0  0  0  0  0  0  0  0  0
    6.2078   -4.2617   -1.8544 H   0  0  0  0  0  0  0  0  0  0  0  0
    6.9659   -1.8669   -2.0715 H   0  0  0  0  0  0  0  0  0  0  0  0
    5.6942   -2.4226   -3.0708 H   0  0  0  0  0  0  0  0  0  0  0  0
    5.1984   -0.1976   -1.9923 H   0  0  0  0  0  0  0  0  0  0  0  0
    2.7412   -0.7043   -1.9646 H   0  0  0  0  0  0  0  0  0  0  0  0
    1.4872   -2.9016   -1.9028 H   0  0  0  0  0  0  0  0  0  0  0  0
    2.5580   -3.4770   -2.9993 H   0  0  0  0  0  0  0  0  0  0  0  0
    3.0419   -5.0607   -0.7340 H   0  0  0  0  0  0  0  0  0  0  0  0
    4.2838   -4.1453   -2.3249 H   0  0  0  0  0  0  0  0  0  0  0  0
    2.3470   -2.0597   -0.2709 H   0  0  0  0  0  0  0  0  0  0  0  0
    3.1887   -1.1605    1.0939 H   0  0  0  0  0  0  0  0  0  0  0  0
    4.8458   -0.0069    0.3252 H   0  0  0  0  0  0  0  0  0  0  0  0
  1  2  1  0
  1 25  1  0
  1 26  1  0
  1 27  1  0
  2  6  1  0
  2  3  1  0
  2 28  1  6
  3  4  1  0
  3 29  1  0
  3 30  1  0
  4  5  1  0
  4 31  1  0
  4 32  1  0
  5  6  1  0
  5 33  1  0
  5 34  1  0
  6  7  1  0
  7  8  2  0
  9  7  1  1
  9 20  1  0
  9 23  1  0
  9 10  1  0
 10 14  1  0
 10 11  1  0
 10 35  1  1
 11 12  1  0
 11 36  1  0
 11 37  1  0
 12 24  1  0
 12 13  1  0
 12 38  1  1
 13 14  1  0
 13 39  1  0
 13 40  1  0
 14 15  1  0
 14 41  1  6
 15 21  1  0
 15 16  1  0
 15 42  1  6
 16 17  1  0
 16 43  1  0
 16 44  1  0
 17 24  1  0
 17 18  1  0
 17 45  1  6
 18 22  1  0
 18 19  1  0
 18 46  1  1
 19 20  1  0
 19 47  1  0
 19 48  1  0
 20 21  1  0
 20 49  1  1
 21 22  1  0
 21 50  1  6
 22 23  1  0
 22 51  1  1
 23 24  1  0
 23 52  1  1
 24 53  1  6
M  END
>  <i_m_ct_stereo_status>  (224) 
1

>  <s_m_source_file>  (224) 
/var/tmp/pbs.5076255.sched01/tmp1t990xkq/82z3oanzij.sdf

>  <i_m_source_file_index>  (224) 
12

>  <i_lp_mmshare_version>  (224) 
48012

>  <i_f3d_flags>  (224) 
0

>  <s_epik_input>  (224) 
W0NIM11bQ0BASF0xW0NIMl1bQ0gyXVtDSDJdTjFDKD1PKVtDQEBdMjNbQ0BIXTRbQ0BIXTVbQ0BIXTZbQ0BIXTdbQ0BASF0yW0NIMl1bQ0BASF04W0NASF0oW0NIMl02KVtDQEhdKFtDQEBIXShbQ0gyXTQpW0NIMl01KVtDQEhdM1tDQEhdNzg=

>  <s_epik_cmdline>  (224) 
J2VwaWtfcHl0aG9uJywgJy1waHQnLCAnMi4wJywgJy1waCcsICc3LjAnLCAnLXRuJywgJzgnLCAnLW1hJywgJzIwMCcsICctaW1hZScsICc8aW5maWxlLm1hZT4nLCAnLW9tYWUnLCAnPG91dGZpbGUubWFlPic=

>  <r_lp_tautomer_probability>  (224) 
1

>  <r_epik_Ionization_Penalty>  (224) 
7.32492e-07

>  <r_epik_Ionization_Penalty_Charging>  (224) 
0

>  <r_epik_Ionization_Penalty_Neutral>  (224) 
7.32492e-07

>  <r_epik_State_Penalty>  (224) 
-0

>  <r_epik_Charging_Adjusted_Penalty>  (224) 
0

>  <i_epik_Tot_Q>  (224) 
0

>  <i_epik_Tot_abs_Q>  (224) 
0

>  <s_lp_Force_Field>  (224) 
OPLS3e

>  <r_lp_Energy>  (224) 
410.989

>  <b_lp_Chiralities_Consistent>  (224) 
1

>  <s_lp_Variant>  (224) 
62:0-1

>  <s_i_glide_gridfile>  (224) 
pfpi4k_grid

>  <i_i_glide_lignum>  (224) 
12

>  <i_i_glide_rotatable_bonds>  (224) 
2

>  <r_i_docking_score>  (224) 
-2.36795

>  <r_i_glide_ligand_efficiency>  (224) 
-0.0986646

>  <r_i_glide_ligand_efficiency_sa>  (224) 
-0.284598

>  <r_i_glide_ligand_efficiency_ln>  (224) 
-0.566759

>  <r_i_glide_gscore>  (224) 
-2.36795

>  <r_i_glide_lipo>  (224) 
-0.589729

>  <r_i_glide_hbond>  (224) 
0

>  <r_i_glide_metal>  (224) 
-0

>  <r_i_glide_rewards>  (224) 
-1.2036

>  <r_i_glide_evdw>  (224) 
-19.3083

>  <r_i_glide_ecoul>  (224) 
0.340107

>  <r_i_glide_erotb>  (224) 
0.357713

>  <r_i_glide_esite>  (224) 
-0.0179331

>  <r_i_glide_emodel>  (224) 
-22.085

>  <r_i_glide_energy>  (224) 
-18.9682

>  <r_i_glide_einternal>  (224) 
0.296494

>  <r_i_glide_intrahb_reward>  (224) 
-0

>  <i_i_glide_confnum>  (224) 
5

>  <i_i_glide_posenum>  (224) 
3

>  <r_i_glide_eff_state_penalty>  (224) 
0

>  <ligand_id>  (224) 
62

>  <original_smiles>  (224) 
CC1CCCN1C(=O)C12C3CC4CC3C3CC5C6CC1C3C6C2C45

>  <smiles>  (224) 
[H]C([H])([H])C1([H])N(C(=O)C23C4([H])C([H])([H])C5([H])C([H])([H])C4([H])C4([H])C([H])([H])C6([H])C7([H])C([H])([H])C2([H])C4([H])C7([H])C3([H])C56[H])C([H])([H])C([H])([H])C1([H])[H]

$$$$
62:0:2
     RDKit          3D

 53 60  0  0  1  0  0  0  0  0999 V2000
    2.5137   -4.0366    5.0848 C   0  0  0  0  0  0  0  0  0  0  0  0
    2.3223   -5.0486    3.9198 C   0  0  2  0  0  0  0  0  0  0  0  0
    2.7720   -6.4513    4.3526 C   0  0  0  0  0  0  0  0  0  0  0  0
    3.2173   -7.1312    3.0756 C   0  0  0  0  0  0  0  0  0  0  0  0
    3.7615   -5.9903    2.2407 C   0  0  0  0  0  0  0  0  0  0  0  0
    3.0812   -4.7621    2.6984 N   0  0  0  0  0  0  0  0  0  0  0  0
    2.9980   -3.5734    2.0259 C   0  0  0  0  0  0  0  0  0  0  0  0
    2.1999   -2.7093    2.3864 O   0  0  0  0  0  0  0  0  0  0  0  0
    3.8939   -3.2977    0.7887 C   0  0  1  0  0  0  0  0  0  0  0  0
    5.4292   -3.3709    1.1799 C   0  0  2  0  0  0  0  0  0  0  0  0
    5.8534   -2.0179    1.8039 C   0  0  0  0  0  0  0  0  0  0  0  0
    6.2542   -1.2069    0.5384 C   0  0  1  0  0  0  0  0  0  0  0  0
    7.2940   -2.2167    0.0335 C   0  0  0  0  0  0  0  0  0  0  0  0
    6.4077   -3.4668   -0.0248 C   0  0  2  0  0  0  0  0  0  0  0  0
    5.7063   -3.5189   -1.3746 C   0  0  2  0  0  0  0  0  0  0  0  0
    5.7397   -2.3074   -2.3116 C   0  0  0  0  0  0  0  0  0  0  0  0
    4.7063   -1.2597   -1.8783 C   0  0  1  0  0  0  0  0  0  0  0  0
    3.1850   -1.8396   -2.1119 C   0  0  2  0  0  0  0  0  0  0  0  0
    2.4680   -3.3534   -1.8687 C   0  0  0  0  0  0  0  0  0  0  0  0
    3.2753   -4.1366   -0.5323 C   0  0  1  0  0  0  0  0  0  0  0  0
    4.2149   -3.6741   -1.3649 C   0  0  1  0  0  0  0  0  0  0  0  0
    3.2900   -2.3603   -0.8465 C   0  0  1  0  0  0  0  0  0  0  0  0
    3.8230   -1.7710    0.3133 C   0  0  2  0  0  0  0  0  0  0  0  0
    4.9340   -0.9626   -0.3197 C   0  0  1  0  0  0  0  0  0  0  0  0
    1.9987   -4.3747    5.9929 H   0  0  0  0  0  0  0  0  0  0  0  0
    2.1543   -3.0208    4.8752 H   0  0  0  0  0  0  0  0  0  0  0  0
    3.5740   -3.9504    5.3426 H   0  0  0  0  0  0  0  0  0  0  0  0
    1.2717   -5.1016    3.6453 H   0  0  0  0  0  0  0  0  0  0  0  0
    3.6381   -6.3842    5.0234 H   0  0  0  0  0  0  0  0  0  0  0  0
    1.9927   -7.0179    4.8731 H   0  0  0  0  0  0  0  0  0  0  0  0
    3.9875   -7.8764    3.2628 H   0  0  0  0  0  0  0  0  0  0  0  0
    2.3768   -7.6268    2.5853 H   0  0  0  0  0  0  0  0  0  0  0  0
    4.8298   -5.9538    2.4531 H   0  0  0  0  0  0  0  0  0  0  0  0
    3.6158   -6.2836    1.2042 H   0  0  0  0  0  0  0  0  0  0  0  0
    5.6718   -4.1511    1.8913 H   0  0  0  0  0  0  0  0  0  0  0  0
    5.0870   -1.5330    2.4088 H   0  0  0  0  0  0  0  0  0  0  0  0
    6.6687   -2.1903    2.4796 H   0  0  0  0  0  0  0  0  0  0  0  0
    6.7130   -0.2514    0.7833 H   0  0  0  0  0  0  0  0  0  0  0  0
    7.8912   -1.9603   -0.8443 H   0  0  0  0  0  0  0  0  0  0  0  0
    8.0781   -2.3788    0.7717 H   0  0  0  0  0  0  0  0  0  0  0  0
    7.0140   -4.3699    0.0512 H   0  0  0  0  0  0  0  0  0  0  0  0
    6.2164   -4.2597   -1.9696 H   0  0  0  0  0  0  0  0  0  0  0  0
    6.7321   -1.9142   -2.4031 H   0  0  0  0  0  0  0  0  0  0  0  0
    5.4483   -2.6454   -3.3006 H   0  0  0  0  0  0  0  0  0  0  0  0
    4.8465   -0.3448   -2.4710 H   0  0  0  0  0  0  0  0  0  0  0  0
    2.4837   -1.0068   -2.2086 H   0  0  0  0  0  0  0  0  0  0  0  0
    1.3839   -3.2597   -1.6844 H   0  0  0  0  0  0  0  0  0  0  0  0
    2.4093   -3.8525   -2.8350 H   0  0  0  0  0  0  0  0  0  0  0  0
    3.1850   -5.2155   -0.5032 H   0  0  0  0  0  0  0  0  0  0  0  0
    4.2490   -4.2344   -2.3341 H   0  0  0  0  0  0  0  0  0  0  0  0
    2.2781   -2.2461   -0.2674 H   0  0  0  0  0  0  0  0  0  0  0  0
    3.1879   -1.0688    0.8632 H   0  0  0  0  0  0  0  0  0  0  0  0
    4.6599    0.0864   -0.1691 H   0  0  0  0  0  0  0  0  0  0  0  0
  1  2  1  0
  1 25  1  0
  1 26  1  0
  1 27  1  0
  2  6  1  0
  2  3  1  0
  2 28  1  6
  3  4  1  0
  3 29  1  0
  3 30  1  0
  4  5  1  0
  4 31  1  0
  4 32  1  0
  5  6  1  0
  5 33  1  0
  5 34  1  0
  6  7  1  0
  7  8  2  0
  9  7  1  1
  9 20  1  0
  9 23  1  0
  9 10  1  0
 10 14  1  0
 10 11  1  0
 10 35  1  1
 11 12  1  0
 11 36  1  0
 11 37  1  0
 12 24  1  0
 12 13  1  0
 12 38  1  1
 13 14  1  0
 13 39  1  0
 13 40  1  0
 14 15  1  0
 14 41  1  1
 15 21  1  0
 15 16  1  0
 15 42  1  6
 16 17  1  0
 16 43  1  0
 16 44  1  0
 17 24  1  0
 17 18  1  0
 17 45  1  6
 18 22  1  0
 18 19  1  0
 18 46  1  1
 19 20  1  0
 19 47  1  0
 19 48  1  0
 20 21  1  0
 20 49  1  1
 21 22  1  0
 21 50  1  6
 22 23  1  0
 22 51  1  1
 23 24  1  0
 23 52  1  1
 24 53  1  6
M  END
>  <i_m_ct_stereo_status>  (225) 
1

>  <s_m_source_file>  (225) 
/var/tmp/pbs.5076255.sched01/tmp1t990xkq/82z3oanzij.sdf

>  <i_m_source_file_index>  (225) 
12

>  <i_lp_mmshare_version>  (225) 
48012

>  <i_f3d_flags>  (225) 
0

>  <s_epik_input>  (225) 
W0NIM11bQ0BASF0xW0NIMl1bQ0gyXVtDSDJdTjFDKD1PKVtDQEBdMjNbQ0BIXTRbQ0BIXTVbQ0BIXTZbQ0BIXTdbQ0BASF0yW0NIMl1bQ0BASF04W0NASF0oW0NIMl02KVtDQEhdKFtDQEBIXShbQ0gyXTQpW0NIMl01KVtDQEhdM1tDQEhdNzg=

>  <s_epik_cmdline>  (225) 
J2VwaWtfcHl0aG9uJywgJy1waHQnLCAnMi4wJywgJy1waCcsICc3LjAnLCAnLXRuJywgJzgnLCAnLW1hJywgJzIwMCcsICctaW1hZScsICc8aW5maWxlLm1hZT4nLCAnLW9tYWUnLCAnPG91dGZpbGUubWFlPic=

>  <r_lp_tautomer_probability>  (225) 
1

>  <r_epik_Ionization_Penalty>  (225) 
7.32492e-07

>  <r_epik_Ionization_Penalty_Charging>  (225) 
0

>  <r_epik_Ionization_Penalty_Neutral>  (225) 
7.32492e-07

>  <r_epik_State_Penalty>  (225) 
-0

>  <r_epik_Charging_Adjusted_Penalty>  (225) 
0

>  <i_epik_Tot_Q>  (225) 
0

>  <i_epik_Tot_abs_Q>  (225) 
0

>  <s_lp_Force_Field>  (225) 
OPLS3e

>  <r_lp_Energy>  (225) 
410.989

>  <b_lp_Chiralities_Consistent>  (225) 
1

>  <s_lp_Variant>  (225) 
62:0-1

>  <s_i_glide_gridfile>  (225) 
pfpi4k_grid

>  <i_i_glide_lignum>  (225) 
12

>  <i_i_glide_rotatable_bonds>  (225) 
2

>  <r_i_docking_score>  (225) 
-2.25097

>  <r_i_glide_ligand_efficiency>  (225) 
-0.0937906

>  <r_i_glide_ligand_efficiency_sa>  (225) 
-0.270539

>  <r_i_glide_ligand_efficiency_ln>  (225) 
-0.538761

>  <r_i_glide_gscore>  (225) 
-2.25097

>  <r_i_glide_lipo>  (225) 
-0.599685

>  <r_i_glide_hbond>  (225) 
0

>  <r_i_glide_metal>  (225) 
-0

>  <r_i_glide_rewards>  (225) 
-1.2036

>  <r_i_glide_evdw>  (225) 
-18.1048

>  <r_i_glide_ecoul>  (225) 
0.675971

>  <r_i_glide_erotb>  (225) 
0.357713

>  <r_i_glide_esite>  (225) 
-0.00155614

>  <r_i_glide_emodel>  (225) 
-20.2474

>  <r_i_glide_energy>  (225) 
-17.4288

>  <r_i_glide_einternal>  (225) 
0.0603894

>  <r_i_glide_intrahb_reward>  (225) 
-0

>  <i_i_glide_confnum>  (225) 
5

>  <i_i_glide_posenum>  (225) 
11

>  <r_i_glide_eff_state_penalty>  (225) 
0

>  <ligand_id>  (225) 
62

>  <original_smiles>  (225) 
CC1CCCN1C(=O)C12C3CC4CC3C3CC5C6CC1C3C6C2C45

>  <smiles>  (225) 
[H]C([H])([H])C1([H])N(C(=O)C23C4([H])C([H])([H])C5([H])C([H])([H])C4([H])C4([H])C([H])([H])C6([H])C7([H])C([H])([H])C2([H])C4([H])C7([H])C3([H])C56[H])C([H])([H])C([H])([H])C1([H])[H]

$$$$
63:0:0
     RDKit          3D

 91 96  0  0  1  0  0  0  0  0999 V2000
   -2.3597    2.4694    9.9784 C   0  0  0  0  0  0  0  0  0  0  0  0
   -1.6931    3.6212    9.2522 C   0  0  2  0  0  0  0  0  0  0  0  0
   -2.6026    4.1222    8.0973 C   0  0  0  0  0  0  0  0  0  0  0  0
   -2.5719    3.2774    6.7919 C   0  0  0  0  0  0  0  0  0  0  0  0
   -1.1192    3.1242    6.2423 C   0  0  2  0  0  0  0  0  0  0  0  0
   -0.6385    4.5244    5.6591 C   0  0  0  0  0  0  0  0  0  0  0  0
    0.2752    5.1155    6.2292 O   0  0  0  0  0  0  0  0  0  0  0  0
   -1.2325    4.9268    4.5790 O   0  0  0  0  0  0  0  0  0  0  0  0
   -0.9102    2.0165    5.1707 C   0  0  0  0  0  0  0  0  0  0  0  0
    0.5940    1.7206    5.3362 C   0  0  2  0  0  0  0  0  0  0  0  0
    1.3605    0.6349    4.5341 C   0  0  1  0  0  0  0  0  0  0  0  0
    1.0044    0.5975    3.0462 C   0  0  0  0  0  0  0  0  0  0  0  0
    1.8495   -0.4130    2.3099 C   0  0  0  0  0  0  0  0  0  0  0  0
    2.9850   -0.9933    2.7694 C   0  0  0  0  0  0  0  0  0  0  0  0
    3.5854   -2.2713    2.0690 C   0  0  2  0  0  0  0  0  0  0  0  0
    4.9795   -1.9299    1.4892 C   0  0  0  0  0  0  0  0  0  0  0  0
    2.7025   -2.7610    0.8786 C   0  0  0  0  0  0  0  0  0  0  0  0
    2.9440   -4.1870    0.3135 C   0  0  1  0  0  0  0  0  0  0  0  0
    4.0350   -4.2523   -0.5770 O   0  0  0  0  0  0  0  0  0  0  0  0
    3.0186   -5.2428    1.4435 C   0  0  1  0  0  0  0  0  0  0  0  0
    3.2838   -6.5158    0.8834 O   0  0  0  0  0  0  0  0  0  0  0  0
    3.9600   -4.8790    2.6280 C   0  0  0  0  0  0  0  0  0  0  0  0
    3.6956   -5.9157    3.7474 C   0  0  0  0  0  0  0  0  0  0  0  0
    5.4503   -4.9972    2.2328 C   0  0  0  0  0  0  0  0  0  0  0  0
    3.5536   -3.4456    3.1404 C   0  0  1  0  0  0  0  0  0  0  0  0
    4.1619   -3.0328    4.5002 C   0  0  0  0  0  0  0  0  0  0  0  0
    3.5735   -1.7326    5.0696 C   0  0  0  0  0  0  0  0  0  0  0  0
    3.6415   -0.5120    4.1189 C   0  0  1  0  0  0  0  0  0  0  0  0
    5.1563   -0.1614    3.9587 C   0  0  0  0  0  0  0  0  0  0  0  0
    2.9075    0.7933    4.7102 C   0  0  1  0  0  0  0  0  0  0  0  0
    3.3752    2.0547    3.9099 C   0  0  0  0  0  0  0  0  0  0  0  0
    3.2809    1.1126    6.2250 C   0  0  0  0  0  0  0  0  0  0  0  0
    2.3234    2.0604    7.0061 C   0  0  0  0  0  0  0  0  0  0  0  0
    0.8617    1.6296    6.8576 C   0  0  2  0  0  0  0  0  0  0  0  0
    0.6810    0.1788    7.4344 C   0  0  0  0  0  0  0  0  0  0  0  0
   -0.2749    2.5400    7.4115 C   0  0  1  0  0  0  0  0  0  0  0  0
   -0.2373    3.2738    8.7964 C   0  0  1  0  0  0  0  0  0  0  0  0
    0.6468    4.5223    8.9450 C   0  0  0  0  0  0  0  0  0  0  0  0
   -2.5130    1.6762    9.2627 H   0  0  0  0  0  0  0  0  0  0  0  0
   -3.3286    2.7298   10.4015 H   0  0  0  0  0  0  0  0  0  0  0  0
   -1.7382    2.0982   10.8003 H   0  0  0  0  0  0  0  0  0  0  0  0
   -1.6471    4.4126    9.9911 H   0  0  0  0  0  0  0  0  0  0  0  0
   -3.6180    4.1802    8.4701 H   0  0  0  0  0  0  0  0  0  0  0  0
   -2.2947    5.1403    7.8846 H   0  0  0  0  0  0  0  0  0  0  0  0
   -3.0036    2.2946    6.9841 H   0  0  0  0  0  0  0  0  0  0  0  0
   -3.2108    3.7233    6.0321 H   0  0  0  0  0  0  0  0  0  0  0  0
   -1.5172    1.1410    5.3665 H   0  0  0  0  0  0  0  0  0  0  0  0
   -1.1431    2.3594    4.1649 H   0  0  0  0  0  0  0  0  0  0  0  0
    1.0342    2.6543    4.9966 H   0  0  0  0  0  0  0  0  0  0  0  0
    1.0624   -0.3436    4.9227 H   0  0  0  0  0  0  0  0  0  0  0  0
   -0.0341    0.2922    2.9532 H   0  0  0  0  0  0  0  0  0  0  0  0
    1.0840    1.5711    2.5662 H   0  0  0  0  0  0  0  0  0  0  0  0
    1.3896   -0.7064    1.3773 H   0  0  0  0  0  0  0  0  0  0  0  0
    5.1746   -2.4287    0.5504 H   0  0  0  0  0  0  0  0  0  0  0  0
    5.7940   -2.1964    2.1504 H   0  0  0  0  0  0  0  0  0  0  0  0
    5.0428   -0.8708    1.2504 H   0  0  0  0  0  0  0  0  0  0  0  0
    1.6941   -2.7917    1.2569 H   0  0  0  0  0  0  0  0  0  0  0  0
    2.7065   -2.0502    0.0591 H   0  0  0  0  0  0  0  0  0  0  0  0
    2.0828   -4.4444   -0.3016 H   0  0  0  0  0  0  0  0  0  0  0  0
    3.8330   -4.9136   -1.2395 H   0  0  0  0  0  0  0  0  0  0  0  0
    2.0182   -5.3247    1.8511 H   0  0  0  0  0  0  0  0  0  0  0  0
    4.1190   -6.4665    0.4151 H   0  0  0  0  0  0  0  0  0  0  0  0
    4.4138   -5.8220    4.5741 H   0  0  0  0  0  0  0  0  0  0  0  0
    3.7933   -6.9408    3.3898 H   0  0  0  0  0  0  0  0  0  0  0  0
    2.7006   -5.8154    4.1654 H   0  0  0  0  0  0  0  0  0  0  0  0
    6.1043   -4.6220    3.0275 H   0  0  0  0  0  0  0  0  0  0  0  0
    5.6916   -4.4596    1.3377 H   0  0  0  0  0  0  0  0  0  0  0  0
    5.7340   -6.0385    2.0581 H   0  0  0  0  0  0  0  0  0  0  0  0
    2.4942   -3.5488    3.3794 H   0  0  0  0  0  0  0  0  0  0  0  0
    3.9385   -3.8000    5.2436 H   0  0  0  0  0  0  0  0  0  0  0  0
    5.2398   -2.9931    4.4418 H   0  0  0  0  0  0  0  0  0  0  0  0
    2.5395   -1.9167    5.3519 H   0  0  0  0  0  0  0  0  0  0  0  0
    4.1144   -1.5374    5.9954 H   0  0  0  0  0  0  0  0  0  0  0  0
    5.5431    0.3711    4.8267 H   0  0  0  0  0  0  0  0  0  0  0  0
    5.3501    0.4485    3.0876 H   0  0  0  0  0  0  0  0  0  0  0  0
    5.7850   -1.0314    3.8804 H   0  0  0  0  0  0  0  0  0  0  0  0
    4.4164    2.3023    4.1420 H   0  0  0  0  0  0  0  0  0  0  0  0
    2.8402    2.9698    4.1259 H   0  0  0  0  0  0  0  0  0  0  0  0
    3.3370    1.9090    2.8433 H   0  0  0  0  0  0  0  0  0  0  0  0
    3.3703    0.1983    6.8094 H   0  0  0  0  0  0  0  0  0  0  0  0
    4.2610    1.5510    6.2648 H   0  0  0  0  0  0  0  0  0  0  0  0
    2.6017    2.0709    8.0607 H   0  0  0  0  0  0  0  0  0  0  0  0
    2.4396    3.0899    6.6567 H   0  0  0  0  0  0  0  0  0  0  0  0
    0.7568    0.1828    8.5244 H   0  0  0  0  0  0  0  0  0  0  0  0
    1.4076   -0.5415    7.0884 H   0  0  0  0  0  0  0  0  0  0  0  0
   -0.2858   -0.2554    7.1752 H   0  0  0  0  0  0  0  0  0  0  0  0
   -0.9530    1.7660    7.7139 H   0  0  0  0  0  0  0  0  0  0  0  0
    0.1584    2.5506    9.5144 H   0  0  0  0  0  0  0  0  0  0  0  0
    0.1848    5.3878    8.4527 H   0  0  0  0  0  0  0  0  0  0  0  0
    1.6253    4.3739    8.4793 H   0  0  0  0  0  0  0  0  0  0  0  0
    0.8334    4.7308   10.0097 H   0  0  0  0  0  0  0  0  0  0  0  0
  1  2  1  0
  1 39  1  0
  1 40  1  0
  1 41  1  0
  2 37  1  0
  2  3  1  0
  2 42  1  1
  3  4  1  0
  3 43  1  0
  3 44  1  0
  4  5  1  0
  4 45  1  0
  4 46  1  0
  5 36  1  0
  5  6  1  6
  5  9  1  0
  6  7  2  0
  6  8  1  0
  9 10  1  0
  9 47  1  0
  9 48  1  0
 10 34  1  0
 10 11  1  0
 10 49  1  6
 11 30  1  0
 11 12  1  0
 11 50  1  1
 12 13  1  0
 12 51  1  0
 12 52  1  0
 13 14  2  0
 13 53  1  0
 14 28  1  0
 14 15  1  0
 15 25  1  0
 15 16  1  6
 15 17  1  0
 16 54  1  0
 16 55  1  0
 16 56  1  0
 17 18  1  0
 17 57  1  0
 17 58  1  0
 18 19  1  0
 18 20  1  0
 18 59  1  6
 19 60  1  0
 20 21  1  0
 20 22  1  0
 20 61  1  1
 21 62  1  0
 22 23  1  0
 22 24  1  0
 22 25  1  0
 23 63  1  0
 23 64  1  0
 23 65  1  0
 24 66  1  0
 24 67  1  0
 24 68  1  0
 25 26  1  0
 25 69  1  1
 26 27  1  0
 26 70  1  0
 26 71  1  0
 27 28  1  0
 27 72  1  0
 27 73  1  0
 28 29  1  6
 28 30  1  0
 29 74  1  0
 29 75  1  0
 29 76  1  0
 30 31  1  6
 30 32  1  0
 31 77  1  0
 31 78  1  0
 31 79  1  0
 32 33  1  0
 32 80  1  0
 32 81  1  0
 33 34  1  0
 33 82  1  0
 33 83  1  0
 34 35  1  1
 34 36  1  0
 35 84  1  0
 35 85  1  0
 35 86  1  0
 36 37  1  0
 36 87  1  1
 37 38  1  0
 37 88  1  1
 38 89  1  0
 38 90  1  0
 38 91  1  0
M  CHG  1   8  -1
M  END
>  <i_m_ct_stereo_status>  (226) 
1

>  <s_m_source_file>  (226) 
/var/tmp/pbs.5076255.sched01/tmp1t990xkq/82z3oanzij.sdf

>  <i_m_source_file_index>  (226) 
13

>  <i_lp_mmshare_version>  (226) 
48012

>  <i_f3d_flags>  (226) 
0

>  <s_epik_input>  (226) 
W0NIMl0xW0NIMl1bQ0BASF0oW0NIM10pW0NASF0oW0NIM10pW0NAQEhdKFtDQF0xMkMoPU8pW09IXSlbQ0BAXTMoW0NIM10pW0NASF0oW0NIMl0yKVtDQEBIXTRbQ0BAXShbQ0gzXSkoW0NIMl1bQ0gyXTMpW0NAXTUoW0NIM10pQyg9W0NIXVtDSDJdNClbQ0BAXTYoW0NIM10pW0NASF0oW0NIMl1bQ0gyXTUpQyhbQ0gzXSkoW0NIM10pW0NASF0oW09IXSlbQ0BASF0oW0NIMl02KVtPSF0=

>  <s_epik_cmdline>  (226) 
J2VwaWtfcHl0aG9uJywgJy1waHQnLCAnMi4wJywgJy1waCcsICc3LjAnLCAnLXRuJywgJzgnLCAnLW1hJywgJzIwMCcsICctaW1hZScsICc8aW5maWxlLm1hZT4nLCAnLW9tYWUnLCAnPG91dGZpbGUubWFlPic=

>  <r_epik_Ionization_Penalty>  (226) 
0.0100025

>  <r_epik_Ionization_Penalty_Charging>  (226) 
0.010001

>  <r_epik_Ionization_Penalty_Neutral>  (226) 
1.52261e-06

>  <r_epik_State_Penalty>  (226) 
0.00762525

>  <r_epik_Charging_Adjusted_Penalty>  (226) 
0.0176263

>  <i_epik_Tot_Q>  (226) 
-1

>  <i_epik_Tot_abs_Q>  (226) 
1

>  <s_lp_Force_Field>  (226) 
OPLS3e

>  <r_lp_Energy>  (226) 
123.504

>  <b_lp_Chiralities_Consistent>  (226) 
1

>  <s_lp_Variant>  (226) 
63:0-1

>  <s_i_glide_gridfile>  (226) 
pfpi4k_grid

>  <i_i_glide_lignum>  (226) 
13

>  <i_i_glide_rotatable_bonds>  (226) 
3

>  <r_i_docking_score>  (226) 
-2.55569

>  <r_i_glide_ligand_efficiency>  (226) 
-0.0672551

>  <r_i_glide_ligand_efficiency_sa>  (226) 
-0.22611

>  <r_i_glide_ligand_efficiency_ln>  (226) 
-0.551082

>  <r_i_glide_gscore>  (226) 
-2.55569

>  <r_i_glide_lipo>  (226) 
-0.38635

>  <r_i_glide_hbond>  (226) 
-0.0981417

>  <r_i_glide_metal>  (226) 
-0

>  <r_i_glide_rewards>  (226) 
0

>  <r_i_glide_evdw>  (226) 
-25.1398

>  <r_i_glide_ecoul>  (226) 
-5.26113

>  <r_i_glide_erotb>  (226) 
0

>  <r_i_glide_esite>  (226) 
-0.025044

>  <r_i_glide_emodel>  (226) 
-34.3626

>  <r_i_glide_energy>  (226) 
-30.4009

>  <r_i_glide_einternal>  (226) 
3.09638

>  <r_i_glide_intrahb_reward>  (226) 
-0

>  <i_i_glide_confnum>  (226) 
2

>  <i_i_glide_posenum>  (226) 
8

>  <r_i_glide_eff_state_penalty>  (226) 
0

>  <ligand_id>  (226) 
63

>  <original_smiles>  (226) 
CC1CCC2(C(=O)O)CC3C4CC=C5C6(C)CC(O)C(O)C(C)(C)C6CCC5(C)C4(C)CCC3(C)C2C1C

>  <smiles>  (226) 
[H]OC1([H])C([H])([H])C2(C([H])([H])[H])C3=C([H])C([H])([H])C4([H])C5([H])C([H])([H])C6(C(=O)[O-])C([H])([H])C([H])([H])C([H])(C([H])([H])[H])C([H])(C([H])([H])[H])C6([H])C5(C([H])([H])[H])C([H])([H])C([H])([H])C4(C([H])([H])[H])C3(C([H])([H])[H])C([H])([H])C([H])([H])C2([H])C(C([H])([H])[H])(C([H])([H])[H])C1([H])O[H]

$$$$
63:0:1
     RDKit          3D

 91 96  0  0  1  0  0  0  0  0999 V2000
   -2.1844    3.4895    4.0764 C   0  0  0  0  0  0  0  0  0  0  0  0
   -0.9086    3.6753    4.9233 C   0  0  2  0  0  0  0  0  0  0  0  0
    0.3023    4.0566    4.0176 C   0  0  0  0  0  0  0  0  0  0  0  0
    0.9775    2.8563    3.2964 C   0  0  0  0  0  0  0  0  0  0  0  0
    1.4108    1.7376    4.2803 C   0  0  2  0  0  0  0  0  0  0  0  0
    2.6559    2.2378    5.1072 C   0  0  0  0  0  0  0  0  0  0  0  0
    2.5446    3.1924    5.8750 O   0  0  0  0  0  0  0  0  0  0  0  0
    3.7519    1.6402    4.9395 O   0  0  0  0  0  0  0  0  0  0  0  0
    1.7242    0.3474    3.6401 C   0  0  0  0  0  0  0  0  0  0  0  0
    1.4793   -0.6078    4.8301 C   0  0  2  0  0  0  0  0  0  0  0  0
    1.6227   -2.1480    4.7619 C   0  0  1  0  0  0  0  0  0  0  0  0
    2.8511   -2.6154    3.9786 C   0  0  0  0  0  0  0  0  0  0  0  0
    2.9717   -4.1229    4.0149 C   0  0  0  0  0  0  0  0  0  0  0  0
    2.3158   -4.9580    4.8627 C   0  0  0  0  0  0  0  0  0  0  0  0
    2.2495   -6.5021    4.5733 C   0  0  2  0  0  0  0  0  0  0  0  0
    2.9767   -7.2510    5.7240 C   0  0  0  0  0  0  0  0  0  0  0  0
    2.9716   -6.8923    3.2313 C   0  0  0  0  0  0  0  0  0  0  0  0
    2.7055   -8.2994    2.6483 C   0  0  1  0  0  0  0  0  0  0  0  0
    3.4714   -9.3111    3.2726 O   0  0  0  0  0  0  0  0  0  0  0  0
    1.2014   -8.6295    2.6018 C   0  0  1  0  0  0  0  0  0  0  0  0
    1.0329   -9.9341    2.0805 O   0  0  0  0  0  0  0  0  0  0  0  0
    0.4154   -8.3570    3.9226 C   0  0  0  0  0  0  0  0  0  0  0  0
   -1.0956   -8.4867    3.5922 C   0  0  0  0  0  0  0  0  0  0  0  0
    0.7353   -9.4109    5.0147 C   0  0  0  0  0  0  0  0  0  0  0  0
    0.7319   -6.8761    4.3704 C   0  0  1  0  0  0  0  0  0  0  0  0
   -0.1860   -6.3237    5.4834 C   0  0  0  0  0  0  0  0  0  0  0  0
   -0.0013   -4.8165    5.7467 C   0  0  0  0  0  0  0  0  0  0  0  0
    1.4558   -4.3833    6.0504 C   0  0  1  0  0  0  0  0  0  0  0  0
    1.8207   -5.0108    7.4317 C   0  0  0  0  0  0  0  0  0  0  0  0
    1.6243   -2.7867    6.1988 C   0  0  1  0  0  0  0  0  0  0  0  0
    2.9899   -2.4784    6.9113 C   0  0  0  0  0  0  0  0  0  0  0  0
    0.5171   -2.1029    7.1053 C   0  0  0  0  0  0  0  0  0  0  0  0
    0.3130   -0.5613    6.9570 C   0  0  0  0  0  0  0  0  0  0  0  0
    0.1568   -0.1611    5.4796 C   0  0  2  0  0  0  0  0  0  0  0  0
   -1.1100   -0.8618    4.8775 C   0  0  0  0  0  0  0  0  0  0  0  0
    0.1352    1.3581    5.0957 C   0  0  1  0  0  0  0  0  0  0  0  0
   -0.6415    2.4640    5.8776 C   0  0  1  0  0  0  0  0  0  0  0  0
   -0.0855    2.9346    7.2409 C   0  0  0  0  0  0  0  0  0  0  0  0
   -2.0922    2.6772    3.3532 H   0  0  0  0  0  0  0  0  0  0  0  0
   -2.4220    4.3956    3.5137 H   0  0  0  0  0  0  0  0  0  0  0  0
   -3.0416    3.2705    4.7142 H   0  0  0  0  0  0  0  0  0  0  0  0
   -1.1153    4.5439    5.5470 H   0  0  0  0  0  0  0  0  0  0  0  0
   -0.0037    4.7920    3.2739 H   0  0  0  0  0  0  0  0  0  0  0  0
    1.0360    4.5925    4.6170 H   0  0  0  0  0  0  0  0  0  0  0  0
    0.2739    2.4626    2.5637 H   0  0  0  0  0  0  0  0  0  0  0  0
    1.8246    3.2016    2.7085 H   0  0  0  0  0  0  0  0  0  0  0  0
    1.0680    0.1278    2.8008 H   0  0  0  0  0  0  0  0  0  0  0  0
    2.7385    0.2660    3.2512 H   0  0  0  0  0  0  0  0  0  0  0  0
    2.2740   -0.3167    5.5084 H   0  0  0  0  0  0  0  0  0  0  0  0
    0.7727   -2.5275    4.1996 H   0  0  0  0  0  0  0  0  0  0  0  0
    2.7292   -2.3203    2.9367 H   0  0  0  0  0  0  0  0  0  0  0  0
    3.7750   -2.1538    4.3258 H   0  0  0  0  0  0  0  0  0  0  0  0
    3.5819   -4.4936    3.2075 H   0  0  0  0  0  0  0  0  0  0  0  0
    3.5192   -8.1307    5.3935 H   0  0  0  0  0  0  0  0  0  0  0  0
    2.3005   -7.6008    6.5012 H   0  0  0  0  0  0  0  0  0  0  0  0
    3.7399   -6.6245    6.1856 H   0  0  0  0  0  0  0  0  0  0  0  0
    2.6182   -6.2233    2.4464 H   0  0  0  0  0  0  0  0  0  0  0  0
    4.0493   -6.7380    3.3119 H   0  0  0  0  0  0  0  0  0  0  0  0
    3.0628   -8.3047    1.6173 H   0  0  0  0  0  0  0  0  0  0  0  0
    3.2868  -10.1278    2.8263 H   0  0  0  0  0  0  0  0  0  0  0  0
    0.7716   -7.9726    1.8463 H   0  0  0  0  0  0  0  0  0  0  0  0
    0.6372   -9.8783    1.2206 H   0  0  0  0  0  0  0  0  0  0  0  0
   -1.7177   -8.4560    4.4874 H   0  0  0  0  0  0  0  0  0  0  0  0
   -1.3244   -9.4399    3.1139 H   0  0  0  0  0  0  0  0  0  0  0  0
   -1.4327   -7.6975    2.9190 H   0  0  0  0  0  0  0  0  0  0  0  0
    0.2918   -9.1570    5.9782 H   0  0  0  0  0  0  0  0  0  0  0  0
    1.7993   -9.5446    5.1741 H   0  0  0  0  0  0  0  0  0  0  0  0
    0.3522  -10.3952    4.7376 H   0  0  0  0  0  0  0  0  0  0  0  0
    0.4352   -6.2788    3.5058 H   0  0  0  0  0  0  0  0  0  0  0  0
   -1.2293   -6.4400    5.1961 H   0  0  0  0  0  0  0  0  0  0  0  0
   -0.0795   -6.9030    6.3982 H   0  0  0  0  0  0  0  0  0  0  0  0
   -0.3636   -4.2726    4.8773 H   0  0  0  0  0  0  0  0  0  0  0  0
   -0.6724   -4.5699    6.5689 H   0  0  0  0  0  0  0  0  0  0  0  0
    1.3801   -4.4558    8.2596 H   0  0  0  0  0  0  0  0  0  0  0  0
    2.8966   -5.0460    7.5992 H   0  0  0  0  0  0  0  0  0  0  0  0
    1.4502   -6.0188    7.5724 H   0  0  0  0  0  0  0  0  0  0  0  0
    2.9817   -2.7519    7.9673 H   0  0  0  0  0  0  0  0  0  0  0  0
    3.2681   -1.4273    6.9140 H   0  0  0  0  0  0  0  0  0  0  0  0
    3.8265   -3.0192    6.4692 H   0  0  0  0  0  0  0  0  0  0  0  0
   -0.4568   -2.5561    6.9532 H   0  0  0  0  0  0  0  0  0  0  0  0
    0.7312   -2.2960    8.1525 H   0  0  0  0  0  0  0  0  0  0  0  0
   -0.5653   -0.2438    7.5187 H   0  0  0  0  0  0  0  0  0  0  0  0
    1.1548   -0.0276    7.3972 H   0  0  0  0  0  0  0  0  0  0  0  0
   -2.0338   -0.4331    5.2707 H   0  0  0  0  0  0  0  0  0  0  0  0
   -1.1683   -1.9326    5.0616 H   0  0  0  0  0  0  0  0  0  0  0  0
   -1.1456   -0.7617    3.7915 H   0  0  0  0  0  0  0  0  0  0  0  0
   -0.5600    1.2892    4.2652 H   0  0  0  0  0  0  0  0  0  0  0  0
   -1.6184    2.0293    6.1089 H   0  0  0  0  0  0  0  0  0  0  0  0
    0.7406    3.6369    7.1373 H   0  0  0  0  0  0  0  0  0  0  0  0
    0.2485    2.0968    7.8467 H   0  0  0  0  0  0  0  0  0  0  0  0
   -0.8833    3.4291    7.8050 H   0  0  0  0  0  0  0  0  0  0  0  0
  1  2  1  0
  1 39  1  0
  1 40  1  0
  1 41  1  0
  2 37  1  0
  2  3  1  0
  2 42  1  1
  3  4  1  0
  3 43  1  0
  3 44  1  0
  4  5  1  0
  4 45  1  0
  4 46  1  0
  5 36  1  0
  5  6  1  1
  5  9  1  0
  6  7  2  0
  6  8  1  0
  9 10  1  0
  9 47  1  0
  9 48  1  0
 10 34  1  0
 10 11  1  0
 10 49  1  1
 11 30  1  0
 11 12  1  0
 11 50  1  6
 12 13  1  0
 12 51  1  0
 12 52  1  0
 13 14  2  0
 13 53  1  0
 14 28  1  0
 14 15  1  0
 15 25  1  0
 15 16  1  1
 15 17  1  0
 16 54  1  0
 16 55  1  0
 16 56  1  0
 17 18  1  0
 17 57  1  0
 17 58  1  0
 18 19  1  0
 18 20  1  0
 18 59  1  6
 19 60  1  0
 20 21  1  0
 20 22  1  0
 20 61  1  6
 21 62  1  0
 22 23  1  0
 22 24  1  0
 22 25  1  0
 23 63  1  0
 23 64  1  0
 23 65  1  0
 24 66  1  0
 24 67  1  0
 24 68  1  0
 25 26  1  0
 25 69  1  6
 26 27  1  0
 26 70  1  0
 26 71  1  0
 27 28  1  0
 27 72  1  0
 27 73  1  0
 28 29  1  1
 28 30  1  0
 29 74  1  0
 29 75  1  0
 29 76  1  0
 30 31  1  1
 30 32  1  0
 31 77  1  0
 31 78  1  0
 31 79  1  0
 32 33  1  0
 32 80  1  0
 32 81  1  0
 33 34  1  0
 33 82  1  0
 33 83  1  0
 34 35  1  6
 34 36  1  0
 35 84  1  0
 35 85  1  0
 35 86  1  0
 36 37  1  0
 36 87  1  6
 37 38  1  0
 37 88  1  1
 38 89  1  0
 38 90  1  0
 38 91  1  0
M  CHG  1   8  -1
M  END
>  <i_m_ct_stereo_status>  (227) 
1

>  <s_m_source_file>  (227) 
/var/tmp/pbs.5076255.sched01/tmp1t990xkq/82z3oanzij.sdf

>  <i_m_source_file_index>  (227) 
13

>  <i_lp_mmshare_version>  (227) 
48012

>  <i_f3d_flags>  (227) 
0

>  <s_epik_input>  (227) 
W0NIMl0xW0NIMl1bQ0BASF0oW0NIM10pW0NASF0oW0NIM10pW0NAQEhdKFtDQF0xMkMoPU8pW09IXSlbQ0BAXTMoW0NIM10pW0NASF0oW0NIMl0yKVtDQEBIXTRbQ0BAXShbQ0gzXSkoW0NIMl1bQ0gyXTMpW0NAXTUoW0NIM10pQyg9W0NIXVtDSDJdNClbQ0BAXTYoW0NIM10pW0NASF0oW0NIMl1bQ0gyXTUpQyhbQ0gzXSkoW0NIM10pW0NASF0oW09IXSlbQ0BASF0oW0NIMl02KVtPSF0=

>  <s_epik_cmdline>  (227) 
J2VwaWtfcHl0aG9uJywgJy1waHQnLCAnMi4wJywgJy1waCcsICc3LjAnLCAnLXRuJywgJzgnLCAnLW1hJywgJzIwMCcsICctaW1hZScsICc8aW5maWxlLm1hZT4nLCAnLW9tYWUnLCAnPG91dGZpbGUubWFlPic=

>  <r_epik_Ionization_Penalty>  (227) 
0.0100025

>  <r_epik_Ionization_Penalty_Charging>  (227) 
0.010001

>  <r_epik_Ionization_Penalty_Neutral>  (227) 
1.52261e-06

>  <r_epik_State_Penalty>  (227) 
0.00762525

>  <r_epik_Charging_Adjusted_Penalty>  (227) 
0.0176263

>  <i_epik_Tot_Q>  (227) 
-1

>  <i_epik_Tot_abs_Q>  (227) 
1

>  <s_lp_Force_Field>  (227) 
OPLS3e

>  <r_lp_Energy>  (227) 
123.504

>  <b_lp_Chiralities_Consistent>  (227) 
1

>  <s_lp_Variant>  (227) 
63:0-1

>  <s_i_glide_gridfile>  (227) 
pfpi4k_grid

>  <i_i_glide_lignum>  (227) 
13

>  <i_i_glide_rotatable_bonds>  (227) 
3

>  <r_i_docking_score>  (227) 
-1.96514

>  <r_i_glide_ligand_efficiency>  (227) 
-0.0517143

>  <r_i_glide_ligand_efficiency_sa>  (227) 
-0.173862

>  <r_i_glide_ligand_efficiency_ln>  (227) 
-0.423743

>  <r_i_glide_gscore>  (227) 
-1.96514

>  <r_i_glide_lipo>  (227) 
-0.000165822

>  <r_i_glide_hbond>  (227) 
0

>  <r_i_glide_metal>  (227) 
-0

>  <r_i_glide_rewards>  (227) 
0

>  <r_i_glide_evdw>  (227) 
-29.6998

>  <r_i_glide_ecoul>  (227) 
-3.18927

>  <r_i_glide_erotb>  (227) 
0

>  <r_i_glide_esite>  (227) 
-0.0015981

>  <r_i_glide_emodel>  (227) 
-35.7637

>  <r_i_glide_energy>  (227) 
-32.889

>  <r_i_glide_einternal>  (227) 
4.13589

>  <r_i_glide_intrahb_reward>  (227) 
-0

>  <i_i_glide_confnum>  (227) 
1

>  <i_i_glide_posenum>  (227) 
28

>  <r_i_glide_eff_state_penalty>  (227) 
0

>  <ligand_id>  (227) 
63

>  <original_smiles>  (227) 
CC1CCC2(C(=O)O)CC3C4CC=C5C6(C)CC(O)C(O)C(C)(C)C6CCC5(C)C4(C)CCC3(C)C2C1C

>  <smiles>  (227) 
[H]OC1([H])C([H])([H])C2(C([H])([H])[H])C3=C([H])C([H])([H])C4([H])C5([H])C([H])([H])C6(C(=O)[O-])C([H])([H])C([H])([H])C([H])(C([H])([H])[H])C([H])(C([H])([H])[H])C6([H])C5(C([H])([H])[H])C([H])([H])C([H])([H])C4(C([H])([H])[H])C3(C([H])([H])[H])C([H])([H])C([H])([H])C2([H])C(C([H])([H])[H])(C([H])([H])[H])C1([H])O[H]

$$$$
63:0:2
     RDKit          3D

 91 96  0  0  1  0  0  0  0  0999 V2000
   -1.9145    3.7147    3.7167 C   0  0  0  0  0  0  0  0  0  0  0  0
   -0.7844    3.8863    4.7497 C   0  0  2  0  0  0  0  0  0  0  0  0
    0.5450    4.3190    4.0697 C   0  0  0  0  0  0  0  0  0  0  0  0
    1.3260    3.1675    3.3869 C   0  0  0  0  0  0  0  0  0  0  0  0
    1.6162    2.0176    4.3900 C   0  0  2  0  0  0  0  0  0  0  0  0
    2.6682    2.4994    5.4400 C   0  0  0  0  0  0  0  0  0  0  0  0
    2.5540    2.1219    6.6255 O   0  0  0  0  0  0  0  0  0  0  0  0
    3.6121    3.2071    5.0278 O   0  0  0  0  0  0  0  0  0  0  0  0
    2.1027    0.6698    3.7756 C   0  0  0  0  0  0  0  0  0  0  0  0
    1.6953   -0.3530    4.8579 C   0  0  2  0  0  0  0  0  0  0  0  0
    1.8801   -1.8822    4.7457 C   0  0  1  0  0  0  0  0  0  0  0  0
    3.2238   -2.2940    4.1413 C   0  0  0  0  0  0  0  0  0  0  0  0
    3.3686   -3.8013    4.1340 C   0  0  0  0  0  0  0  0  0  0  0  0
    2.6137   -4.6806    4.8379 C   0  0  0  0  0  0  0  0  0  0  0  0
    2.6227   -6.2125    4.4812 C   0  0  2  0  0  0  0  0  0  0  0  0
    3.1854   -6.9989    5.6966 C   0  0  0  0  0  0  0  0  0  0  0  0
    3.5483   -6.5297    3.2502 C   0  0  0  0  0  0  0  0  0  0  0  0
    3.3978   -7.9158    2.5776 C   0  0  1  0  0  0  0  0  0  0  0  0
    4.0773   -8.9433    3.2678 O   0  0  0  0  0  0  0  0  0  0  0  0
    1.9259   -8.2593    2.2891 C   0  0  1  0  0  0  0  0  0  0  0  0
    1.8655   -9.5459    1.7109 O   0  0  0  0  0  0  0  0  0  0  0  0
    0.9496   -8.0652    3.4849 C   0  0  0  0  0  0  0  0  0  0  0  0
   -0.4924   -8.2129    2.9274 C   0  0  0  0  0  0  0  0  0  0  0  0
    1.1222   -9.1631    4.5681 C   0  0  0  0  0  0  0  0  0  0  0  0
    1.1627   -6.6030    4.0351 C   0  0  1  0  0  0  0  0  0  0  0  0
    0.0773   -6.1191    5.0227 C   0  0  0  0  0  0  0  0  0  0  0  0
    0.1901   -4.6186    5.3656 C   0  0  0  0  0  0  0  0  0  0  0  0
    1.5732   -4.1722    5.9036 C   0  0  1  0  0  0  0  0  0  0  0  0
    1.7392   -4.8497    7.2986 C   0  0  0  0  0  0  0  0  0  0  0  0
    1.6775   -2.5811    6.1374 C   0  0  1  0  0  0  0  0  0  0  0  0
    2.9090   -2.2814    7.0626 C   0  0  0  0  0  0  0  0  0  0  0  0
    0.4300   -1.9592    6.8940 C   0  0  0  0  0  0  0  0  0  0  0  0
    0.2150   -0.4174    6.7812 C   0  0  0  0  0  0  0  0  0  0  0  0
    0.2758    0.0423    5.3148 C   0  0  2  0  0  0  0  0  0  0  0  0
   -0.8661   -0.6437    4.4981 C   0  0  0  0  0  0  0  0  0  0  0  0
    0.2492    1.5710    4.9674 C   0  0  1  0  0  0  0  0  0  0  0  0
   -0.6374    2.6349    5.6780 C   0  0  1  0  0  0  0  0  0  0  0  0
   -0.2368    3.0566    7.1048 C   0  0  0  0  0  0  0  0  0  0  0  0
   -1.6923    2.9372    2.9847 H   0  0  0  0  0  0  0  0  0  0  0  0
   -2.0807    4.6372    3.1604 H   0  0  0  0  0  0  0  0  0  0  0  0
   -2.8526    3.4531    4.2057 H   0  0  0  0  0  0  0  0  0  0  0  0
   -1.1028    4.7218    5.3758 H   0  0  0  0  0  0  0  0  0  0  0  0
    0.3460    5.0934    3.3319 H   0  0  0  0  0  0  0  0  0  0  0  0
    1.1859    4.7939    4.8090 H   0  0  0  0  0  0  0  0  0  0  0  0
    0.7523    2.7974    2.5348 H   0  0  0  0  0  0  0  0  0  0  0  0
    2.2460    3.5524    2.9465 H   0  0  0  0  0  0  0  0  0  0  0  0
    1.5999    0.4639    2.8289 H   0  0  0  0  0  0  0  0  0  0  0  0
    3.1763    0.6728    3.5870 H   0  0  0  0  0  0  0  0  0  0  0  0
    2.3829   -0.0920    5.6516 H   0  0  0  0  0  0  0  0  0  0  0  0
    1.1319   -2.2443    4.0465 H   0  0  0  0  0  0  0  0  0  0  0  0
    3.2535   -1.9562    3.1042 H   0  0  0  0  0  0  0  0  0  0  0  0
    4.0710   -1.8384    4.6542 H   0  0  0  0  0  0  0  0  0  0  0  0
    4.1011   -4.1245    3.4127 H   0  0  0  0  0  0  0  0  0  0  0  0
    3.7906   -7.8544    5.4172 H   0  0  0  0  0  0  0  0  0  0  0  0
    2.4091   -7.3917    6.3484 H   0  0  0  0  0  0  0  0  0  0  0  0
    3.8572   -6.3794    6.2918 H   0  0  0  0  0  0  0  0  0  0  0  0
    3.3028   -5.8315    2.4496 H   0  0  0  0  0  0  0  0  0  0  0  0
    4.5987   -6.3631    3.5009 H   0  0  0  0  0  0  0  0  0  0  0  0
    3.9118   -7.8681    1.6171 H   0  0  0  0  0  0  0  0  0  0  0  0
    3.9408   -9.7476    2.7779 H   0  0  0  0  0  0  0  0  0  0  0  0
    1.6118   -7.5728    1.5039 H   0  0  0  0  0  0  0  0  0  0  0  0
    1.0600   -9.6249    1.2090 H   0  0  0  0  0  0  0  0  0  0  0  0
   -1.2375   -8.2279    3.7253 H   0  0  0  0  0  0  0  0  0  0  0  0
   -0.6216   -9.1508    2.3843 H   0  0  0  0  0  0  0  0  0  0  0  0
   -0.7388   -7.4013    2.2407 H   0  0  0  0  0  0  0  0  0  0  0  0
    0.5277   -8.9576    5.4600 H   0  0  0  0  0  0  0  0  0  0  0  0
    2.1546   -9.2847    4.8870 H   0  0  0  0  0  0  0  0  0  0  0  0
    0.8077  -10.1400    4.1960 H   0  0  0  0  0  0  0  0  0  0  0  0
    0.9836   -5.9719    3.1631 H   0  0  0  0  0  0  0  0  0  0  0  0
   -0.9100   -6.2403    4.5808 H   0  0  0  0  0  0  0  0  0  0  0  0
    0.0639   -6.7341    5.9204 H   0  0  0  0  0  0  0  0  0  0  0  0
   -0.0609   -4.0411    4.4765 H   0  0  0  0  0  0  0  0  0  0  0  0
   -0.5938   -4.4242    6.0951 H   0  0  0  0  0  0  0  0  0  0  0  0
    1.1635   -4.3358    8.0676 H   0  0  0  0  0  0  0  0  0  0  0  0
    2.7788   -4.8716    7.6292 H   0  0  0  0  0  0  0  0  0  0  0  0
    1.3744   -5.8691    7.3438 H   0  0  0  0  0  0  0  0  0  0  0  0
    2.7464   -2.6008    8.0906 H   0  0  0  0  0  0  0  0  0  0  0  0
    3.1586   -1.2275    7.1531 H   0  0  0  0  0  0  0  0  0  0  0  0
    3.8145   -2.7884    6.7316 H   0  0  0  0  0  0  0  0  0  0  0  0
   -0.5003   -2.4173    6.5819 H   0  0  0  0  0  0  0  0  0  0  0  0
    0.4945   -2.1897    7.9537 H   0  0  0  0  0  0  0  0  0  0  0  0
   -0.7432   -0.1325    7.2146 H   0  0  0  0  0  0  0  0  0  0  0  0
    0.9700    0.1012    7.3712 H   0  0  0  0  0  0  0  0  0  0  0  0
   -1.8436   -0.2393    4.7704 H   0  0  0  0  0  0  0  0  0  0  0  0
   -0.9264   -1.7224    4.6308 H   0  0  0  0  0  0  0  0  0  0  0  0
   -0.7290   -0.4877    3.4253 H   0  0  0  0  0  0  0  0  0  0  0  0
   -0.3156    1.5337    4.0400 H   0  0  0  0  0  0  0  0  0  0  0  0
   -1.6268    2.1879    5.7833 H   0  0  0  0  0  0  0  0  0  0  0  0
    0.6355    3.7085    7.1005 H   0  0  0  0  0  0  0  0  0  0  0  0
   -0.0171    2.1985    7.7349 H   0  0  0  0  0  0  0  0  0  0  0  0
   -1.0474    3.6142    7.5779 H   0  0  0  0  0  0  0  0  0  0  0  0
  1  2  1  0
  1 39  1  0
  1 40  1  0
  1 41  1  0
  2 37  1  0
  2  3  1  0
  2 42  1  1
  3  4  1  0
  3 43  1  0
  3 44  1  0
  4  5  1  0
  4 45  1  0
  4 46  1  0
  5 36  1  0
  5  6  1  1
  5  9  1  0
  6  7  2  0
  6  8  1  0
  9 10  1  0
  9 47  1  0
  9 48  1  0
 10 34  1  0
 10 11  1  0
 10 49  1  1
 11 30  1  0
 11 12  1  0
 11 50  1  6
 12 13  1  0
 12 51  1  0
 12 52  1  0
 13 14  2  0
 13 53  1  0
 14 28  1  0
 14 15  1  0
 15 25  1  0
 15 16  1  1
 15 17  1  0
 16 54  1  0
 16 55  1  0
 16 56  1  0
 17 18  1  0
 17 57  1  0
 17 58  1  0
 18 19  1  0
 18 20  1  0
 18 59  1  6
 19 60  1  0
 20 21  1  0
 20 22  1  0
 20 61  1  6
 21 62  1  0
 22 23  1  0
 22 24  1  0
 22 25  1  0
 23 63  1  0
 23 64  1  0
 23 65  1  0
 24 66  1  0
 24 67  1  0
 24 68  1  0
 25 26  1  0
 25 69  1  6
 26 27  1  0
 26 70  1  0
 26 71  1  0
 27 28  1  0
 27 72  1  0
 27 73  1  0
 28 29  1  1
 28 30  1  0
 29 74  1  0
 29 75  1  0
 29 76  1  0
 30 31  1  1
 30 32  1  0
 31 77  1  0
 31 78  1  0
 31 79  1  0
 32 33  1  0
 32 80  1  0
 32 81  1  0
 33 34  1  0
 33 82  1  0
 33 83  1  0
 34 35  1  6
 34 36  1  0
 35 84  1  0
 35 85  1  0
 35 86  1  0
 36 37  1  0
 36 87  1  6
 37 38  1  0
 37 88  1  1
 38 89  1  0
 38 90  1  0
 38 91  1  0
M  CHG  1   8  -1
M  END
>  <i_m_ct_stereo_status>  (228) 
1

>  <s_m_source_file>  (228) 
/var/tmp/pbs.5076255.sched01/tmp1t990xkq/82z3oanzij.sdf

>  <i_m_source_file_index>  (228) 
13

>  <i_lp_mmshare_version>  (228) 
48012

>  <i_f3d_flags>  (228) 
0

>  <s_epik_input>  (228) 
W0NIMl0xW0NIMl1bQ0BASF0oW0NIM10pW0NASF0oW0NIM10pW0NAQEhdKFtDQF0xMkMoPU8pW09IXSlbQ0BAXTMoW0NIM10pW0NASF0oW0NIMl0yKVtDQEBIXTRbQ0BAXShbQ0gzXSkoW0NIMl1bQ0gyXTMpW0NAXTUoW0NIM10pQyg9W0NIXVtDSDJdNClbQ0BAXTYoW0NIM10pW0NASF0oW0NIMl1bQ0gyXTUpQyhbQ0gzXSkoW0NIM10pW0NASF0oW09IXSlbQ0BASF0oW0NIMl02KVtPSF0=

>  <s_epik_cmdline>  (228) 
J2VwaWtfcHl0aG9uJywgJy1waHQnLCAnMi4wJywgJy1waCcsICc3LjAnLCAnLXRuJywgJzgnLCAnLW1hJywgJzIwMCcsICctaW1hZScsICc8aW5maWxlLm1hZT4nLCAnLW9tYWUnLCAnPG91dGZpbGUubWFlPic=

>  <r_epik_Ionization_Penalty>  (228) 
0.0100025

>  <r_epik_Ionization_Penalty_Charging>  (228) 
0.010001

>  <r_epik_Ionization_Penalty_Neutral>  (228) 
1.52261e-06

>  <r_epik_State_Penalty>  (228) 
0.00762525

>  <r_epik_Charging_Adjusted_Penalty>  (228) 
0.0176263

>  <i_epik_Tot_Q>  (228) 
-1

>  <i_epik_Tot_abs_Q>  (228) 
1

>  <s_lp_Force_Field>  (228) 
OPLS3e

>  <r_lp_Energy>  (228) 
123.504

>  <b_lp_Chiralities_Consistent>  (228) 
1

>  <s_lp_Variant>  (228) 
63:0-1

>  <s_i_glide_gridfile>  (228) 
pfpi4k_grid

>  <i_i_glide_lignum>  (228) 
13

>  <i_i_glide_rotatable_bonds>  (228) 
3

>  <r_i_docking_score>  (228) 
-1.74511

>  <r_i_glide_ligand_efficiency>  (228) 
-0.0459239

>  <r_i_glide_ligand_efficiency_sa>  (228) 
-0.154395

>  <r_i_glide_ligand_efficiency_ln>  (228) 
-0.376297

>  <r_i_glide_gscore>  (228) 
-1.74511

>  <r_i_glide_lipo>  (228) 
-1.31496e-06

>  <r_i_glide_hbond>  (228) 
0

>  <r_i_glide_metal>  (228) 
-0

>  <r_i_glide_rewards>  (228) 
0

>  <r_i_glide_evdw>  (228) 
-29.4219

>  <r_i_glide_ecoul>  (228) 
-1.82674

>  <r_i_glide_erotb>  (228) 
0

>  <r_i_glide_esite>  (228) 
0

>  <r_i_glide_emodel>  (228) 
-35.2772

>  <r_i_glide_energy>  (228) 
-31.2487

>  <r_i_glide_einternal>  (228) 
0.855129

>  <r_i_glide_intrahb_reward>  (228) 
-0

>  <i_i_glide_confnum>  (228) 
1

>  <i_i_glide_posenum>  (228) 
4

>  <r_i_glide_eff_state_penalty>  (228) 
0

>  <ligand_id>  (228) 
63

>  <original_smiles>  (228) 
CC1CCC2(C(=O)O)CC3C4CC=C5C6(C)CC(O)C(O)C(C)(C)C6CCC5(C)C4(C)CCC3(C)C2C1C

>  <smiles>  (228) 
[H]OC1([H])C([H])([H])C2(C([H])([H])[H])C3=C([H])C([H])([H])C4([H])C5([H])C([H])([H])C6(C(=O)[O-])C([H])([H])C([H])([H])C([H])(C([H])([H])[H])C([H])(C([H])([H])[H])C6([H])C5(C([H])([H])[H])C([H])([H])C([H])([H])C4(C([H])([H])[H])C3(C([H])([H])[H])C([H])([H])C([H])([H])C2([H])C(C([H])([H])[H])(C([H])([H])[H])C1([H])O[H]

$$$$
63:1:0
     RDKit          3D

 92 97  0  0  1  0  0  0  0  0999 V2000
   -2.4683    2.9437    6.3266 C   0  0  0  0  0  0  0  0  0  0  0  0
   -1.1418    3.6615    6.0415 C   0  0  2  0  0  0  0  0  0  0  0  0
   -1.0857    4.1854    4.5789 C   0  0  0  0  0  0  0  0  0  0  0  0
   -0.7579    3.1039    3.5177 C   0  0  0  0  0  0  0  0  0  0  0  0
    0.5896    2.3966    3.8334 C   0  0  2  0  0  0  0  0  0  0  0  0
    1.8076    3.3561    3.6664 C   0  0  0  0  0  0  0  0  0  0  0  0
    2.7329    3.4297    4.4714 O   0  0  0  0  0  0  0  0  0  0  0  0
    1.8235    4.0359    2.4819 O   0  0  0  0  0  0  0  0  0  0  0  0
    0.8825    1.0830    3.0454 C   0  0  0  0  0  0  0  0  0  0  0  0
    1.8586    0.3484    3.9931 C   0  0  2  0  0  0  0  0  0  0  0  0
    2.4324   -1.0664    3.7396 C   0  0  1  0  0  0  0  0  0  0  0  0
    2.8892   -1.3060    2.2997 C   0  0  0  0  0  0  0  0  0  0  0  0
    3.5061   -2.6736    2.1458 C   0  0  0  0  0  0  0  0  0  0  0  0
    3.9145   -3.4913    3.1630 C   0  0  0  0  0  0  0  0  0  0  0  0
    4.1988   -5.0100    2.9027 C   0  0  2  0  0  0  0  0  0  0  0  0
    5.6969   -5.2960    3.1861 C   0  0  0  0  0  0  0  0  0  0  0  0
    3.9314   -5.4242    1.4125 C   0  0  0  0  0  0  0  0  0  0  0  0
    3.8476   -6.9306    1.0938 C   0  0  1  0  0  0  0  0  0  0  0  0
    5.1135   -7.5401    0.9468 O   0  0  0  0  0  0  0  0  0  0  0  0
    2.9159   -7.6810    2.0719 C   0  0  1  0  0  0  0  0  0  0  0  0
    2.9191   -9.0680    1.7823 O   0  0  0  0  0  0  0  0  0  0  0  0
    3.1782   -7.3971    3.5820 C   0  0  0  0  0  0  0  0  0  0  0  0
    1.9967   -8.0203    4.3673 C   0  0  0  0  0  0  0  0  0  0  0  0
    4.4699   -8.0926    4.0878 C   0  0  0  0  0  0  0  0  0  0  0  0
    3.1816   -5.8333    3.7778 C   0  0  1  0  0  0  0  0  0  0  0  0
    3.1240   -5.3653    5.2480 C   0  0  0  0  0  0  0  0  0  0  0  0
    2.9052   -3.8502    5.4023 C   0  0  0  0  0  0  0  0  0  0  0  0
    3.9312   -2.9675    4.6455 C   0  0  1  0  0  0  0  0  0  0  0  0
    5.3004   -3.1895    5.3637 C   0  0  0  0  0  0  0  0  0  0  0  0
    3.6060   -1.3915    4.7334 C   0  0  1  0  0  0  0  0  0  0  0  0
    4.8869   -0.5739    4.3246 C   0  0  0  0  0  0  0  0  0  0  0  0
    3.2424   -0.8929    6.1938 C   0  0  0  0  0  0  0  0  0  0  0  0
    2.4835    0.4636    6.3311 C   0  0  0  0  0  0  0  0  0  0  0  0
    1.2571    0.4977    5.4042 C   0  0  2  0  0  0  0  0  0  0  0  0
    0.2658   -0.6455    5.7924 C   0  0  0  0  0  0  0  0  0  0  0  0
    0.4256    1.8137    5.2618 C   0  0  1  0  0  0  0  0  0  0  0  0
    0.0949    2.7939    6.4322 C   0  0  1  0  0  0  0  0  0  0  0  0
    1.2224    3.6940    6.9724 C   0  0  0  0  0  0  0  0  0  0  0  0
   -2.5827    2.0658    5.6927 H   0  0  0  0  0  0  0  0  0  0  0  0
   -3.3255    3.5956    6.1566 H   0  0  0  0  0  0  0  0  0  0  0  0
   -2.5108    2.6159    7.3654 H   0  0  0  0  0  0  0  0  0  0  0  0
   -1.1600    4.5385    6.6872 H   0  0  0  0  0  0  0  0  0  0  0  0
   -2.0433    4.6272    4.3130 H   0  0  0  0  0  0  0  0  0  0  0  0
   -0.3544    4.9932    4.5045 H   0  0  0  0  0  0  0  0  0  0  0  0
   -1.5711    2.3744    3.4747 H   0  0  0  0  0  0  0  0  0  0  0  0
   -0.7556    3.5473    2.5256 H   0  0  0  0  0  0  0  0  0  0  0  0
    1.0892    3.9838    1.8574 H   0  0  0  0  0  0  0  0  0  0  0  0
   -0.0288    0.5089    2.8655 H   0  0  0  0  0  0  0  0  0  0  0  0
    1.3411    1.2863    2.0779 H   0  0  0  0  0  0  0  0  0  0  0  0
    2.7341    0.9860    3.9269 H   0  0  0  0  0  0  0  0  0  0  0  0
    1.6250   -1.7759    3.8970 H   0  0  0  0  0  0  0  0  0  0  0  0
    2.0145   -1.2691    1.6493 H   0  0  0  0  0  0  0  0  0  0  0  0
    3.5807   -0.5441    1.9407 H   0  0  0  0  0  0  0  0  0  0  0  0
    3.4971   -3.0008    1.1224 H   0  0  0  0  0  0  0  0  0  0  0  0
    6.1492   -6.0257    2.5192 H   0  0  0  0  0  0  0  0  0  0  0  0
    5.8900   -5.6512    4.1991 H   0  0  0  0  0  0  0  0  0  0  0  0
    6.2660   -4.3887    3.0056 H   0  0  0  0  0  0  0  0  0  0  0  0
    2.9475   -5.0486    1.1300 H   0  0  0  0  0  0  0  0  0  0  0  0
    4.6506   -4.9519    0.7400 H   0  0  0  0  0  0  0  0  0  0  0  0
    3.4214   -6.9999    0.0952 H   0  0  0  0  0  0  0  0  0  0  0  0
    5.5159   -7.5977    1.8004 H   0  0  0  0  0  0  0  0  0  0  0  0
    1.9050   -7.3331    1.8489 H   0  0  0  0  0  0  0  0  0  0  0  0
    2.5939   -9.2145    0.9068 H   0  0  0  0  0  0  0  0  0  0  0  0
    2.1662   -7.9887    5.4441 H   0  0  0  0  0  0  0  0  0  0  0  0
    1.8468   -9.0717    4.1159 H   0  0  0  0  0  0  0  0  0  0  0  0
    1.0597   -7.5033    4.1578 H   0  0  0  0  0  0  0  0  0  0  0  0
    4.7187   -7.7874    5.1045 H   0  0  0  0  0  0  0  0  0  0  0  0
    5.3356   -7.8830    3.4707 H   0  0  0  0  0  0  0  0  0  0  0  0
    4.3565   -9.1786    4.0873 H   0  0  0  0  0  0  0  0  0  0  0  0
    2.2067   -5.5276    3.3944 H   0  0  0  0  0  0  0  0  0  0  0  0
    2.2756   -5.8314    5.7452 H   0  0  0  0  0  0  0  0  0  0  0  0
    4.0004   -5.7022    5.7973 H   0  0  0  0  0  0  0  0  0  0  0  0
    1.8982   -3.6127    5.0642 H   0  0  0  0  0  0  0  0  0  0  0  0
    2.9296   -3.6524    6.4726 H   0  0  0  0  0  0  0  0  0  0  0  0
    5.3725   -2.6273    6.2974 H   0  0  0  0  0  0  0  0  0  0  0  0
    6.1377   -2.8904    4.7405 H   0  0  0  0  0  0  0  0  0  0  0  0
    5.4863   -4.2163    5.6564 H   0  0  0  0  0  0  0  0  0  0  0  0
    5.6749   -0.6333    5.0750 H   0  0  0  0  0  0  0  0  0  0  0  0
    4.7175    0.4942    4.2014 H   0  0  0  0  0  0  0  0  0  0  0  0
    5.3339   -0.9274    3.3946 H   0  0  0  0  0  0  0  0  0  0  0  0
    2.6608   -1.6292    6.7388 H   0  0  0  0  0  0  0  0  0  0  0  0
    4.1515   -0.7998    6.7796 H   0  0  0  0  0  0  0  0  0  0  0  0
    2.1734    0.6070    7.3660 H   0  0  0  0  0  0  0  0  0  0  0  0
    3.1618    1.2881    6.1047 H   0  0  0  0  0  0  0  0  0  0  0  0
   -0.2140   -0.4239    6.7462 H   0  0  0  0  0  0  0  0  0  0  0  0
    0.7260   -1.6217    5.8970 H   0  0  0  0  0  0  0  0  0  0  0  0
   -0.5184   -0.7738    5.0451 H   0  0  0  0  0  0  0  0  0  0  0  0
   -0.5665    1.3822    5.1559 H   0  0  0  0  0  0  0  0  0  0  0  0
   -0.2023    2.1748    7.2795 H   0  0  0  0  0  0  0  0  0  0  0  0
    1.4350    4.5379    6.3132 H   0  0  0  0  0  0  0  0  0  0  0  0
    2.1428    3.1416    7.1461 H   0  0  0  0  0  0  0  0  0  0  0  0
    0.9236    4.1335    7.9242 H   0  0  0  0  0  0  0  0  0  0  0  0
  1  2  1  0
  1 39  1  0
  1 40  1  0
  1 41  1  0
  2 37  1  0
  2  3  1  0
  2 42  1  1
  3  4  1  0
  3 43  1  0
  3 44  1  0
  4  5  1  0
  4 45  1  0
  4 46  1  0
  5 36  1  0
  5  6  1  1
  5  9  1  0
  6  7  2  0
  6  8  1  0
  8 47  1  0
  9 10  1  0
  9 48  1  0
  9 49  1  0
 10 34  1  0
 10 11  1  0
 10 50  1  1
 11 30  1  0
 11 12  1  0
 11 51  1  1
 12 13  1  0
 12 52  1  0
 12 53  1  0
 13 14  2  0
 13 54  1  0
 14 28  1  0
 14 15  1  0
 15 25  1  0
 15 16  1  1
 15 17  1  0
 16 55  1  0
 16 56  1  0
 16 57  1  0
 17 18  1  0
 17 58  1  0
 17 59  1  0
 18 19  1  0
 18 20  1  0
 18 60  1  6
 19 61  1  0
 20 21  1  0
 20 22  1  0
 20 62  1  6
 21 63  1  0
 22 23  1  0
 22 24  1  0
 22 25  1  0
 23 64  1  0
 23 65  1  0
 23 66  1  0
 24 67  1  0
 24 68  1  0
 24 69  1  0
 25 26  1  0
 25 70  1  6
 26 27  1  0
 26 71  1  0
 26 72  1  0
 27 28  1  0
 27 73  1  0
 27 74  1  0
 28 29  1  1
 28 30  1  0
 29 75  1  0
 29 76  1  0
 29 77  1  0
 30 31  1  6
 30 32  1  0
 31 78  1  0
 31 79  1  0
 31 80  1  0
 32 33  1  0
 32 81  1  0
 32 82  1  0
 33 34  1  0
 33 83  1  0
 33 84  1  0
 34 35  1  1
 34 36  1  0
 35 85  1  0
 35 86  1  0
 35 87  1  0
 36 37  1  0
 36 88  1  6
 37 38  1  0
 37 89  1  1
 38 90  1  0
 38 91  1  0
 38 92  1  0
M  END
>  <i_m_ct_stereo_status>  (229) 
1

>  <s_m_source_file>  (229) 
/var/tmp/pbs.5076255.sched01/tmp1t990xkq/82z3oanzij.sdf

>  <i_m_source_file_index>  (229) 
14

>  <i_lp_mmshare_version>  (229) 
48012

>  <i_f3d_flags>  (229) 
0

>  <s_epik_input>  (229) 
W0NIMl0xW0NIMl1bQ0BASF0oW0NIM10pW0NASF0oW0NIM10pW0NAQEhdKFtDQF0xMkMoPU8pW09IXSlbQ0BAXTMoW0NIM10pW0NASF0oW0NIMl0yKVtDQEBIXTRbQ0BAXShbQ0gzXSkoW0NIMl1bQ0gyXTMpW0NAXTUoW0NIM10pQyg9W0NIXVtDSDJdNClbQ0BAXTYoW0NIM10pW0NASF0oW0NIMl1bQ0gyXTUpQyhbQ0gzXSkoW0NIM10pW0NASF0oW09IXSlbQ0BASF0oW0NIMl02KVtPSF0=

>  <s_epik_cmdline>  (229) 
J2VwaWtfcHl0aG9uJywgJy1waHQnLCAnMi4wJywgJy1waCcsICc3LjAnLCAnLXRuJywgJzgnLCAnLW1hJywgJzIwMCcsICctaW1hZScsICc8aW5maWxlLm1hZT4nLCAnLW9tYWUnLCAnPG91dGZpbGUubWFlPic=

>  <r_epik_Ionization_Penalty>  (229) 
2.42331

>  <r_epik_Ionization_Penalty_Charging>  (229) 
0

>  <r_epik_Ionization_Penalty_Neutral>  (229) 
2.42331

>  <r_epik_State_Penalty>  (229) 
2.58282

>  <r_epik_Charging_Adjusted_Penalty>  (229) 
2.58282

>  <i_epik_Tot_Q>  (229) 
0

>  <i_epik_Tot_abs_Q>  (229) 
0

>  <s_lp_Force_Field>  (229) 
OPLS3e

>  <r_lp_Energy>  (229) 
130.45

>  <b_lp_Chiralities_Consistent>  (229) 
1

>  <s_lp_Variant>  (229) 
63:0-2

>  <s_i_glide_gridfile>  (229) 
pfpi4k_grid

>  <i_i_glide_lignum>  (229) 
14

>  <i_i_glide_rotatable_bonds>  (229) 
4

>  <r_i_docking_score>  (229) 
-2.5954

>  <r_i_glide_ligand_efficiency>  (229) 
-0.0683001

>  <r_i_glide_ligand_efficiency_sa>  (229) 
-0.229623

>  <r_i_glide_ligand_efficiency_ln>  (229) 
-0.559645

>  <r_i_glide_gscore>  (229) 
-2.5954

>  <r_i_glide_lipo>  (229) 
-0.329017

>  <r_i_glide_hbond>  (229) 
0

>  <r_i_glide_metal>  (229) 
-0

>  <r_i_glide_rewards>  (229) 
0

>  <r_i_glide_evdw>  (229) 
-25.4627

>  <r_i_glide_ecoul>  (229) 
-6.8559

>  <r_i_glide_erotb>  (229) 
0.0742004

>  <r_i_glide_esite>  (229) 
-0.0390664

>  <r_i_glide_emodel>  (229) 
-36.7137

>  <r_i_glide_energy>  (229) 
-32.3186

>  <r_i_glide_einternal>  (229) 
1.64345

>  <r_i_glide_intrahb_reward>  (229) 
-0

>  <i_i_glide_confnum>  (229) 
4

>  <i_i_glide_posenum>  (229) 
13

>  <r_i_glide_eff_state_penalty>  (229) 
0

>  <ligand_id>  (229) 
63

>  <original_smiles>  (229) 
CC1CCC2(C(=O)O)CC3C4CC=C5C6(C)CC(O)C(O)C(C)(C)C6CCC5(C)C4(C)CCC3(C)C2C1C

>  <smiles>  (229) 
[H]OC(=O)C12C([H])([H])C([H])([H])C([H])(C([H])([H])[H])C([H])(C([H])([H])[H])C1([H])C1(C([H])([H])[H])C([H])([H])C([H])([H])C3(C([H])([H])[H])C([H])(C([H])([H])C([H])=C4C5(C([H])([H])[H])C([H])([H])C([H])(O[H])C([H])(O[H])C(C([H])([H])[H])(C([H])([H])[H])C5([H])C([H])([H])C([H])([H])C43C([H])([H])[H])C1([H])C2([H])[H]

$$$$
63:1:1
     RDKit          3D

 92 97  0  0  1  0  0  0  0  0999 V2000
   -2.5734    2.9930    6.2217 C   0  0  0  0  0  0  0  0  0  0  0  0
   -1.2218    3.6907    6.0227 C   0  0  2  0  0  0  0  0  0  0  0  0
   -1.0812    4.2426    4.5763 C   0  0  0  0  0  0  0  0  0  0  0  0
   -0.7274    3.1735    3.5136 C   0  0  0  0  0  0  0  0  0  0  0  0
    0.5890    2.4392    3.8774 C   0  0  2  0  0  0  0  0  0  0  0  0
    1.8195    3.4014    3.7966 C   0  0  0  0  0  0  0  0  0  0  0  0
    2.7404    3.3833    4.6062 O   0  0  0  0  0  0  0  0  0  0  0  0
    1.8201    4.2228    2.6969 O   0  0  0  0  0  0  0  0  0  0  0  0
    0.8987    1.1420    3.0744 C   0  0  0  0  0  0  0  0  0  0  0  0
    1.8006    0.3538    4.0536 C   0  0  2  0  0  0  0  0  0  0  0  0
    2.3594   -1.0672    3.8007 C   0  0  1  0  0  0  0  0  0  0  0  0
    2.8869   -1.2801    2.3811 C   0  0  0  0  0  0  0  0  0  0  0  0
    3.4798   -2.6641    2.2300 C   0  0  0  0  0  0  0  0  0  0  0  0
    3.8191   -3.5054    3.2475 C   0  0  0  0  0  0  0  0  0  0  0  0
    4.0880   -5.0275    2.9687 C   0  0  2  0  0  0  0  0  0  0  0  0
    5.5636   -5.3455    3.3267 C   0  0  0  0  0  0  0  0  0  0  0  0
    3.8920   -5.4042    1.4578 C   0  0  0  0  0  0  0  0  0  0  0  0
    3.8002   -6.9055    1.1027 C   0  0  1  0  0  0  0  0  0  0  0  0
    5.0540   -7.5578    1.0516 O   0  0  0  0  0  0  0  0  0  0  0  0
    2.8013   -7.6600    2.0010 C   0  0  1  0  0  0  0  0  0  0  0  0
    2.7735   -9.0312    1.6344 O   0  0  0  0  0  0  0  0  0  0  0  0
    2.9773   -7.4112    3.5280 C   0  0  0  0  0  0  0  0  0  0  0  0
    1.7408   -8.0218    4.2382 C   0  0  0  0  0  0  0  0  0  0  0  0
    4.2231   -8.1445    4.0909 C   0  0  0  0  0  0  0  0  0  0  0  0
    3.0045   -5.8499    3.7629 C   0  0  1  0  0  0  0  0  0  0  0  0
    2.8769   -5.4150    5.2399 C   0  0  0  0  0  0  0  0  0  0  0  0
    2.6840   -3.8950    5.4198 C   0  0  0  0  0  0  0  0  0  0  0  0
    3.7704   -3.0180    4.7390 C   0  0  1  0  0  0  0  0  0  0  0  0
    5.0954   -3.2848    5.5165 C   0  0  0  0  0  0  0  0  0  0  0  0
    3.4731   -1.4379    4.8481 C   0  0  1  0  0  0  0  0  0  0  0  0
    4.7892   -0.6420    4.5278 C   0  0  0  0  0  0  0  0  0  0  0  0
    3.0459   -0.9673    6.3002 C   0  0  0  0  0  0  0  0  0  0  0  0
    2.3073    0.4008    6.4277 C   0  0  0  0  0  0  0  0  0  0  0  0
    1.1353    0.4856    5.4355 C   0  0  2  0  0  0  0  0  0  0  0  0
    0.0954   -0.6408    5.7457 C   0  0  0  0  0  0  0  0  0  0  0  0
    0.3401    1.8233    5.2795 C   0  0  1  0  0  0  0  0  0  0  0  0
   -0.0282    2.7835    6.4527 C   0  0  1  0  0  0  0  0  0  0  0  0
    1.0961    3.6423    7.0623 C   0  0  0  0  0  0  0  0  0  0  0  0
   -2.6866    2.1431    5.5524 H   0  0  0  0  0  0  0  0  0  0  0  0
   -3.3865    3.6872    6.0272 H   0  0  0  0  0  0  0  0  0  0  0  0
   -2.6859    2.6391    7.2469 H   0  0  0  0  0  0  0  0  0  0  0  0
   -1.2534    4.5492    6.6943 H   0  0  0  0  0  0  0  0  0  0  0  0
   -2.0114    4.7187    4.2778 H   0  0  0  0  0  0  0  0  0  0  0  0
   -0.3317    5.0343    4.5639 H   0  0  0  0  0  0  0  0  0  0  0  0
   -1.5518    2.4649    3.4204 H   0  0  0  0  0  0  0  0  0  0  0  0
   -0.6777    3.6384    2.5354 H   0  0  0  0  0  0  0  0  0  0  0  0
    1.0708    4.1496    2.1035 H   0  0  0  0  0  0  0  0  0  0  0  0
   -0.0095    0.5885    2.8357 H   0  0  0  0  0  0  0  0  0  0  0  0
    1.4136    1.3531    2.1366 H   0  0  0  0  0  0  0  0  0  0  0  0
    2.6942    0.9625    4.0491 H   0  0  0  0  0  0  0  0  0  0  0  0
    1.5288   -1.7609    3.8969 H   0  0  0  0  0  0  0  0  0  0  0  0
    2.0501   -1.2085    1.6841 H   0  0  0  0  0  0  0  0  0  0  0  0
    3.6164   -0.5259    2.0804 H   0  0  0  0  0  0  0  0  0  0  0  0
    3.5232   -2.9666    1.1980 H   0  0  0  0  0  0  0  0  0  0  0  0
    6.0256   -6.0736    2.6696 H   0  0  0  0  0  0  0  0  0  0  0  0
    5.6848   -5.7419    4.3311 H   0  0  0  0  0  0  0  0  0  0  0  0
    6.1890   -4.4618    3.2167 H   0  0  0  0  0  0  0  0  0  0  0  0
    2.9335   -5.0028    1.1270 H   0  0  0  0  0  0  0  0  0  0  0  0
    4.6550   -4.9333    0.8349 H   0  0  0  0  0  0  0  0  0  0  0  0
    3.4328   -6.9461    0.0837 H   0  0  0  0  0  0  0  0  0  0  0  0
    4.9046   -8.4406    0.7391 H   0  0  0  0  0  0  0  0  0  0  0  0
    1.8194   -7.2785    1.7356 H   0  0  0  0  0  0  0  0  0  0  0  0
    3.5652   -9.4584    1.9298 H   0  0  0  0  0  0  0  0  0  0  0  0
    1.8508   -8.0194    5.3239 H   0  0  0  0  0  0  0  0  0  0  0  0
    1.5818   -9.0627    3.9535 H   0  0  0  0  0  0  0  0  0  0  0  0
    0.8281   -7.4769    3.9914 H   0  0  0  0  0  0  0  0  0  0  0  0
    4.4259   -7.8666    5.1259 H   0  0  0  0  0  0  0  0  0  0  0  0
    5.1247   -7.9383    3.5233 H   0  0  0  0  0  0  0  0  0  0  0  0
    4.0888   -9.2260    4.0653 H   0  0  0  0  0  0  0  0  0  0  0  0
    2.0581   -5.5106    3.3380 H   0  0  0  0  0  0  0  0  0  0  0  0
    1.9929   -5.8695    5.6857 H   0  0  0  0  0  0  0  0  0  0  0  0
    3.7148   -5.7811    5.8287 H   0  0  0  0  0  0  0  0  0  0  0  0
    1.6989   -3.6279    5.0353 H   0  0  0  0  0  0  0  0  0  0  0  0
    2.6551   -3.7235    6.4954 H   0  0  0  0  0  0  0  0  0  0  0  0
    5.1281   -2.7512    6.4657 H   0  0  0  0  0  0  0  0  0  0  0  0
    5.9732   -2.9879    4.9454 H   0  0  0  0  0  0  0  0  0  0  0  0
    5.2450   -4.3203    5.7987 H   0  0  0  0  0  0  0  0  0  0  0  0
    5.5334   -0.7369    5.3174 H   0  0  0  0  0  0  0  0  0  0  0  0
    4.6497    0.4314    4.4225 H   0  0  0  0  0  0  0  0  0  0  0  0
    5.2771   -0.9851    3.6159 H   0  0  0  0  0  0  0  0  0  0  0  0
    2.4153   -1.6984    6.7949 H   0  0  0  0  0  0  0  0  0  0  0  0
    3.9232   -0.9098    6.9392 H   0  0  0  0  0  0  0  0  0  0  0  0
    1.9432    0.5311    7.4486 H   0  0  0  0  0  0  0  0  0  0  0  0
    3.0129    1.2136    6.2583 H   0  0  0  0  0  0  0  0  0  0  0  0
   -0.4311   -0.4287    6.6786 H   0  0  0  0  0  0  0  0  0  0  0  0
    0.5280   -1.6331    5.8523 H   0  0  0  0  0  0  0  0  0  0  0  0
   -0.6510   -0.7335    4.9535 H   0  0  0  0  0  0  0  0  0  0  0  0
   -0.6551    1.4191    5.1171 H   0  0  0  0  0  0  0  0  0  0  0  0
   -0.3764    2.1562    7.2720 H   0  0  0  0  0  0  0  0  0  0  0  0
    1.3743    4.4809    6.4197 H   0  0  0  0  0  0  0  0  0  0  0  0
    1.9900    3.0618    7.2812 H   0  0  0  0  0  0  0  0  0  0  0  0
    0.7572    4.0827    8.0015 H   0  0  0  0  0  0  0  0  0  0  0  0
  1  2  1  0
  1 39  1  0
  1 40  1  0
  1 41  1  0
  2 37  1  0
  2  3  1  0
  2 42  1  1
  3  4  1  0
  3 43  1  0
  3 44  1  0
  4  5  1  0
  4 45  1  0
  4 46  1  0
  5 36  1  0
  5  6  1  1
  5  9  1  0
  6  7  2  0
  6  8  1  0
  8 47  1  0
  9 10  1  0
  9 48  1  0
  9 49  1  0
 10 34  1  0
 10 11  1  0
 10 50  1  1
 11 30  1  0
 11 12  1  0
 11 51  1  1
 12 13  1  0
 12 52  1  0
 12 53  1  0
 13 14  2  0
 13 54  1  0
 14 28  1  0
 14 15  1  0
 15 25  1  0
 15 16  1  1
 15 17  1  0
 16 55  1  0
 16 56  1  0
 16 57  1  0
 17 18  1  0
 17 58  1  0
 17 59  1  0
 18 19  1  0
 18 20  1  0
 18 60  1  6
 19 61  1  0
 20 21  1  0
 20 22  1  0
 20 62  1  6
 21 63  1  0
 22 23  1  0
 22 24  1  0
 22 25  1  0
 23 64  1  0
 23 65  1  0
 23 66  1  0
 24 67  1  0
 24 68  1  0
 24 69  1  0
 25 26  1  0
 25 70  1  6
 26 27  1  0
 26 71  1  0
 26 72  1  0
 27 28  1  0
 27 73  1  0
 27 74  1  0
 28 29  1  1
 28 30  1  0
 29 75  1  0
 29 76  1  0
 29 77  1  0
 30 31  1  6
 30 32  1  0
 31 78  1  0
 31 79  1  0
 31 80  1  0
 32 33  1  0
 32 81  1  0
 32 82  1  0
 33 34  1  0
 33 83  1  0
 33 84  1  0
 34 35  1  1
 34 36  1  0
 35 85  1  0
 35 86  1  0
 35 87  1  0
 36 37  1  0
 36 88  1  6
 37 38  1  0
 37 89  1  1
 38 90  1  0
 38 91  1  0
 38 92  1  0
M  END
>  <i_m_ct_stereo_status>  (230) 
1

>  <s_m_source_file>  (230) 
/var/tmp/pbs.5076255.sched01/tmp1t990xkq/82z3oanzij.sdf

>  <i_m_source_file_index>  (230) 
14

>  <i_lp_mmshare_version>  (230) 
48012

>  <i_f3d_flags>  (230) 
0

>  <s_epik_input>  (230) 
W0NIMl0xW0NIMl1bQ0BASF0oW0NIM10pW0NASF0oW0NIM10pW0NAQEhdKFtDQF0xMkMoPU8pW09IXSlbQ0BAXTMoW0NIM10pW0NASF0oW0NIMl0yKVtDQEBIXTRbQ0BAXShbQ0gzXSkoW0NIMl1bQ0gyXTMpW0NAXTUoW0NIM10pQyg9W0NIXVtDSDJdNClbQ0BAXTYoW0NIM10pW0NASF0oW0NIMl1bQ0gyXTUpQyhbQ0gzXSkoW0NIM10pW0NASF0oW09IXSlbQ0BASF0oW0NIMl02KVtPSF0=

>  <s_epik_cmdline>  (230) 
J2VwaWtfcHl0aG9uJywgJy1waHQnLCAnMi4wJywgJy1waCcsICc3LjAnLCAnLXRuJywgJzgnLCAnLW1hJywgJzIwMCcsICctaW1hZScsICc8aW5maWxlLm1hZT4nLCAnLW9tYWUnLCAnPG91dGZpbGUubWFlPic=

>  <r_epik_Ionization_Penalty>  (230) 
2.42331

>  <r_epik_Ionization_Penalty_Charging>  (230) 
0

>  <r_epik_Ionization_Penalty_Neutral>  (230) 
2.42331

>  <r_epik_State_Penalty>  (230) 
2.58282

>  <r_epik_Charging_Adjusted_Penalty>  (230) 
2.58282

>  <i_epik_Tot_Q>  (230) 
0

>  <i_epik_Tot_abs_Q>  (230) 
0

>  <s_lp_Force_Field>  (230) 
OPLS3e

>  <r_lp_Energy>  (230) 
130.45

>  <b_lp_Chiralities_Consistent>  (230) 
1

>  <s_lp_Variant>  (230) 
63:0-2

>  <s_i_glide_gridfile>  (230) 
pfpi4k_grid

>  <i_i_glide_lignum>  (230) 
14

>  <i_i_glide_rotatable_bonds>  (230) 
4

>  <r_i_docking_score>  (230) 
-2.3337

>  <r_i_glide_ligand_efficiency>  (230) 
-0.0614131

>  <r_i_glide_ligand_efficiency_sa>  (230) 
-0.206469

>  <r_i_glide_ligand_efficiency_ln>  (230) 
-0.503214

>  <r_i_glide_gscore>  (230) 
-2.3337

>  <r_i_glide_lipo>  (230) 
-0.290193

>  <r_i_glide_hbond>  (230) 
0

>  <r_i_glide_metal>  (230) 
-0

>  <r_i_glide_rewards>  (230) 
0

>  <r_i_glide_evdw>  (230) 
-26.5334

>  <r_i_glide_ecoul>  (230) 
-5.04048

>  <r_i_glide_erotb>  (230) 
0.0742004

>  <r_i_glide_esite>  (230) 
-0.0349657

>  <r_i_glide_emodel>  (230) 
-35.5797

>  <r_i_glide_energy>  (230) 
-31.5738

>  <r_i_glide_einternal>  (230) 
1.641

>  <r_i_glide_intrahb_reward>  (230) 
-0

>  <i_i_glide_confnum>  (230) 
4

>  <i_i_glide_posenum>  (230) 
40

>  <r_i_glide_eff_state_penalty>  (230) 
0

>  <ligand_id>  (230) 
63

>  <original_smiles>  (230) 
CC1CCC2(C(=O)O)CC3C4CC=C5C6(C)CC(O)C(O)C(C)(C)C6CCC5(C)C4(C)CCC3(C)C2C1C

>  <smiles>  (230) 
[H]OC(=O)C12C([H])([H])C([H])([H])C([H])(C([H])([H])[H])C([H])(C([H])([H])[H])C1([H])C1(C([H])([H])[H])C([H])([H])C([H])([H])C3(C([H])([H])[H])C([H])(C([H])([H])C([H])=C4C5(C([H])([H])[H])C([H])([H])C([H])(O[H])C([H])(O[H])C(C([H])([H])[H])(C([H])([H])[H])C5([H])C([H])([H])C([H])([H])C43C([H])([H])[H])C1([H])C2([H])[H]

$$$$
63:1:2
     RDKit          3D

 92 97  0  0  1  0  0  0  0  0999 V2000
   -2.1577    3.3549    3.9249 C   0  0  0  0  0  0  0  0  0  0  0  0
   -0.9637    3.6292    4.8595 C   0  0  2  0  0  0  0  0  0  0  0  0
    0.2638    4.1942    4.0818 C   0  0  0  0  0  0  0  0  0  0  0  0
    1.0990    3.1321    3.3218 C   0  0  0  0  0  0  0  0  0  0  0  0
    1.5842    2.0038    4.2691 C   0  0  2  0  0  0  0  0  0  0  0  0
    2.6714    2.5421    5.2461 C   0  0  0  0  0  0  0  0  0  0  0  0
    2.6851    2.3080    6.4532 O   0  0  0  0  0  0  0  0  0  0  0  0
    3.6657    3.2145    4.5982 O   0  0  0  0  0  0  0  0  0  0  0  0
    2.1306    0.7179    3.5830 C   0  0  0  0  0  0  0  0  0  0  0  0
    1.9176   -0.3487    4.6746 C   0  0  2  0  0  0  0  0  0  0  0  0
    2.2336   -1.8546    4.5177 C   0  0  1  0  0  0  0  0  0  0  0  0
    3.5636   -2.1411    3.8154 C   0  0  0  0  0  0  0  0  0  0  0  0
    3.8310   -3.6274    3.7609 C   0  0  0  0  0  0  0  0  0  0  0  0
    3.1996   -4.5865    4.4903 C   0  0  0  0  0  0  0  0  0  0  0  0
    3.3163   -6.1024    4.0965 C   0  0  2  0  0  0  0  0  0  0  0  0
    4.0166   -6.8633    5.2550 C   0  0  0  0  0  0  0  0  0  0  0  0
    4.1814   -6.3212    2.8009 C   0  0  0  0  0  0  0  0  0  0  0  0
    4.1062   -7.7057    2.1134 C   0  0  1  0  0  0  0  0  0  0  0  0
    4.8988   -8.6820    2.7552 O   0  0  0  0  0  0  0  0  0  0  0  0
    2.6559   -8.1719    1.9082 C   0  0  1  0  0  0  0  0  0  0  0  0
    2.6443   -9.4447    1.2842 O   0  0  0  0  0  0  0  0  0  0  0  0
    1.7421   -8.0752    3.1647 C   0  0  0  0  0  0  0  0  0  0  0  0
    0.2870   -8.3231    2.6919 C   0  0  0  0  0  0  0  0  0  0  0  0
    2.0656   -9.1719    4.2086 C   0  0  0  0  0  0  0  0  0  0  0  0
    1.8669   -6.6080    3.7337 C   0  0  1  0  0  0  0  0  0  0  0  0
    0.8082   -6.2334    4.7993 C   0  0  0  0  0  0  0  0  0  0  0  0
    0.8127   -4.7359    5.1707 C   0  0  0  0  0  0  0  0  0  0  0  0
    2.1909   -4.1855    5.6339 C   0  0  1  0  0  0  0  0  0  0  0  0
    2.5094   -4.8757    6.9956 C   0  0  0  0  0  0  0  0  0  0  0  0
    2.1857   -2.5987    5.9015 C   0  0  1  0  0  0  0  0  0  0  0  0
    3.4516   -2.2150    6.7483 C   0  0  0  0  0  0  0  0  0  0  0  0
    0.9496   -2.0994    6.7629 C   0  0  0  0  0  0  0  0  0  0  0  0
    0.5953   -0.5817    6.7005 C   0  0  0  0  0  0  0  0  0  0  0  0
    0.5091   -0.0947    5.2461 C   0  0  2  0  0  0  0  0  0  0  0  0
   -0.6162   -0.8720    4.4930 C   0  0  0  0  0  0  0  0  0  0  0  0
    0.3093    1.4277    4.9378 C   0  0  1  0  0  0  0  0  0  0  0  0
   -0.6132    2.3907    5.7452 C   0  0  1  0  0  0  0  0  0  0  0  0
   -0.1430    2.8428    7.1413 C   0  0  0  0  0  0  0  0  0  0  0  0
   -1.9283    2.6136    3.1607 H   0  0  0  0  0  0  0  0  0  0  0  0
   -2.4683    4.2644    3.4125 H   0  0  0  0  0  0  0  0  0  0  0  0
   -3.0152    2.9945    4.4928 H   0  0  0  0  0  0  0  0  0  0  0  0
   -1.3080    4.4223    5.5262 H   0  0  0  0  0  0  0  0  0  0  0  0
   -0.0732    4.9523    3.3737 H   0  0  0  0  0  0  0  0  0  0  0  0
    0.9131    4.7264    4.7793 H   0  0  0  0  0  0  0  0  0  0  0  0
    0.4858    2.7148    2.5200 H   0  0  0  0  0  0  0  0  0  0  0  0
    1.9257    3.6222    2.8063 H   0  0  0  0  0  0  0  0  0  0  0  0
    3.5460    3.2533    3.6574 H   0  0  0  0  0  0  0  0  0  0  0  0
    1.5722    0.4751    2.6793 H   0  0  0  0  0  0  0  0  0  0  0  0
    3.1803    0.8064    3.3045 H   0  0  0  0  0  0  0  0  0  0  0  0
    2.6383   -0.0362    5.4194 H   0  0  0  0  0  0  0  0  0  0  0  0
    1.4740   -2.2708    3.8585 H   0  0  0  0  0  0  0  0  0  0  0  0
    3.4967   -1.7847    2.7879 H   0  0  0  0  0  0  0  0  0  0  0  0
    4.4043   -1.6289    4.2838 H   0  0  0  0  0  0  0  0  0  0  0  0
    4.5396   -3.8784    2.9883 H   0  0  0  0  0  0  0  0  0  0  0  0
    4.6677   -7.6616    4.9219 H   0  0  0  0  0  0  0  0  0  0  0  0
    3.3197   -7.3311    5.9441 H   0  0  0  0  0  0  0  0  0  0  0  0
    4.6763   -6.2043    5.8189 H   0  0  0  0  0  0  0  0  0  0  0  0
    3.8295   -5.6287    2.0366 H   0  0  0  0  0  0  0  0  0  0  0  0
    5.2264   -6.0660    2.9909 H   0  0  0  0  0  0  0  0  0  0  0  0
    4.5560   -7.5990    1.1278 H   0  0  0  0  0  0  0  0  0  0  0  0
    4.8418   -9.4877    2.2609 H   0  0  0  0  0  0  0  0  0  0  0  0
    2.2314   -7.4884    1.1729 H   0  0  0  0  0  0  0  0  0  0  0  0
    3.0052  -10.0959    1.8750 H   0  0  0  0  0  0  0  0  0  0  0  0
   -0.4061   -8.4174    3.5308 H   0  0  0  0  0  0  0  0  0  0  0  0
    0.2050   -9.2556    2.1295 H   0  0  0  0  0  0  0  0  0  0  0  0
   -0.0666   -7.5210    2.0429 H   0  0  0  0  0  0  0  0  0  0  0  0
    1.5124   -9.0286    5.1385 H   0  0  0  0  0  0  0  0  0  0  0  0
    3.1200   -9.2204    4.4653 H   0  0  0  0  0  0  0  0  0  0  0  0
    1.7989  -10.1610    3.8319 H   0  0  0  0  0  0  0  0  0  0  0  0
    1.5784   -5.9764    2.8920 H   0  0  0  0  0  0  0  0  0  0  0  0
   -0.1928   -6.4291    4.4198 H   0  0  0  0  0  0  0  0  0  0  0  0
    0.9057   -6.8617    5.6825 H   0  0  0  0  0  0  0  0  0  0  0  0
    0.4566   -4.1674    4.3114 H   0  0  0  0  0  0  0  0  0  0  0  0
    0.0644   -4.6227    5.9530 H   0  0  0  0  0  0  0  0  0  0  0  0
    1.9497   -4.4255    7.8142 H   0  0  0  0  0  0  0  0  0  0  0  0
    3.5662   -4.8177    7.2548 H   0  0  0  0  0  0  0  0  0  0  0  0
    2.2319   -5.9204    7.0414 H   0  0  0  0  0  0  0  0  0  0  0  0
    3.3860   -2.5691    7.7742 H   0  0  0  0  0  0  0  0  0  0  0  0
    3.6177   -1.1470    6.8443 H   0  0  0  0  0  0  0  0  0  0  0  0
    4.3680   -2.6418    6.3437 H   0  0  0  0  0  0  0  0  0  0  0  0
    0.0411   -2.6310    6.5087 H   0  0  0  0  0  0  0  0  0  0  0  0
    1.1111   -2.3433    7.8093 H   0  0  0  0  0  0  0  0  0  0  0  0
   -0.3499   -0.3945    7.2100 H   0  0  0  0  0  0  0  0  0  0  0  0
    1.3455   -0.0105    7.2492 H   0  0  0  0  0  0  0  0  0  0  0  0
   -1.6014   -0.5599    4.8448 H   0  0  0  0  0  0  0  0  0  0  0  0
   -0.5696   -1.9539    4.6023 H   0  0  0  0  0  0  0  0  0  0  0  0
   -0.5678   -0.6808    3.4184 H   0  0  0  0  0  0  0  0  0  0  0  0
   -0.3222    1.3514    4.0560 H   0  0  0  0  0  0  0  0  0  0  0  0
   -1.5418    1.8464    5.9253 H   0  0  0  0  0  0  0  0  0  0  0  0
    0.6361    3.6027    7.0822 H   0  0  0  0  0  0  0  0  0  0  0  0
    0.2297    2.0139    7.7404 H   0  0  0  0  0  0  0  0  0  0  0  0
   -0.9717    3.2913    7.6908 H   0  0  0  0  0  0  0  0  0  0  0  0
  1  2  1  0
  1 39  1  0
  1 40  1  0
  1 41  1  0
  2 37  1  0
  2  3  1  0
  2 42  1  1
  3  4  1  0
  3 43  1  0
  3 44  1  0
  4  5  1  0
  4 45  1  0
  4 46  1  0
  5 36  1  0
  5  6  1  1
  5  9  1  0
  6  7  2  0
  6  8  1  0
  8 47  1  0
  9 10  1  0
  9 48  1  0
  9 49  1  0
 10 34  1  0
 10 11  1  0
 10 50  1  1
 11 30  1  0
 11 12  1  0
 11 51  1  6
 12 13  1  0
 12 52  1  0
 12 53  1  0
 13 14  2  0
 13 54  1  0
 14 28  1  0
 14 15  1  0
 15 25  1  0
 15 16  1  1
 15 17  1  0
 16 55  1  0
 16 56  1  0
 16 57  1  0
 17 18  1  0
 17 58  1  0
 17 59  1  0
 18 19  1  0
 18 20  1  0
 18 60  1  6
 19 61  1  0
 20 21  1  0
 20 22  1  0
 20 62  1  6
 21 63  1  0
 22 23  1  0
 22 24  1  0
 22 25  1  0
 23 64  1  0
 23 65  1  0
 23 66  1  0
 24 67  1  0
 24 68  1  0
 24 69  1  0
 25 26  1  0
 25 70  1  6
 26 27  1  0
 26 71  1  0
 26 72  1  0
 27 28  1  0
 27 73  1  0
 27 74  1  0
 28 29  1  1
 28 30  1  0
 29 75  1  0
 29 76  1  0
 29 77  1  0
 30 31  1  1
 30 32  1  0
 31 78  1  0
 31 79  1  0
 31 80  1  0
 32 33  1  0
 32 81  1  0
 32 82  1  0
 33 34  1  0
 33 83  1  0
 33 84  1  0
 34 35  1  6
 34 36  1  0
 35 85  1  0
 35 86  1  0
 35 87  1  0
 36 37  1  0
 36 88  1  6
 37 38  1  0
 37 89  1  1
 38 90  1  0
 38 91  1  0
 38 92  1  0
M  END
>  <i_m_ct_stereo_status>  (231) 
1

>  <s_m_source_file>  (231) 
/var/tmp/pbs.5076255.sched01/tmp1t990xkq/82z3oanzij.sdf

>  <i_m_source_file_index>  (231) 
14

>  <i_lp_mmshare_version>  (231) 
48012

>  <i_f3d_flags>  (231) 
0

>  <s_epik_input>  (231) 
W0NIMl0xW0NIMl1bQ0BASF0oW0NIM10pW0NASF0oW0NIM10pW0NAQEhdKFtDQF0xMkMoPU8pW09IXSlbQ0BAXTMoW0NIM10pW0NASF0oW0NIMl0yKVtDQEBIXTRbQ0BAXShbQ0gzXSkoW0NIMl1bQ0gyXTMpW0NAXTUoW0NIM10pQyg9W0NIXVtDSDJdNClbQ0BAXTYoW0NIM10pW0NASF0oW0NIMl1bQ0gyXTUpQyhbQ0gzXSkoW0NIM10pW0NASF0oW09IXSlbQ0BASF0oW0NIMl02KVtPSF0=

>  <s_epik_cmdline>  (231) 
J2VwaWtfcHl0aG9uJywgJy1waHQnLCAnMi4wJywgJy1waCcsICc3LjAnLCAnLXRuJywgJzgnLCAnLW1hJywgJzIwMCcsICctaW1hZScsICc8aW5maWxlLm1hZT4nLCAnLW9tYWUnLCAnPG91dGZpbGUubWFlPic=

>  <r_epik_Ionization_Penalty>  (231) 
2.42331

>  <r_epik_Ionization_Penalty_Charging>  (231) 
0

>  <r_epik_Ionization_Penalty_Neutral>  (231) 
2.42331

>  <r_epik_State_Penalty>  (231) 
2.58282

>  <r_epik_Charging_Adjusted_Penalty>  (231) 
2.58282

>  <i_epik_Tot_Q>  (231) 
0

>  <i_epik_Tot_abs_Q>  (231) 
0

>  <s_lp_Force_Field>  (231) 
OPLS3e

>  <r_lp_Energy>  (231) 
130.45

>  <b_lp_Chiralities_Consistent>  (231) 
1

>  <s_lp_Variant>  (231) 
63:0-2

>  <s_i_glide_gridfile>  (231) 
pfpi4k_grid

>  <i_i_glide_lignum>  (231) 
14

>  <i_i_glide_rotatable_bonds>  (231) 
4

>  <r_i_docking_score>  (231) 
-1.8

>  <r_i_glide_ligand_efficiency>  (231) 
-0.0473683

>  <r_i_glide_ligand_efficiency_sa>  (231) 
-0.159251

>  <r_i_glide_ligand_efficiency_ln>  (231) 
-0.388132

>  <r_i_glide_gscore>  (231) 
-1.8

>  <r_i_glide_lipo>  (231) 
-0.00520113

>  <r_i_glide_hbond>  (231) 
0

>  <r_i_glide_metal>  (231) 
-0

>  <r_i_glide_rewards>  (231) 
0

>  <r_i_glide_evdw>  (231) 
-29.4354

>  <r_i_glide_ecoul>  (231) 
-2.64109

>  <r_i_glide_erotb>  (231) 
0.0742004

>  <r_i_glide_esite>  (231) 
-0.00106036

>  <r_i_glide_emodel>  (231) 
-34.906

>  <r_i_glide_energy>  (231) 
-32.0765

>  <r_i_glide_einternal>  (231) 
1.73341

>  <r_i_glide_intrahb_reward>  (231) 
-0

>  <i_i_glide_confnum>  (231) 
1

>  <i_i_glide_posenum>  (231) 
29

>  <r_i_glide_eff_state_penalty>  (231) 
0

>  <ligand_id>  (231) 
63

>  <original_smiles>  (231) 
CC1CCC2(C(=O)O)CC3C4CC=C5C6(C)CC(O)C(O)C(C)(C)C6CCC5(C)C4(C)CCC3(C)C2C1C

>  <smiles>  (231) 
[H]OC(=O)C12C([H])([H])C([H])([H])C([H])(C([H])([H])[H])C([H])(C([H])([H])[H])C1([H])C1(C([H])([H])[H])C([H])([H])C([H])([H])C3(C([H])([H])[H])C([H])(C([H])([H])C([H])=C4C5(C([H])([H])[H])C([H])([H])C([H])(O[H])C([H])(O[H])C(C([H])([H])[H])(C([H])([H])[H])C5([H])C([H])([H])C([H])([H])C43C([H])([H])[H])C1([H])C2([H])[H]

$$$$
64:0:0
     RDKit          3D

 61 66  0  0  1  0  0  0  0  0999 V2000
    4.9654   -0.6871   -1.2327 C   0  0  0  0  0  0  0  0  0  0  0  0
    4.1393   -1.8831   -1.7306 C   0  0  0  0  0  0  0  0  0  0  0  0
    3.0268   -1.3096   -2.6149 C   0  0  0  0  0  0  0  0  0  0  0  0
    5.0050   -2.7559   -2.6332 C   0  0  0  0  0  0  0  0  0  0  0  0
    6.1106   -3.4453   -1.8530 C   0  0  0  0  0  0  0  0  0  0  0  0
    5.5194   -4.3027   -0.7188 C   0  0  0  0  0  0  0  0  0  0  0  0
    4.6143   -3.5224    0.2987 C   0  0  2  0  0  0  0  0  0  0  0  0
    5.5364   -2.7027    1.2730 C   0  0  0  0  0  0  0  0  0  0  0  0
    5.6979   -3.1813    2.6280 O   0  0  0  0  0  0  0  0  0  0  0  0
    5.5874   -4.5863    2.9164 C   0  0  1  0  0  0  0  0  0  0  0  0
    6.8429   -5.3190    2.3923 C   0  0  0  0  0  0  0  0  0  0  0  0
    5.4707   -4.7652    4.4613 C   0  0  0  0  0  0  0  0  0  0  0  0
    4.2325   -4.1440    5.1590 C   0  0  0  0  0  0  0  0  0  0  0  0
    2.8973   -4.8399    4.8577 C   0  0  2  0  0  0  0  0  0  0  0  0
    2.2468   -4.7554    3.4872 C   0  0  2  0  0  0  0  0  0  0  0  0
    3.1561   -4.0937    2.4761 C   0  0  1  0  0  0  0  0  0  0  0  0
    4.3148   -5.0786    2.2852 C   0  0  1  0  0  0  0  0  0  0  0  0
    3.7078   -4.4563    1.1007 C   0  0  2  0  0  0  0  0  0  0  0  0
    2.7174   -4.9815    0.0879 C   0  0  1  0  0  0  0  0  0  0  0  0
    1.4993   -5.4858    0.5893 O   0  0  0  0  0  0  0  0  0  0  0  0
    2.5062   -3.7888   -0.8706 C   0  0  0  0  0  0  0  0  0  0  0  0
    3.5735   -2.7111   -0.5198 C   0  0  2  0  0  0  0  0  0  0  0  0
    1.5933   -4.0891    4.6845 C   0  0  0  0  0  0  0  0  0  0  0  0
    0.3359   -4.7176    5.2492 C   0  0  0  0  0  0  0  0  0  0  0  0
    1.4904   -2.5761    4.7869 C   0  0  0  0  0  0  0  0  0  0  0  0
    5.2672   -0.0706   -2.0784 H   0  0  0  0  0  0  0  0  0  0  0  0
    5.8796   -0.9634   -0.7109 H   0  0  0  0  0  0  0  0  0  0  0  0
    4.3910   -0.0692   -0.5440 H   0  0  0  0  0  0  0  0  0  0  0  0
    2.3968   -2.0865   -3.0413 H   0  0  0  0  0  0  0  0  0  0  0  0
    3.4272   -0.7110   -3.4319 H   0  0  0  0  0  0  0  0  0  0  0  0
    2.4180   -0.6435   -2.0198 H   0  0  0  0  0  0  0  0  0  0  0  0
    4.3983   -3.5247   -3.1174 H   0  0  0  0  0  0  0  0  0  0  0  0
    5.4150   -2.1654   -3.4502 H   0  0  0  0  0  0  0  0  0  0  0  0
    6.6291   -4.0410   -2.6004 H   0  0  0  0  0  0  0  0  0  0  0  0
    6.8514   -2.7474   -1.4751 H   0  0  0  0  0  0  0  0  0  0  0  0
    4.9773   -5.1058   -1.2094 H   0  0  0  0  0  0  0  0  0  0  0  0
    6.3295   -4.8117   -0.2073 H   0  0  0  0  0  0  0  0  0  0  0  0
    6.5325   -2.5732    0.8471 H   0  0  0  0  0  0  0  0  0  0  0  0
    5.1291   -1.6952    1.3823 H   0  0  0  0  0  0  0  0  0  0  0  0
    6.6079   -6.2967    1.9779 H   0  0  0  0  0  0  0  0  0  0  0  0
    7.5742   -5.4702    3.1887 H   0  0  0  0  0  0  0  0  0  0  0  0
    7.3667   -4.7399    1.6357 H   0  0  0  0  0  0  0  0  0  0  0  0
    5.5238   -5.8255    4.7055 H   0  0  0  0  0  0  0  0  0  0  0  0
    6.3507   -4.3141    4.9212 H   0  0  0  0  0  0  0  0  0  0  0  0
    4.3806   -4.1920    6.2383 H   0  0  0  0  0  0  0  0  0  0  0  0
    4.1897   -3.0818    4.9196 H   0  0  0  0  0  0  0  0  0  0  0  0
    2.8254   -5.8144    5.3435 H   0  0  0  0  0  0  0  0  0  0  0  0
    1.7665   -5.6762    3.1617 H   0  0  0  0  0  0  0  0  0  0  0  0
    3.3304   -3.0402    2.6747 H   0  0  0  0  0  0  0  0  0  0  0  0
    4.1344   -6.1481    2.4147 H   0  0  0  0  0  0  0  0  0  0  0  0
    3.1964   -5.8358   -0.3683 H   0  0  0  0  0  0  0  0  0  0  0  0
    1.6956   -6.2504    1.1129 H   0  0  0  0  0  0  0  0  0  0  0  0
    2.6062   -4.1346   -1.8954 H   0  0  0  0  0  0  0  0  0  0  0  0
    1.5092   -3.3582   -0.7948 H   0  0  0  0  0  0  0  0  0  0  0  0
    3.0922   -2.0120    0.1698 H   0  0  0  0  0  0  0  0  0  0  0  0
   -0.5316   -4.3609    4.6985 H   0  0  0  0  0  0  0  0  0  0  0  0
    0.2171   -4.4683    6.3038 H   0  0  0  0  0  0  0  0  0  0  0  0
    0.3790   -5.8049    5.1492 H   0  0  0  0  0  0  0  0  0  0  0  0
    0.6119   -2.2149    4.2486 H   0  0  0  0  0  0  0  0  0  0  0  0
    2.3612   -2.0727    4.3674 H   0  0  0  0  0  0  0  0  0  0  0  0
    1.4027   -2.2775    5.8348 H   0  0  0  0  0  0  0  0  0  0  0  0
  1  2  1  0
  1 26  1  0
  1 27  1  0
  1 28  1  0
  2 22  1  0
  2  3  1  0
  2  4  1  0
  3 29  1  0
  3 30  1  0
  3 31  1  0
  4  5  1  0
  4 32  1  0
  4 33  1  0
  5  6  1  0
  5 34  1  0
  5 35  1  0
  7  6  1  6
  6 36  1  0
  6 37  1  0
 18  7  1  6
  7 22  1  0
  7  8  1  0
  8  9  1  0
  8 38  1  0
  8 39  1  0
  9 10  1  0
 10 17  1  0
 10 11  1  6
 10 12  1  0
 11 40  1  0
 11 41  1  0
 11 42  1  0
 12 13  1  0
 12 43  1  0
 12 44  1  0
 13 14  1  0
 13 45  1  0
 13 46  1  0
 14 23  1  0
 14 15  1  0
 14 47  1  1
 15 16  1  0
 15 23  1  0
 15 48  1  6
 16 18  1  0
 16 17  1  0
 16 49  1  1
 17 18  1  0
 17 50  1  6
 18 19  1  0
 19 20  1  0
 19 21  1  0
 19 51  1  6
 20 52  1  0
 21 22  1  0
 21 53  1  0
 21 54  1  0
 22 55  1  1
 23 24  1  0
 23 25  1  0
 24 56  1  0
 24 57  1  0
 24 58  1  0
 25 59  1  0
 25 60  1  0
 25 61  1  0
M  END
>  <i_m_ct_stereo_status>  (232) 
1

>  <s_m_source_file>  (232) 
/var/tmp/pbs.5076255.sched01/tmp1t990xkq/82z3oanzij.sdf

>  <i_m_source_file_index>  (232) 
15

>  <i_lp_mmshare_version>  (232) 
48012

>  <i_f3d_flags>  (232) 
0

>  <s_epik_input>  (232) 
W0NIMl0xW0NIMl1bQ0gyXUMoW0NIM10pKFtDSDNdKVtDQEhdMltDSDJdW0NASF0oW09IXSlbQ0BAXTMoW0NAQF0xMjQpW0NASF01W0NASF02W0NASF0oQzYoW0NIM10pW0NIM10pW0NIMl1bQ0gyXVtDQEBdKFtDSDNdKShbQ0BIXTM1KU9bQ0gyXTQ=

>  <s_epik_cmdline>  (232) 
J2VwaWtfcHl0aG9uJywgJy1waHQnLCAnMi4wJywgJy1waCcsICc3LjAnLCAnLXRuJywgJzgnLCAnLW1hJywgJzIwMCcsICctaW1hZScsICc8aW5maWxlLm1hZT4nLCAnLW9tYWUnLCAnPG91dGZpbGUubWFlPic=

>  <r_lp_tautomer_probability>  (232) 
1

>  <r_epik_Ionization_Penalty>  (232) 
1.5895e-06

>  <r_epik_Ionization_Penalty_Charging>  (232) 
0

>  <r_epik_Ionization_Penalty_Neutral>  (232) 
1.5895e-06

>  <r_epik_State_Penalty>  (232) 
-0

>  <r_epik_Charging_Adjusted_Penalty>  (232) 
0

>  <i_epik_Tot_Q>  (232) 
0

>  <i_epik_Tot_abs_Q>  (232) 
0

>  <s_lp_Force_Field>  (232) 
OPLS3e

>  <r_lp_Energy>  (232) 
91.9253

>  <b_lp_Chiralities_Consistent>  (232) 
1

>  <s_lp_Variant>  (232) 
64:0-1

>  <s_i_glide_gridfile>  (232) 
pfpi4k_grid

>  <i_i_glide_lignum>  (232) 
15

>  <i_i_glide_rotatable_bonds>  (232) 
1

>  <r_i_docking_score>  (232) 
-3.04922

>  <r_i_glide_ligand_efficiency>  (232) 
-0.121969

>  <r_i_glide_ligand_efficiency_sa>  (232) 
-0.356638

>  <r_i_glide_ligand_efficiency_ln>  (232) 
-0.722755

>  <r_i_glide_gscore>  (232) 
-3.04922

>  <r_i_glide_lipo>  (232) 
-0.566599

>  <r_i_glide_hbond>  (232) 
-0.122741

>  <r_i_glide_metal>  (232) 
-0

>  <r_i_glide_rewards>  (232) 
-1.06002

>  <r_i_glide_evdw>  (232) 
-13.2173

>  <r_i_glide_ecoul>  (232) 
-4.25996

>  <r_i_glide_erotb>  (232) 
0

>  <r_i_glide_esite>  (232) 
0

>  <r_i_glide_emodel>  (232) 
-19.6543

>  <r_i_glide_energy>  (232) 
-17.4773

>  <r_i_glide_einternal>  (232) 
0.34882

>  <r_i_glide_intrahb_reward>  (232) 
-0

>  <i_i_glide_confnum>  (232) 
2

>  <i_i_glide_posenum>  (232) 
36

>  <r_i_glide_eff_state_penalty>  (232) 
0

>  <ligand_id>  (232) 
64

>  <original_smiles>  (232) 
CC1(C)CCCC23COC4(C)CCC5C(C6C4C62C(O)CC13)C5(C)C

>  <smiles>  (232) 
[H]OC1([H])C([H])([H])C2([H])C(C([H])([H])[H])(C([H])([H])[H])C([H])([H])C([H])([H])C([H])([H])C23C([H])([H])OC2(C([H])([H])[H])C([H])([H])C([H])([H])C4([H])C([H])(C5([H])C2([H])C153)C4(C([H])([H])[H])C([H])([H])[H]

$$$$
66:0:0
     RDKit          3D

 55 59  0  0  1  0  0  0  0  0999 V2000
    6.0658   -0.0829    4.2136 C   0  0  0  0  0  0  0  0  0  0  0  0
    5.4050   -1.1372    3.3234 C   0  0  0  0  0  0  0  0  0  0  0  0
    5.9414   -1.4829    1.9689 C   0  0  0  0  0  0  0  0  0  0  0  0
    5.0285   -0.7054    1.3663 C   0  0  0  0  0  0  0  0  0  0  0  0
    4.0308   -1.5491    1.4732 C   0  0  0  0  0  0  0  0  0  0  0  0
    4.1390   -3.1405    2.4529 C   0  0  1  0  0  0  0  0  0  0  0  0
    4.8561   -3.6837    3.8775 C   0  0  0  0  0  0  0  0  0  0  0  0
    2.9218   -2.6892    2.9601 C   0  0  2  0  0  0  0  0  0  0  0  0
    2.3108   -3.1031    1.3749 C   0  0  0  0  0  0  0  0  0  0  0  0
    3.3094   -3.3850   -0.0651 C   0  0  1  0  0  0  0  0  0  0  0  0
    2.3191   -3.7674   -1.1834 C   0  0  0  0  0  0  0  0  0  0  0  0
    4.7322   -2.6028   -0.7037 C   0  0  0  0  0  0  0  0  0  0  0  0
    5.2657   -3.2083   -2.1057 C   0  0  0  0  0  0  0  0  0  0  0  0
    4.3642   -1.2196   -1.3572 C   0  0  0  0  0  0  0  0  0  0  0  0
    6.0013   -2.6047    0.5363 C   0  0  1  0  0  0  0  0  0  0  0  0
    5.4471   -3.8705    0.1171 O   0  0  0  0  0  0  0  0  0  0  0  0
    4.2296   -4.4441    0.3788 C   0  0  2  0  0  0  0  0  0  0  0  0
    4.0610   -5.6721   -0.3159 O   0  0  0  0  0  0  0  0  0  0  0  0
    4.4701   -4.6149    1.8228 C   0  0  2  0  0  0  0  0  0  0  0  0
    3.6498   -5.6617    2.3371 O   0  0  0  0  0  0  0  0  0  0  0  0
    6.0709   -5.0940    1.8734 C   0  0  1  0  0  0  0  0  0  0  0  0
    6.7764   -5.7477    3.1090 C   0  0  0  0  0  0  0  0  0  0  0  0
    6.2702   -6.2270    1.0369 O   0  0  0  0  0  0  0  0  0  0  0  0
    6.8469   -3.8366    1.1752 C   0  0  1  0  0  0  0  0  0  0  0  0
    7.9666   -4.1943    0.3751 O   0  0  0  0  0  0  0  0  0  0  0  0
    3.7765   -1.4057    3.8285 C   0  0  0  0  0  0  0  0  0  0  0  0
    3.2184   -0.8480    4.7471 O   0  0  0  0  0  0  0  0  0  0  0  0
    6.4646   -0.5468    5.1162 H   0  0  0  0  0  0  0  0  0  0  0  0
    5.3819    0.6903    4.5590 H   0  0  0  0  0  0  0  0  0  0  0  0
    6.8964    0.3826    3.6840 H   0  0  0  0  0  0  0  0  0  0  0  0
    5.0761    0.2715    0.9144 H   0  0  0  0  0  0  0  0  0  0  0  0
    3.1300   -1.0507    1.1592 H   0  0  0  0  0  0  0  0  0  0  0  0
    4.7590   -4.7362    4.1048 H   0  0  0  0  0  0  0  0  0  0  0  0
    4.4798   -3.3947    4.8644 H   0  0  0  0  0  0  0  0  0  0  0  0
    5.8972   -3.4264    3.9139 H   0  0  0  0  0  0  0  0  0  0  0  0
    2.4773   -3.3602    3.6987 H   0  0  0  0  0  0  0  0  0  0  0  0
    1.7945   -4.0351    1.5580 H   0  0  0  0  0  0  0  0  0  0  0  0
    1.5270   -2.3769    1.1413 H   0  0  0  0  0  0  0  0  0  0  0  0
    2.8105   -4.1688   -2.0551 H   0  0  0  0  0  0  0  0  0  0  0  0
    1.7997   -2.8893   -1.5611 H   0  0  0  0  0  0  0  0  0  0  0  0
    1.5649   -4.4924   -0.8660 H   0  0  0  0  0  0  0  0  0  0  0  0
    6.1338   -2.6501   -2.4558 H   0  0  0  0  0  0  0  0  0  0  0  0
    4.5328   -3.1809   -2.9091 H   0  0  0  0  0  0  0  0  0  0  0  0
    5.5892   -4.2532   -2.0802 H   0  0  0  0  0  0  0  0  0  0  0  0
    5.2565   -0.6059   -1.5029 H   0  0  0  0  0  0  0  0  0  0  0  0
    3.6285   -0.6559   -0.8026 H   0  0  0  0  0  0  0  0  0  0  0  0
    3.8752   -1.3065   -2.3301 H   0  0  0  0  0  0  0  0  0  0  0  0
    3.7564   -5.4862   -1.1936 H   0  0  0  0  0  0  0  0  0  0  0  0
    3.8137   -6.4104    1.7849 H   0  0  0  0  0  0  0  0  0  0  0  0
    7.0771   -5.0723    3.9041 H   0  0  0  0  0  0  0  0  0  0  0  0
    7.7107   -6.2450    2.8266 H   0  0  0  0  0  0  0  0  0  0  0  0
    6.1538   -6.5124    3.5788 H   0  0  0  0  0  0  0  0  0  0  0  0
    5.8067   -6.0360    0.2301 H   0  0  0  0  0  0  0  0  0  0  0  0
    7.3433   -3.4167    2.0249 H   0  0  0  0  0  0  0  0  0  0  0  0
    8.4653   -4.8370    0.8536 H   0  0  0  0  0  0  0  0  0  0  0  0
  1  2  1  0
  1 28  1  0
  1 29  1  0
  1 30  1  0
  2 26  1  0
  2  3  2  0
  3 15  1  0
  3  4  1  0
  4  5  2  0
  4 31  1  0
  5  6  1  0
  5 32  1  0
  6 19  1  0
  6  7  1  1
  6  8  1  0
  7 33  1  0
  7 34  1  0
  7 35  1  0
  8  9  1  0
  8 26  1  0
  8 36  1  1
  9 10  1  0
  9 37  1  0
  9 38  1  0
 10 17  1  0
 10 11  1  6
 10 12  1  0
 11 39  1  0
 11 40  1  0
 11 41  1  0
 12 13  1  0
 12 14  1  0
 15 12  1  1
 13 42  1  0
 13 43  1  0
 13 44  1  0
 14 45  1  0
 14 46  1  0
 14 47  1  0
 15 24  1  0
 15 16  1  0
 16 17  1  0
 17 18  1  6
 17 19  1  0
 18 48  1  0
 19 20  1  1
 19 21  1  0
 20 49  1  0
 21 22  1  0
 21 23  1  6
 21 24  1  0
 22 50  1  0
 22 51  1  0
 22 52  1  0
 23 53  1  0
 24 25  1  0
 24 54  1  1
 25 55  1  0
 26 27  2  0
M  END
>  <i_m_ct_stereo_status>  (233) 
1

>  <s_m_source_file>  (233) 
/var/tmp/pbs.5076255.sched01/tmp1t990xkq/82z3oanzij.sdf

>  <i_m_source_file_index>  (233) 
17

>  <i_lp_mmshare_version>  (233) 
48012

>  <i_f3d_flags>  (233) 
0

>  <s_epik_input>  (233) 
W0NAQF0xMjNDND1DKFtDSDNdKUMoPU8pW0NAQEhdNVtDQF0oW0NIM10pKFtDSF09W0NIXTQpW0NAXShbT0hdKShbQ0BAXShbQ0gzXSkoW09IXSlbQ0BIXTNbT0hdKVtDQEBdKE8yKShbT0hdKVtDQF0oW0NIMl01KShbQ0gzXSlDMShbQ0gzXSlbQ0gzXQ==

>  <s_epik_cmdline>  (233) 
J2VwaWtfcHl0aG9uJywgJy1waHQnLCAnMi4wJywgJy1waCcsICc3LjAnLCAnLXRuJywgJzgnLCAnLW1hJywgJzIwMCcsICctaW1hZScsICc8aW5maWxlLm1hZT4nLCAnLW9tYWUnLCAnPG91dGZpbGUubWFlPic=

>  <r_lp_tautomer_probability>  (233) 
1

>  <r_epik_Ionization_Penalty>  (233) 
1.62493e-05

>  <r_epik_Ionization_Penalty_Charging>  (233) 
0

>  <r_epik_Ionization_Penalty_Neutral>  (233) 
1.62493e-05

>  <r_epik_State_Penalty>  (233) 
-0

>  <r_epik_Charging_Adjusted_Penalty>  (233) 
0

>  <i_epik_Tot_Q>  (233) 
0

>  <i_epik_Tot_abs_Q>  (233) 
0

>  <s_lp_Force_Field>  (233) 
OPLS3e

>  <r_lp_Energy>  (233) 
887.483

>  <b_lp_Chiralities_Consistent>  (233) 
1

>  <s_lp_Variant>  (233) 
66:0-1

>  <s_i_glide_gridfile>  (233) 
pfpi4k_grid

>  <i_i_glide_lignum>  (233) 
17

>  <i_i_glide_rotatable_bonds>  (233) 
4

>  <r_i_docking_score>  (233) 
-3.34141

>  <r_i_glide_ligand_efficiency>  (233) 
-0.123756

>  <r_i_glide_ligand_efficiency_sa>  (233) 
-0.371268

>  <r_i_glide_ligand_efficiency_ln>  (233) 
-0.777826

>  <r_i_glide_gscore>  (233) 
-3.34141

>  <r_i_glide_lipo>  (233) 
-0.875769

>  <r_i_glide_hbond>  (233) 
0

>  <r_i_glide_metal>  (233) 
-0

>  <r_i_glide_rewards>  (233) 
-0.888277

>  <r_i_glide_evdw>  (233) 
-13.7882

>  <r_i_glide_ecoul>  (233) 
-5.91969

>  <r_i_glide_erotb>  (233) 
0

>  <r_i_glide_esite>  (233) 
0

>  <r_i_glide_emodel>  (233) 
-21.2627

>  <r_i_glide_energy>  (233) 
-19.7079

>  <r_i_glide_einternal>  (233) 
0.582513

>  <r_i_glide_intrahb_reward>  (233) 
-0

>  <i_i_glide_confnum>  (233) 
1

>  <i_i_glide_posenum>  (233) 
16

>  <r_i_glide_eff_state_penalty>  (233) 
0

>  <ligand_id>  (233) 
66

>  <original_smiles>  (233) 
CC1=C2C=CC3(C)C(CC4(C)C(C)(C)C25OC4(O)C3(O)C(C)(O)C5O)C1=O

>  <smiles>  (233) 
[H]OC1([H])C23OC4(O[H])C(O[H])(C1(O[H])C([H])([H])[H])C1(C([H])([H])[H])C([H])=C([H])C2=C(C([H])([H])[H])C(=O)C1([H])C([H])([H])C4(C([H])([H])[H])C3(C([H])([H])[H])C([H])([H])[H]

$$$$
66:0:1
     RDKit          3D

 55 59  0  0  1  0  0  0  0  0999 V2000
    5.8619   -0.1278    4.3022 C   0  0  0  0  0  0  0  0  0  0  0  0
    5.2734   -1.1170    3.3125 C   0  0  0  0  0  0  0  0  0  0  0  0
    5.9208   -1.3548    1.9786 C   0  0  0  0  0  0  0  0  0  0  0  0
    5.0397   -0.5621    1.3463 C   0  0  0  0  0  0  0  0  0  0  0  0
    4.0420   -1.4107    1.3398 C   0  0  0  0  0  0  0  0  0  0  0  0
    4.1037   -3.0603    2.2201 C   0  0  1  0  0  0  0  0  0  0  0  0
    4.7457   -3.6902    3.6555 C   0  0  0  0  0  0  0  0  0  0  0  0
    2.8387   -2.6605    2.6662 C   0  0  2  0  0  0  0  0  0  0  0  0
    2.3592   -2.9930    1.0063 C   0  0  0  0  0  0  0  0  0  0  0  0
    3.4646   -3.1556   -0.3736 C   0  0  1  0  0  0  0  0  0  0  0  0
    2.5747   -3.4541   -1.6105 C   0  0  0  0  0  0  0  0  0  0  0  0
    4.9296   -2.3262   -0.8465 C   0  0  0  0  0  0  0  0  0  0  0  0
    5.5668   -2.8407   -2.2489 C   0  0  0  0  0  0  0  0  0  0  0  0
    4.5828   -0.9086   -1.4407 C   0  0  0  0  0  0  0  0  0  0  0  0
    6.1061   -2.3866    0.4970 C   0  0  1  0  0  0  0  0  0  0  0  0
    5.5830   -3.6195   -0.0505 O   0  0  0  0  0  0  0  0  0  0  0  0
    4.3637   -4.2247    0.0995 C   0  0  2  0  0  0  0  0  0  0  0  0
    4.2471   -5.4096   -0.6428 O   0  0  0  0  0  0  0  0  0  0  0  0
    4.5077   -4.4941    1.5386 C   0  0  2  0  0  0  0  0  0  0  0  0
    3.6628   -5.5865    1.9233 O   0  0  0  0  0  0  0  0  0  0  0  0
    6.1113   -4.9569    1.6727 C   0  0  1  0  0  0  0  0  0  0  0  0
    6.7293   -5.6938    2.9206 C   0  0  0  0  0  0  0  0  0  0  0  0
    6.4196   -6.0443    0.8070 O   0  0  0  0  0  0  0  0  0  0  0  0
    6.9202   -3.6471    1.1239 C   0  0  1  0  0  0  0  0  0  0  0  0
    8.0997   -3.9364    0.3854 O   0  0  0  0  0  0  0  0  0  0  0  0
    3.6186   -1.4312    3.6670 C   0  0  0  0  0  0  0  0  0  0  0  0
    2.9884   -0.9205    4.6004 O   0  0  0  0  0  0  0  0  0  0  0  0
    6.2269   -0.6598    5.1789 H   0  0  0  0  0  0  0  0  0  0  0  0
    5.1451    0.6162    4.6475 H   0  0  0  0  0  0  0  0  0  0  0  0
    6.7030    0.3936    3.8440 H   0  0  0  0  0  0  0  0  0  0  0  0
    5.1057    0.4439    0.9621 H   0  0  0  0  0  0  0  0  0  0  0  0
    3.1508   -0.9038    0.9692 H   0  0  0  0  0  0  0  0  0  0  0  0
    4.6295   -4.7579    3.8248 H   0  0  0  0  0  0  0  0  0  0  0  0
    4.2878   -3.4712    4.6244 H   0  0  0  0  0  0  0  0  0  0  0  0
    5.7931   -3.4424    3.7875 H   0  0  0  0  0  0  0  0  0  0  0  0
    2.3517   -3.3834    3.3223 H   0  0  0  0  0  0  0  0  0  0  0  0
    1.8731   -3.9711    1.0667 H   0  0  0  0  0  0  0  0  0  0  0  0
    1.5685   -2.2740    0.7753 H   0  0  0  0  0  0  0  0  0  0  0  0
    3.1234   -3.8370   -2.4680 H   0  0  0  0  0  0  0  0  0  0  0  0
    2.0404   -2.5588   -1.9439 H   0  0  0  0  0  0  0  0  0  0  0  0
    1.8134   -4.1970   -1.3784 H   0  0  0  0  0  0  0  0  0  0  0  0
    6.4565   -2.2583   -2.4880 H   0  0  0  0  0  0  0  0  0  0  0  0
    4.8941   -2.7656   -3.1054 H   0  0  0  0  0  0  0  0  0  0  0  0
    5.8981   -3.8833   -2.2597 H   0  0  0  0  0  0  0  0  0  0  0  0
    5.4738   -0.2821   -1.4834 H   0  0  0  0  0  0  0  0  0  0  0  0
    3.8188   -0.3582   -0.9050 H   0  0  0  0  0  0  0  0  0  0  0  0
    4.1620   -0.9364   -2.4483 H   0  0  0  0  0  0  0  0  0  0  0  0
    3.8110   -5.2115   -1.4649 H   0  0  0  0  0  0  0  0  0  0  0  0
    3.8539   -6.2989    1.3346 H   0  0  0  0  0  0  0  0  0  0  0  0
    6.9814   -5.1045    3.7845 H   0  0  0  0  0  0  0  0  0  0  0  0
    7.6905   -6.1639    2.6754 H   0  0  0  0  0  0  0  0  0  0  0  0
    6.0719   -6.4913    3.2874 H   0  0  0  0  0  0  0  0  0  0  0  0
    5.9110   -6.7935    1.0668 H   0  0  0  0  0  0  0  0  0  0  0  0
    7.3475   -3.2711    2.0313 H   0  0  0  0  0  0  0  0  0  0  0  0
    8.4956   -4.6985    0.7725 H   0  0  0  0  0  0  0  0  0  0  0  0
  1  2  1  0
  1 28  1  0
  1 29  1  0
  1 30  1  0
  2 26  1  0
  2  3  2  0
  3 15  1  0
  3  4  1  0
  4  5  2  0
  4 31  1  0
  5  6  1  0
  5 32  1  0
  6 19  1  0
  6  7  1  1
  6  8  1  0
  7 33  1  0
  7 34  1  0
  7 35  1  0
  8  9  1  0
  8 26  1  0
  8 36  1  1
  9 10  1  0
  9 37  1  0
  9 38  1  0
 10 17  1  0
 10 11  1  6
 10 12  1  0
 11 39  1  0
 11 40  1  0
 11 41  1  0
 12 13  1  0
 12 14  1  0
 15 12  1  1
 13 42  1  0
 13 43  1  0
 13 44  1  0
 14 45  1  0
 14 46  1  0
 14 47  1  0
 15 24  1  0
 15 16  1  0
 16 17  1  0
 17 18  1  6
 17 19  1  0
 18 48  1  0
 19 20  1  1
 19 21  1  0
 20 49  1  0
 21 22  1  0
 21 23  1  6
 21 24  1  0
 22 50  1  0
 22 51  1  0
 22 52  1  0
 23 53  1  0
 24 25  1  0
 24 54  1  1
 25 55  1  0
 26 27  2  0
M  END
>  <i_m_ct_stereo_status>  (234) 
1

>  <s_m_source_file>  (234) 
/var/tmp/pbs.5076255.sched01/tmp1t990xkq/82z3oanzij.sdf

>  <i_m_source_file_index>  (234) 
17

>  <i_lp_mmshare_version>  (234) 
48012

>  <i_f3d_flags>  (234) 
0

>  <s_epik_input>  (234) 
W0NAQF0xMjNDND1DKFtDSDNdKUMoPU8pW0NAQEhdNVtDQF0oW0NIM10pKFtDSF09W0NIXTQpW0NAXShbT0hdKShbQ0BAXShbQ0gzXSkoW09IXSlbQ0BIXTNbT0hdKVtDQEBdKE8yKShbT0hdKVtDQF0oW0NIMl01KShbQ0gzXSlDMShbQ0gzXSlbQ0gzXQ==

>  <s_epik_cmdline>  (234) 
J2VwaWtfcHl0aG9uJywgJy1waHQnLCAnMi4wJywgJy1waCcsICc3LjAnLCAnLXRuJywgJzgnLCAnLW1hJywgJzIwMCcsICctaW1hZScsICc8aW5maWxlLm1hZT4nLCAnLW9tYWUnLCAnPG91dGZpbGUubWFlPic=

>  <r_lp_tautomer_probability>  (234) 
1

>  <r_epik_Ionization_Penalty>  (234) 
1.62493e-05

>  <r_epik_Ionization_Penalty_Charging>  (234) 
0

>  <r_epik_Ionization_Penalty_Neutral>  (234) 
1.62493e-05

>  <r_epik_State_Penalty>  (234) 
-0

>  <r_epik_Charging_Adjusted_Penalty>  (234) 
0

>  <i_epik_Tot_Q>  (234) 
0

>  <i_epik_Tot_abs_Q>  (234) 
0

>  <s_lp_Force_Field>  (234) 
OPLS3e

>  <r_lp_Energy>  (234) 
887.483

>  <b_lp_Chiralities_Consistent>  (234) 
1

>  <s_lp_Variant>  (234) 
66:0-1

>  <s_i_glide_gridfile>  (234) 
pfpi4k_grid

>  <i_i_glide_lignum>  (234) 
17

>  <i_i_glide_rotatable_bonds>  (234) 
4

>  <r_i_docking_score>  (234) 
-3.32792

>  <r_i_glide_ligand_efficiency>  (234) 
-0.123256

>  <r_i_glide_ligand_efficiency_sa>  (234) 
-0.369769

>  <r_i_glide_ligand_efficiency_ln>  (234) 
-0.774686

>  <r_i_glide_gscore>  (234) 
-3.32792

>  <r_i_glide_lipo>  (234) 
-0.989783

>  <r_i_glide_hbond>  (234) 
0

>  <r_i_glide_metal>  (234) 
-0

>  <r_i_glide_rewards>  (234) 
-0.857721

>  <r_i_glide_evdw>  (234) 
-13.7312

>  <r_i_glide_ecoul>  (234) 
-5.29239

>  <r_i_glide_erotb>  (234) 
0

>  <r_i_glide_esite>  (234) 
0

>  <r_i_glide_emodel>  (234) 
-20.0305

>  <r_i_glide_energy>  (234) 
-19.0236

>  <r_i_glide_einternal>  (234) 
1.09857

>  <r_i_glide_intrahb_reward>  (234) 
-0

>  <i_i_glide_confnum>  (234) 
1

>  <i_i_glide_posenum>  (234) 
1

>  <r_i_glide_eff_state_penalty>  (234) 
0

>  <ligand_id>  (234) 
66

>  <original_smiles>  (234) 
CC1=C2C=CC3(C)C(CC4(C)C(C)(C)C25OC4(O)C3(O)C(C)(O)C5O)C1=O

>  <smiles>  (234) 
[H]OC1([H])C23OC4(O[H])C(O[H])(C1(O[H])C([H])([H])[H])C1(C([H])([H])[H])C([H])=C([H])C2=C(C([H])([H])[H])C(=O)C1([H])C([H])([H])C4(C([H])([H])[H])C3(C([H])([H])[H])C([H])([H])[H]

$$$$
66:0:2
     RDKit          3D

 55 59  0  0  1  0  0  0  0  0999 V2000
    1.5332   -5.3473    3.0974 C   0  0  0  0  0  0  0  0  0  0  0  0
    2.6087   -4.7392    2.2193 C   0  0  0  0  0  0  0  0  0  0  0  0
    2.3089   -3.5712    1.3373 C   0  0  0  0  0  0  0  0  0  0  0  0
    2.2169   -4.3669    0.2492 C   0  0  0  0  0  0  0  0  0  0  0  0
    3.5106   -4.4904    0.0781 C   0  0  0  0  0  0  0  0  0  0  0  0
    4.7749   -3.8399    1.2811 C   0  0  1  0  0  0  0  0  0  0  0  0
    4.9255   -3.6794    2.9466 C   0  0  0  0  0  0  0  0  0  0  0  0
    5.3156   -5.1091    1.1065 C   0  0  2  0  0  0  0  0  0  0  0  0
    5.7717   -4.4874   -0.4704 C   0  0  0  0  0  0  0  0  0  0  0  0
    5.0641   -3.0638   -1.2601 C   0  0  1  0  0  0  0  0  0  0  0  0
    5.8060   -2.9015   -2.6050 C   0  0  0  0  0  0  0  0  0  0  0  0
    3.4669   -2.3939   -1.3299 C   0  0  0  0  0  0  0  0  0  0  0  0
    3.3894   -1.0591   -2.2551 C   0  0  0  0  0  0  0  0  0  0  0  0
    2.5600   -3.1675   -2.3380 C   0  0  0  0  0  0  0  0  0  0  0  0
    2.8425   -2.1816    0.3331 C   0  0  1  0  0  0  0  0  0  0  0  0
    4.0491   -1.5182   -0.0652 O   0  0  0  0  0  0  0  0  0  0  0  0
    5.2974   -2.0291   -0.2619 C   0  0  2  0  0  0  0  0  0  0  0  0
    6.2078   -1.0635   -0.6831 O   0  0  0  0  0  0  0  0  0  0  0  0
    5.5197   -2.4062    1.1313 C   0  0  2  0  0  0  0  0  0  0  0  0
    6.9203   -2.4830    1.3248 O   0  0  0  0  0  0  0  0  0  0  0  0
    4.8322   -1.1432    1.9913 C   0  0  1  0  0  0  0  0  0  0  0  0
    5.0467   -0.8357    3.5203 C   0  0  0  0  0  0  0  0  0  0  0  0
    5.3458    0.0959    1.5202 O   0  0  0  0  0  0  0  0  0  0  0  0
    3.2740   -1.1654    1.5210 C   0  0  1  0  0  0  0  0  0  0  0  0
    2.7380    0.1380    1.3266 O   0  0  0  0  0  0  0  0  0  0  0  0
    3.9450   -5.8017    1.9926 C   0  0  0  0  0  0  0  0  0  0  0  0
    4.0268   -6.9361    2.4148 O   0  0  0  0  0  0  0  0  0  0  0  0
    1.7434   -5.1524    4.1466 H   0  0  0  0  0  0  0  0  0  0  0  0
    1.4567   -6.4259    2.9483 H   0  0  0  0  0  0  0  0  0  0  0  0
    0.5663   -4.9132    2.8625 H   0  0  0  0  0  0  0  0  0  0  0  0
    1.4159   -4.7523   -0.3550 H   0  0  0  0  0  0  0  0  0  0  0  0
    3.6720   -5.2137   -0.7017 H   0  0  0  0  0  0  0  0  0  0  0  0
    5.8175   -3.1683    3.2866 H   0  0  0  0  0  0  0  0  0  0  0  0
    5.1128   -4.5430    3.5925 H   0  0  0  0  0  0  0  0  0  0  0  0
    4.0587   -3.2072    3.3959 H   0  0  0  0  0  0  0  0  0  0  0  0
    6.2266   -5.2951    1.6851 H   0  0  0  0  0  0  0  0  0  0  0  0
    6.8462   -4.3429   -0.4537 H   0  0  0  0  0  0  0  0  0  0  0  0
    5.6366   -5.3278   -1.1310 H   0  0  0  0  0  0  0  0  0  0  0  0
    5.6481   -1.9217   -3.0412 H   0  0  0  0  0  0  0  0  0  0  0  0
    5.4527   -3.6275   -3.3397 H   0  0  0  0  0  0  0  0  0  0  0  0
    6.8863   -3.0445   -2.5113 H   0  0  0  0  0  0  0  0  0  0  0  0
    2.3646   -0.6970   -2.3204 H   0  0  0  0  0  0  0  0  0  0  0  0
    3.7056   -1.1608   -3.2937 H   0  0  0  0  0  0  0  0  0  0  0  0
    3.9860   -0.2319   -1.8931 H   0  0  0  0  0  0  0  0  0  0  0  0
    1.5054   -2.9281   -2.2015 H   0  0  0  0  0  0  0  0  0  0  0  0
    2.6619   -4.2535   -2.2679 H   0  0  0  0  0  0  0  0  0  0  0  0
    2.7896   -2.9896   -3.3953 H   0  0  0  0  0  0  0  0  0  0  0  0
    6.2083   -0.4433    0.0460 H   0  0  0  0  0  0  0  0  0  0  0  0
    7.2815   -3.0860    0.7020 H   0  0  0  0  0  0  0  0  0  0  0  0
    4.4602   -1.4233    4.2281 H   0  0  0  0  0  0  0  0  0  0  0  0
    4.7844    0.1951    3.7803 H   0  0  0  0  0  0  0  0  0  0  0  0
    6.0961   -0.9347    3.7963 H   0  0  0  0  0  0  0  0  0  0  0  0
    4.6009    0.6861    1.5434 H   0  0  0  0  0  0  0  0  0  0  0  0
    2.7251   -1.4830    2.4066 H   0  0  0  0  0  0  0  0  0  0  0  0
    1.9030    0.0219    0.8930 H   0  0  0  0  0  0  0  0  0  0  0  0
  1  2  1  0
  1 28  1  0
  1 29  1  0
  1 30  1  0
  2 26  1  0
  2  3  2  0
  3 15  1  0
  3  4  1  0
  4  5  2  0
  4 31  1  0
  5  6  1  0
  5 32  1  0
  6 19  1  0
  6  7  1  1
  6  8  1  0
  7 33  1  0
  7 34  1  0
  7 35  1  0
  8  9  1  0
  8 26  1  0
  8 36  1  1
  9 10  1  0
  9 37  1  0
  9 38  1  0
 10 17  1  0
 10 11  1  6
 10 12  1  0
 11 39  1  0
 11 40  1  0
 11 41  1  0
 12 13  1  0
 12 14  1  0
 15 12  1  1
 13 42  1  0
 13 43  1  0
 13 44  1  0
 14 45  1  0
 14 46  1  0
 14 47  1  0
 15 24  1  0
 15 16  1  0
 16 17  1  0
 17 18  1  6
 17 19  1  0
 18 48  1  0
 19 20  1  6
 19 21  1  0
 20 49  1  0
 21 22  1  0
 21 23  1  6
 21 24  1  0
 22 50  1  0
 22 51  1  0
 22 52  1  0
 23 53  1  0
 24 25  1  0
 24 54  1  1
 25 55  1  0
 26 27  2  0
M  END
>  <i_m_ct_stereo_status>  (235) 
1

>  <s_m_source_file>  (235) 
/var/tmp/pbs.5076255.sched01/tmp1t990xkq/82z3oanzij.sdf

>  <i_m_source_file_index>  (235) 
17

>  <i_lp_mmshare_version>  (235) 
48012

>  <i_f3d_flags>  (235) 
0

>  <s_epik_input>  (235) 
W0NAQF0xMjNDND1DKFtDSDNdKUMoPU8pW0NAQEhdNVtDQF0oW0NIM10pKFtDSF09W0NIXTQpW0NAXShbT0hdKShbQ0BAXShbQ0gzXSkoW09IXSlbQ0BIXTNbT0hdKVtDQEBdKE8yKShbT0hdKVtDQF0oW0NIMl01KShbQ0gzXSlDMShbQ0gzXSlbQ0gzXQ==

>  <s_epik_cmdline>  (235) 
J2VwaWtfcHl0aG9uJywgJy1waHQnLCAnMi4wJywgJy1waCcsICc3LjAnLCAnLXRuJywgJzgnLCAnLW1hJywgJzIwMCcsICctaW1hZScsICc8aW5maWxlLm1hZT4nLCAnLW9tYWUnLCAnPG91dGZpbGUubWFlPic=

>  <r_lp_tautomer_probability>  (235) 
1

>  <r_epik_Ionization_Penalty>  (235) 
1.62493e-05

>  <r_epik_Ionization_Penalty_Charging>  (235) 
0

>  <r_epik_Ionization_Penalty_Neutral>  (235) 
1.62493e-05

>  <r_epik_State_Penalty>  (235) 
-0

>  <r_epik_Charging_Adjusted_Penalty>  (235) 
0

>  <i_epik_Tot_Q>  (235) 
0

>  <i_epik_Tot_abs_Q>  (235) 
0

>  <s_lp_Force_Field>  (235) 
OPLS3e

>  <r_lp_Energy>  (235) 
887.483

>  <b_lp_Chiralities_Consistent>  (235) 
1

>  <s_lp_Variant>  (235) 
66:0-1

>  <s_i_glide_gridfile>  (235) 
pfpi4k_grid

>  <i_i_glide_lignum>  (235) 
17

>  <i_i_glide_rotatable_bonds>  (235) 
4

>  <r_i_docking_score>  (235) 
-3.28473

>  <r_i_glide_ligand_efficiency>  (235) 
-0.121657

>  <r_i_glide_ligand_efficiency_sa>  (235) 
-0.364971

>  <r_i_glide_ligand_efficiency_ln>  (235) 
-0.764632

>  <r_i_glide_gscore>  (235) 
-3.28473

>  <r_i_glide_lipo>  (235) 
-0.663224

>  <r_i_glide_hbond>  (235) 
0

>  <r_i_glide_metal>  (235) 
-0

>  <r_i_glide_rewards>  (235) 
-1.36382

>  <r_i_glide_evdw>  (235) 
-5.54812

>  <r_i_glide_ecoul>  (235) 
-6.47203

>  <r_i_glide_erotb>  (235) 
0

>  <r_i_glide_esite>  (235) 
-0.00947696

>  <r_i_glide_emodel>  (235) 
-17.4594

>  <r_i_glide_energy>  (235) 
-12.0201

>  <r_i_glide_einternal>  (235) 
1.47837

>  <r_i_glide_intrahb_reward>  (235) 
-0.5

>  <i_i_glide_confnum>  (235) 
1

>  <i_i_glide_posenum>  (235) 
25

>  <r_i_glide_eff_state_penalty>  (235) 
0

>  <ligand_id>  (235) 
66

>  <original_smiles>  (235) 
CC1=C2C=CC3(C)C(CC4(C)C(C)(C)C25OC4(O)C3(O)C(C)(O)C5O)C1=O

>  <smiles>  (235) 
[H]OC1([H])C23OC4(O[H])C(O[H])(C1(O[H])C([H])([H])[H])C1(C([H])([H])[H])C([H])=C([H])C2=C(C([H])([H])[H])C(=O)C1([H])C([H])([H])C4(C([H])([H])[H])C3(C([H])([H])[H])C([H])([H])[H]

$$$$
67:0:0
     RDKit          3D

 31 32  0  0  1  0  0  0  0  0999 V2000
    5.2084   -0.1490    0.7761 C   0  0  0  0  0  0  0  0  0  0  0  0
    4.2115   -1.2354    0.3326 C   0  0  0  0  0  0  0  0  0  0  0  0
    3.0229   -1.2804    1.3039 C   0  0  0  0  0  0  0  0  0  0  0  0
    4.8511   -2.6382   -0.0045 C   0  0  1  0  0  0  0  0  0  0  0  0
    5.6942   -3.0672    1.2379 C   0  0  0  0  0  0  0  0  0  0  0  0
    3.9013   -3.7046   -0.6724 C   0  0  1  0  0  0  0  0  0  0  0  0
    3.0076   -4.5902    0.2055 C   0  0  0  0  0  0  0  0  0  0  0  0
    3.1893   -3.0845   -1.8892 C   0  0  0  0  0  0  0  0  0  0  0  0
    4.4334   -2.4300   -2.4531 C   0  0  0  0  0  0  0  0  0  0  0  0
    4.4680   -1.7777   -3.4975 O   0  0  0  0  0  0  0  0  0  0  0  0
    5.4488   -2.8392   -1.4341 C   0  0  1  0  0  0  0  0  0  0  0  0
    6.7676   -2.4051   -1.7014 O   0  0  0  0  0  0  0  0  0  0  0  0
    5.1932   -4.3276   -1.2175 C   0  0  0  0  0  0  0  0  0  0  0  0
    5.6308   -0.3223    1.7651 H   0  0  0  0  0  0  0  0  0  0  0  0
    4.6895    0.8111    0.8354 H   0  0  0  0  0  0  0  0  0  0  0  0
    6.0261   -0.0470    0.0633 H   0  0  0  0  0  0  0  0  0  0  0  0
    3.7786   -0.8098   -0.5698 H   0  0  0  0  0  0  0  0  0  0  0  0
    3.3169   -1.5776    2.3105 H   0  0  0  0  0  0  0  0  0  0  0  0
    2.2345   -1.9413    0.9491 H   0  0  0  0  0  0  0  0  0  0  0  0
    2.5546   -0.2936    1.3668 H   0  0  0  0  0  0  0  0  0  0  0  0
    6.3604   -3.9133    1.0844 H   0  0  0  0  0  0  0  0  0  0  0  0
    5.0486   -3.3240    2.0772 H   0  0  0  0  0  0  0  0  0  0  0  0
    6.3877   -2.3002    1.5689 H   0  0  0  0  0  0  0  0  0  0  0  0
    2.5895   -5.4335   -0.3440 H   0  0  0  0  0  0  0  0  0  0  0  0
    2.1770   -4.0423    0.6409 H   0  0  0  0  0  0  0  0  0  0  0  0
    3.5804   -5.0119    1.0349 H   0  0  0  0  0  0  0  0  0  0  0  0
    2.7851   -3.8253   -2.5827 H   0  0  0  0  0  0  0  0  0  0  0  0
    2.4275   -2.3510   -1.6167 H   0  0  0  0  0  0  0  0  0  0  0  0
    7.0783   -2.9175   -2.4357 H   0  0  0  0  0  0  0  0  0  0  0  0
    5.8132   -4.9108   -0.5415 H   0  0  0  0  0  0  0  0  0  0  0  0
    5.0295   -4.9106   -2.1216 H   0  0  0  0  0  0  0  0  0  0  0  0
  1  2  1  0
  1 14  1  0
  1 15  1  0
  1 16  1  0
  2  3  1  0
  4  2  1  1
  2 17  1  0
  3 18  1  0
  3 19  1  0
  3 20  1  0
  4 11  1  0
  4  5  1  0
  4  6  1  0
  5 21  1  0
  5 22  1  0
  5 23  1  0
  6 13  1  0
  6  7  1  1
  6  8  1  0
  7 24  1  0
  7 25  1  0
  7 26  1  0
  8  9  1  0
  8 27  1  0
  8 28  1  0
  9 10  2  0
  9 11  1  0
 11 12  1  1
 11 13  1  0
 12 29  1  0
 13 30  1  0
 13 31  1  0
M  END
>  <i_m_ct_stereo_status>  (236) 
1

>  <s_m_source_file>  (236) 
/var/tmp/pbs.5076255.sched01/tmp1t990xkq/82z3oanzij.sdf

>  <i_m_source_file_index>  (236) 
18

>  <i_lp_mmshare_version>  (236) 
48012

>  <i_f3d_flags>  (236) 
0

>  <s_epik_input>  (236) 
W0NIM11bQ0hdKFtDSDNdKVtDQEBdKFtDSDNdKShbQ0BAXTEyW0NIM10pW0NAQF0oW09IXSkoW0NIMl0yKUMoPU8pW0NIMl0x

>  <s_epik_cmdline>  (236) 
J2VwaWtfcHl0aG9uJywgJy1waHQnLCAnMi4wJywgJy1waCcsICc3LjAnLCAnLXRuJywgJzgnLCAnLW1hJywgJzIwMCcsICctaW1hZScsICc8aW5maWxlLm1hZT4nLCAnLW9tYWUnLCAnPG91dGZpbGUubWFlPic=

>  <r_lp_tautomer_probability>  (236) 
1

>  <r_epik_Ionization_Penalty>  (236) 
2.55791e-08

>  <r_epik_Ionization_Penalty_Charging>  (236) 
0

>  <r_epik_Ionization_Penalty_Neutral>  (236) 
2.55791e-08

>  <r_epik_State_Penalty>  (236) 
-0

>  <r_epik_Charging_Adjusted_Penalty>  (236) 
0

>  <i_epik_Tot_Q>  (236) 
0

>  <i_epik_Tot_abs_Q>  (236) 
0

>  <s_lp_Force_Field>  (236) 
OPLS3e

>  <r_lp_Energy>  (236) 
36.154

>  <b_lp_Chiralities_Consistent>  (236) 
1

>  <s_lp_Variant>  (236) 
67:0-1

>  <s_i_glide_gridfile>  (236) 
pfpi4k_grid

>  <i_i_glide_lignum>  (236) 
18

>  <i_i_glide_rotatable_bonds>  (236) 
2

>  <r_i_docking_score>  (236) 
-4.10665

>  <r_i_glide_ligand_efficiency>  (236) 
-0.315896

>  <r_i_glide_ligand_efficiency_sa>  (236) 
-0.742777

>  <r_i_glide_ligand_efficiency_ln>  (236) 
-1.15195

>  <r_i_glide_gscore>  (236) 
-4.10665

>  <r_i_glide_lipo>  (236) 
-0.217047

>  <r_i_glide_hbond>  (236) 
0

>  <r_i_glide_metal>  (236) 
-0

>  <r_i_glide_rewards>  (236) 
-2.29211

>  <r_i_glide_evdw>  (236) 
-15.8694

>  <r_i_glide_ecoul>  (236) 
-5.36012

>  <r_i_glide_erotb>  (236) 
0

>  <r_i_glide_esite>  (236) 
0

>  <r_i_glide_emodel>  (236) 
-24.9421

>  <r_i_glide_energy>  (236) 
-21.2295

>  <r_i_glide_einternal>  (236) 
3.55403

>  <r_i_glide_intrahb_reward>  (236) 
-0

>  <i_i_glide_confnum>  (236) 
2

>  <i_i_glide_posenum>  (236) 
18

>  <r_i_glide_eff_state_penalty>  (236) 
0

>  <ligand_id>  (236) 
67

>  <original_smiles>  (236) 
CC(C)C1(C)C2(C)CC(=O)C1(O)C2

>  <smiles>  (236) 
[H]OC12C(=O)C([H])([H])C(C([H])([H])[H])(C1([H])[H])C2(C([H])([H])[H])C([H])(C([H])([H])[H])C([H])([H])[H]

$$$$
67:0:1
     RDKit          3D

 31 32  0  0  1  0  0  0  0  0999 V2000
    4.7203   -6.0132    0.2796 C   0  0  0  0  0  0  0  0  0  0  0  0
    5.3480   -4.6369   -0.0338 C   0  0  0  0  0  0  0  0  0  0  0  0
    6.6751   -4.4647    0.7241 C   0  0  0  0  0  0  0  0  0  0  0  0
    4.3605   -3.4112    0.0829 C   0  0  1  0  0  0  0  0  0  0  0  0
    3.6817   -3.4974    1.4861 C   0  0  0  0  0  0  0  0  0  0  0  0
    4.8983   -2.0098   -0.4037 C   0  0  1  0  0  0  0  0  0  0  0  0
    5.7132   -1.1238    0.5488 C   0  0  0  0  0  0  0  0  0  0  0  0
    5.4903   -2.1349   -1.8166 C   0  0  0  0  0  0  0  0  0  0  0  0
    4.3521   -2.9616   -2.3729 C   0  0  0  0  0  0  0  0  0  0  0  0
    4.3092   -3.3775   -3.5343 O   0  0  0  0  0  0  0  0  0  0  0  0
    3.4857   -3.0802   -1.1613 C   0  0  1  0  0  0  0  0  0  0  0  0
    2.2903   -3.8011   -1.3702 O   0  0  0  0  0  0  0  0  0  0  0  0
    3.4148   -1.6565   -0.6094 C   0  0  0  0  0  0  0  0  0  0  0  0
    4.4926   -6.1455    1.3368 H   0  0  0  0  0  0  0  0  0  0  0  0
    5.4145   -6.8226    0.0531 H   0  0  0  0  0  0  0  0  0  0  0  0
    3.8205   -6.1795   -0.3141 H   0  0  0  0  0  0  0  0  0  0  0  0
    5.6583   -4.7399   -1.0702 H   0  0  0  0  0  0  0  0  0  0  0  0
    6.5376   -4.4494    1.8064 H   0  0  0  0  0  0  0  0  0  0  0  0
    7.2019   -3.5601    0.4225 H   0  0  0  0  0  0  0  0  0  0  0  0
    7.3544   -5.2877    0.4849 H   0  0  0  0  0  0  0  0  0  0  0  0
    2.8254   -2.8414    1.6335 H   0  0  0  0  0  0  0  0  0  0  0  0
    4.3918   -3.2681    2.2791 H   0  0  0  0  0  0  0  0  0  0  0  0
    3.2434   -4.4691    1.6913 H   0  0  0  0  0  0  0  0  0  0  0  0
    5.8078   -0.1039    0.1727 H   0  0  0  0  0  0  0  0  0  0  0  0
    6.7212   -1.5004    0.7274 H   0  0  0  0  0  0  0  0  0  0  0  0
    5.2225   -1.0619    1.5226 H   0  0  0  0  0  0  0  0  0  0  0  0
    5.5656   -1.1739   -2.3310 H   0  0  0  0  0  0  0  0  0  0  0  0
    6.4399   -2.6777   -1.8449 H   0  0  0  0  0  0  0  0  0  0  0  0
    2.5179   -4.5514   -1.9076 H   0  0  0  0  0  0  0  0  0  0  0  0
    2.8107   -1.4210    0.2609 H   0  0  0  0  0  0  0  0  0  0  0  0
    3.2512   -0.8814   -1.3568 H   0  0  0  0  0  0  0  0  0  0  0  0
  1  2  1  0
  1 14  1  0
  1 15  1  0
  1 16  1  0
  2  3  1  0
  4  2  1  6
  2 17  1  0
  3 18  1  0
  3 19  1  0
  3 20  1  0
  4 11  1  0
  4  5  1  0
  4  6  1  0
  5 21  1  0
  5 22  1  0
  5 23  1  0
  6 13  1  0
  6  7  1  1
  6  8  1  0
  7 24  1  0
  7 25  1  0
  7 26  1  0
  8  9  1  0
  8 27  1  0
  8 28  1  0
  9 10  2  0
  9 11  1  0
 11 12  1  6
 11 13  1  0
 12 29  1  0
 13 30  1  0
 13 31  1  0
M  END
>  <i_m_ct_stereo_status>  (237) 
1

>  <s_m_source_file>  (237) 
/var/tmp/pbs.5076255.sched01/tmp1t990xkq/82z3oanzij.sdf

>  <i_m_source_file_index>  (237) 
18

>  <i_lp_mmshare_version>  (237) 
48012

>  <i_f3d_flags>  (237) 
0

>  <s_epik_input>  (237) 
W0NIM11bQ0hdKFtDSDNdKVtDQEBdKFtDSDNdKShbQ0BAXTEyW0NIM10pW0NAQF0oW09IXSkoW0NIMl0yKUMoPU8pW0NIMl0x

>  <s_epik_cmdline>  (237) 
J2VwaWtfcHl0aG9uJywgJy1waHQnLCAnMi4wJywgJy1waCcsICc3LjAnLCAnLXRuJywgJzgnLCAnLW1hJywgJzIwMCcsICctaW1hZScsICc8aW5maWxlLm1hZT4nLCAnLW9tYWUnLCAnPG91dGZpbGUubWFlPic=

>  <r_lp_tautomer_probability>  (237) 
1

>  <r_epik_Ionization_Penalty>  (237) 
2.55791e-08

>  <r_epik_Ionization_Penalty_Charging>  (237) 
0

>  <r_epik_Ionization_Penalty_Neutral>  (237) 
2.55791e-08

>  <r_epik_State_Penalty>  (237) 
-0

>  <r_epik_Charging_Adjusted_Penalty>  (237) 
0

>  <i_epik_Tot_Q>  (237) 
0

>  <i_epik_Tot_abs_Q>  (237) 
0

>  <s_lp_Force_Field>  (237) 
OPLS3e

>  <r_lp_Energy>  (237) 
36.154

>  <b_lp_Chiralities_Consistent>  (237) 
1

>  <s_lp_Variant>  (237) 
67:0-1

>  <s_i_glide_gridfile>  (237) 
pfpi4k_grid

>  <i_i_glide_lignum>  (237) 
18

>  <i_i_glide_rotatable_bonds>  (237) 
2

>  <r_i_docking_score>  (237) 
-4.01952

>  <r_i_glide_ligand_efficiency>  (237) 
-0.309194

>  <r_i_glide_ligand_efficiency_sa>  (237) 
-0.727018

>  <r_i_glide_ligand_efficiency_ln>  (237) 
-1.12751

>  <r_i_glide_gscore>  (237) 
-4.01952

>  <r_i_glide_lipo>  (237) 
-0.425505

>  <r_i_glide_hbond>  (237) 
0

>  <r_i_glide_metal>  (237) 
-0

>  <r_i_glide_rewards>  (237) 
-2.17007

>  <r_i_glide_evdw>  (237) 
-14.9887

>  <r_i_glide_ecoul>  (237) 
-4.49671

>  <r_i_glide_erotb>  (237) 
0

>  <r_i_glide_esite>  (237) 
0

>  <r_i_glide_emodel>  (237) 
-22.6104

>  <r_i_glide_energy>  (237) 
-19.4854

>  <r_i_glide_einternal>  (237) 
3.56654

>  <r_i_glide_intrahb_reward>  (237) 
-0

>  <i_i_glide_confnum>  (237) 
2

>  <i_i_glide_posenum>  (237) 
11

>  <r_i_glide_eff_state_penalty>  (237) 
0

>  <ligand_id>  (237) 
67

>  <original_smiles>  (237) 
CC(C)C1(C)C2(C)CC(=O)C1(O)C2

>  <smiles>  (237) 
[H]OC12C(=O)C([H])([H])C(C([H])([H])[H])(C1([H])[H])C2(C([H])([H])[H])C([H])(C([H])([H])[H])C([H])([H])[H]

$$$$
67:0:2
     RDKit          3D

 31 32  0  0  1  0  0  0  0  0999 V2000
    4.4589   -0.0301    1.2032 C   0  0  0  0  0  0  0  0  0  0  0  0
    3.6594   -1.2755    0.7780 C   0  0  0  0  0  0  0  0  0  0  0  0
    2.4859   -1.5167    1.7431 C   0  0  0  0  0  0  0  0  0  0  0  0
    4.5331   -2.5455    0.4599 C   0  0  1  0  0  0  0  0  0  0  0  0
    5.2563   -2.9327    1.7877 C   0  0  0  0  0  0  0  0  0  0  0  0
    3.8561   -3.6876   -0.3851 C   0  0  1  0  0  0  0  0  0  0  0  0
    2.9856   -4.7389    0.3097 C   0  0  0  0  0  0  0  0  0  0  0  0
    3.2252   -3.0912   -1.6573 C   0  0  0  0  0  0  0  0  0  0  0  0
    4.4150   -2.2158   -2.0057 C   0  0  0  0  0  0  0  0  0  0  0  0
    4.4718   -1.4791   -2.9844 O   0  0  0  0  0  0  0  0  0  0  0  0
    5.3436   -2.5609   -0.8745 C   0  0  1  0  0  0  0  0  0  0  0  0
    6.5866   -1.9186   -0.9396 O   0  0  0  0  0  0  0  0  0  0  0  0
    5.2882   -4.0878   -0.7759 C   0  0  0  0  0  0  0  0  0  0  0  0
    4.9153   -0.1310    2.1867 H   0  0  0  0  0  0  0  0  0  0  0  0
    3.8059    0.8440    1.2624 H   0  0  0  0  0  0  0  0  0  0  0  0
    5.2432    0.1943    0.4795 H   0  0  0  0  0  0  0  0  0  0  0  0
    3.1571   -0.9404   -0.1267 H   0  0  0  0  0  0  0  0  0  0  0  0
    2.8155   -1.7314    2.7591 H   0  0  0  0  0  0  0  0  0  0  0  0
    1.8410   -2.3226    1.4029 H   0  0  0  0  0  0  0  0  0  0  0  0
    1.8451   -0.6327    1.7808 H   0  0  0  0  0  0  0  0  0  0  0  0
    6.0626   -3.6521    1.6858 H   0  0  0  0  0  0  0  0  0  0  0  0
    4.5546   -3.3515    2.5086 H   0  0  0  0  0  0  0  0  0  0  0  0
    5.7479   -2.0924    2.2667 H   0  0  0  0  0  0  0  0  0  0  0  0
    2.7686   -5.5912   -0.3271 H   0  0  0  0  0  0  0  0  0  0  0  0
    2.0321   -4.3419    0.6428 H   0  0  0  0  0  0  0  0  0  0  0  0
    3.4897   -5.1419    1.1891 H   0  0  0  0  0  0  0  0  0  0  0  0
    3.0427   -3.8373   -2.4328 H   0  0  0  0  0  0  0  0  0  0  0  0
    2.3238   -2.5079   -1.4634 H   0  0  0  0  0  0  0  0  0  0  0  0
    7.0890   -2.2765   -0.2142 H   0  0  0  0  0  0  0  0  0  0  0  0
    5.8932   -4.6247   -0.0474 H   0  0  0  0  0  0  0  0  0  0  0  0
    5.3298   -4.6089   -1.7286 H   0  0  0  0  0  0  0  0  0  0  0  0
  1  2  1  0
  1 14  1  0
  1 15  1  0
  1 16  1  0
  2  3  1  0
  4  2  1  1
  2 17  1  0
  3 18  1  0
  3 19  1  0
  3 20  1  0
  4 11  1  0
  4  5  1  0
  4  6  1  0
  5 21  1  0
  5 22  1  0
  5 23  1  0
  6 13  1  0
  6  7  1  1
  6  8  1  0
  7 24  1  0
  7 25  1  0
  7 26  1  0
  8  9  1  0
  8 27  1  0
  8 28  1  0
  9 10  2  0
  9 11  1  0
 11 12  1  1
 11 13  1  0
 12 29  1  0
 13 30  1  0
 13 31  1  0
M  END
>  <i_m_ct_stereo_status>  (238) 
1

>  <s_m_source_file>  (238) 
/var/tmp/pbs.5076255.sched01/tmp1t990xkq/82z3oanzij.sdf

>  <i_m_source_file_index>  (238) 
18

>  <i_lp_mmshare_version>  (238) 
48012

>  <i_f3d_flags>  (238) 
0

>  <s_epik_input>  (238) 
W0NIM11bQ0hdKFtDSDNdKVtDQEBdKFtDSDNdKShbQ0BAXTEyW0NIM10pW0NAQF0oW09IXSkoW0NIMl0yKUMoPU8pW0NIMl0x

>  <s_epik_cmdline>  (238) 
J2VwaWtfcHl0aG9uJywgJy1waHQnLCAnMi4wJywgJy1waCcsICc3LjAnLCAnLXRuJywgJzgnLCAnLW1hJywgJzIwMCcsICctaW1hZScsICc8aW5maWxlLm1hZT4nLCAnLW9tYWUnLCAnPG91dGZpbGUubWFlPic=

>  <r_lp_tautomer_probability>  (238) 
1

>  <r_epik_Ionization_Penalty>  (238) 
2.55791e-08

>  <r_epik_Ionization_Penalty_Charging>  (238) 
0

>  <r_epik_Ionization_Penalty_Neutral>  (238) 
2.55791e-08

>  <r_epik_State_Penalty>  (238) 
-0

>  <r_epik_Charging_Adjusted_Penalty>  (238) 
0

>  <i_epik_Tot_Q>  (238) 
0

>  <i_epik_Tot_abs_Q>  (238) 
0

>  <s_lp_Force_Field>  (238) 
OPLS3e

>  <r_lp_Energy>  (238) 
36.154

>  <b_lp_Chiralities_Consistent>  (238) 
1

>  <s_lp_Variant>  (238) 
67:0-1

>  <s_i_glide_gridfile>  (238) 
pfpi4k_grid

>  <i_i_glide_lignum>  (238) 
18

>  <i_i_glide_rotatable_bonds>  (238) 
2

>  <r_i_docking_score>  (238) 
-3.71915

>  <r_i_glide_ligand_efficiency>  (238) 
-0.286089

>  <r_i_glide_ligand_efficiency_sa>  (238) 
-0.67269

>  <r_i_glide_ligand_efficiency_ln>  (238) 
-1.04326

>  <r_i_glide_gscore>  (238) 
-3.71915

>  <r_i_glide_lipo>  (238) 
-0.195265

>  <r_i_glide_hbond>  (238) 
0

>  <r_i_glide_metal>  (238) 
-0

>  <r_i_glide_rewards>  (238) 
-2.16641

>  <r_i_glide_evdw>  (238) 
-14.6727

>  <r_i_glide_ecoul>  (238) 
-4.12403

>  <r_i_glide_erotb>  (238) 
0

>  <r_i_glide_esite>  (238) 
-0.00523747

>  <r_i_glide_emodel>  (238) 
-23.8307

>  <r_i_glide_energy>  (238) 
-18.7967

>  <r_i_glide_einternal>  (238) 
0.0480768

>  <r_i_glide_intrahb_reward>  (238) 
-0

>  <i_i_glide_confnum>  (238) 
2

>  <i_i_glide_posenum>  (238) 
22

>  <r_i_glide_eff_state_penalty>  (238) 
0

>  <ligand_id>  (238) 
67

>  <original_smiles>  (238) 
CC(C)C1(C)C2(C)CC(=O)C1(O)C2

>  <smiles>  (238) 
[H]OC12C(=O)C([H])([H])C(C([H])([H])[H])(C1([H])[H])C2(C([H])([H])[H])C([H])(C([H])([H])[H])C([H])([H])[H]

$$$$
68:0:0
     RDKit          3D

 54 58  0  0  1  0  0  0  0  0999 V2000
    4.8538   -4.1385   -3.4354 C   0  0  0  0  0  0  0  0  0  0  0  0
    4.2200   -3.4719   -2.2298 C   0  0  0  0  0  0  0  0  0  0  0  0
    4.7221   -3.2834   -0.9722 C   0  0  0  0  0  0  0  0  0  0  0  0
    3.6529   -2.7163   -0.0205 C   0  0  2  0  0  0  0  0  0  0  0  0
    3.9148   -1.9486    1.1526 O   0  0  0  0  0  0  0  0  0  0  0  0
    3.0909   -4.0638    0.4786 C   0  0  2  0  0  0  0  0  0  0  0  0
    2.0346   -4.2203    1.4438 O   0  0  0  0  0  0  0  0  0  0  0  0
    2.7769   -5.3145    2.0673 C   0  0  0  0  0  0  0  0  0  0  0  0
    2.4787   -5.2549    3.5534 C   0  0  0  0  0  0  0  0  0  0  0  0
    2.3739   -6.6950    1.5397 C   0  0  0  0  0  0  0  0  0  0  0  0
    4.0442   -4.6632    1.5349 C   0  0  1  0  0  0  0  0  0  0  0  0
    5.3631   -5.3092    1.1241 C   0  0  1  0  0  0  0  0  0  0  0  0
    5.1122   -6.1006   -0.0171 O   0  0  0  0  0  0  0  0  0  0  0  0
    6.5948   -4.3147    0.9151 C   0  0  0  0  0  0  0  0  0  0  0  0
    6.4636   -2.7858    0.5764 C   0  0  1  0  0  0  0  0  0  0  0  0
    6.6126   -1.7149    1.6596 C   0  0  0  0  0  0  0  0  0  0  0  0
    7.6893   -2.0734    0.8086 O   0  0  0  0  0  0  0  0  0  0  0  0
    5.8917   -2.4276   -0.8243 C   0  0  1  0  0  0  0  0  0  0  0  0
    7.0162   -2.6142   -1.8585 C   0  0  0  0  0  0  0  0  0  0  0  0
    4.9917   -1.1194   -1.0490 C   0  0  0  0  0  0  0  0  0  0  0  0
    3.4460   -1.6489   -1.1000 C   0  0  1  0  0  0  0  0  0  0  0  0
    3.1813   -2.4326   -2.4153 C   0  0  0  0  0  0  0  0  0  0  0  0
    3.3988   -1.5886   -3.6908 C   0  0  0  0  0  0  0  0  0  0  0  0
    1.8339   -3.1060   -2.4721 C   0  0  0  0  0  0  0  0  0  0  0  0
    4.2162   -4.9069   -3.8847 H   0  0  0  0  0  0  0  0  0  0  0  0
    5.6820   -4.6585   -3.0055 H   0  0  0  0  0  0  0  0  0  0  0  0
    5.1153   -3.4299   -4.2278 H   0  0  0  0  0  0  0  0  0  0  0  0
    3.1413   -1.4340    1.3071 H   0  0  0  0  0  0  0  0  0  0  0  0
    2.9242   -4.7774   -0.3401 H   0  0  0  0  0  0  0  0  0  0  0  0
    3.1055   -5.9574    4.1086 H   0  0  0  0  0  0  0  0  0  0  0  0
    1.4360   -5.5140    3.7293 H   0  0  0  0  0  0  0  0  0  0  0  0
    2.6406   -4.2495    3.9441 H   0  0  0  0  0  0  0  0  0  0  0  0
    3.0060   -7.4809    1.9692 H   0  0  0  0  0  0  0  0  0  0  0  0
    2.5134   -6.7391    0.4704 H   0  0  0  0  0  0  0  0  0  0  0  0
    1.3309   -6.9318    1.7546 H   0  0  0  0  0  0  0  0  0  0  0  0
    4.2589   -3.9272    2.3109 H   0  0  0  0  0  0  0  0  0  0  0  0
    5.6535   -6.0291    1.8918 H   0  0  0  0  0  0  0  0  0  0  0  0
    4.8474   -5.5323   -0.7228 H   0  0  0  0  0  0  0  0  0  0  0  0
    7.0992   -4.3148    1.8866 H   0  0  0  0  0  0  0  0  0  0  0  0
    7.3201   -4.7673    0.2324 H   0  0  0  0  0  0  0  0  0  0  0  0
    6.2903   -0.6831    1.5316 H   0  0  0  0  0  0  0  0  0  0  0  0
    6.6144   -2.0876    2.6732 H   0  0  0  0  0  0  0  0  0  0  0  0
    7.8873   -1.9877   -1.6641 H   0  0  0  0  0  0  0  0  0  0  0  0
    6.6054   -2.3522   -2.8171 H   0  0  0  0  0  0  0  0  0  0  0  0
    7.4036   -3.6348   -1.9129 H   0  0  0  0  0  0  0  0  0  0  0  0
    5.1154   -0.3566   -0.2816 H   0  0  0  0  0  0  0  0  0  0  0  0
    5.2575   -0.6050   -1.9673 H   0  0  0  0  0  0  0  0  0  0  0  0
    2.7397   -0.8507   -0.8893 H   0  0  0  0  0  0  0  0  0  0  0  0
    2.7954   -0.6825   -3.6701 H   0  0  0  0  0  0  0  0  0  0  0  0
    3.1078   -2.1602   -4.5717 H   0  0  0  0  0  0  0  0  0  0  0  0
    4.4392   -1.3025   -3.8368 H   0  0  0  0  0  0  0  0  0  0  0  0
    1.1064   -2.3242   -2.6804 H   0  0  0  0  0  0  0  0  0  0  0  0
    1.5097   -3.5956   -1.5563 H   0  0  0  0  0  0  0  0  0  0  0  0
    1.8494   -3.8112   -3.2938 H   0  0  0  0  0  0  0  0  0  0  0  0
  1  2  1  0
  1 25  1  0
  1 26  1  0
  1 27  1  0
  2 22  1  0
  2  3  2  0
  3 18  1  0
  3  4  1  0
  4 21  1  0
  4  5  1  1
  4  6  1  0
  5 28  1  0
  6 11  1  0
  6  7  1  0
  6 29  1  6
  7  8  1  0
  8  9  1  0
  8 10  1  0
  8 11  1  0
  9 30  1  0
  9 31  1  0
  9 32  1  0
 10 33  1  0
 10 34  1  0
 10 35  1  0
 11 12  1  0
 11 36  1  1
 12 13  1  0
 12 14  1  0
 12 37  1  1
 13 38  1  0
 14 15  1  0
 14 39  1  0
 14 40  1  0
 15 17  1  6
 15 16  1  0
 15 18  1  0
 16 17  1  0
 16 41  1  0
 16 42  1  0
 18 19  1  6
 18 20  1  0
 19 43  1  0
 19 44  1  0
 19 45  1  0
 20 21  1  0
 20 46  1  0
 20 47  1  0
 21 22  1  0
 21 48  1  1
 22 23  1  0
 22 24  1  0
 23 49  1  0
 23 50  1  0
 23 51  1  0
 24 52  1  0
 24 53  1  0
 24 54  1  0
M  END
>  <i_m_ct_stereo_status>  (239) 
1

>  <s_m_source_file>  (239) 
/var/tmp/pbs.5076255.sched01/tmp1t990xkq/82z3oanzij.sdf

>  <i_m_source_file_index>  (239) 
19

>  <i_lp_mmshare_version>  (239) 
48012

>  <i_f3d_flags>  (239) 
0

>  <s_epik_input>  (239) 
W0NIM11DPTFDKFtDSDNdKShbQ0gzXSlbQ0BIXShbQ0gyXTIpW0NAXShbT0hdKShDMVtDQF0yKFtDSDNdKVtDQEBdMzRbQ0gyXU80KVtDQEhdNVtDQEBIXShDKE81KShbQ0gzXSlbQ0gzXSlbQ0BASF0oW09IXSlbQ0gyXTM=

>  <s_epik_cmdline>  (239) 
J2VwaWtfcHl0aG9uJywgJy1waHQnLCAnMi4wJywgJy1waCcsICc3LjAnLCAnLXRuJywgJzgnLCAnLW1hJywgJzIwMCcsICctaW1hZScsICc8aW5maWxlLm1hZT4nLCAnLW9tYWUnLCAnPG91dGZpbGUubWFlPic=

>  <r_lp_tautomer_probability>  (239) 
1

>  <r_epik_Ionization_Penalty>  (239) 
1.20424e-07

>  <r_epik_Ionization_Penalty_Charging>  (239) 
0

>  <r_epik_Ionization_Penalty_Neutral>  (239) 
1.20424e-07

>  <r_epik_State_Penalty>  (239) 
-0

>  <r_epik_Charging_Adjusted_Penalty>  (239) 
0

>  <i_epik_Tot_Q>  (239) 
0

>  <i_epik_Tot_abs_Q>  (239) 
0

>  <s_lp_Force_Field>  (239) 
OPLS3e

>  <r_lp_Energy>  (239) 
145.367

>  <b_lp_Chiralities_Consistent>  (239) 
1

>  <s_lp_Variant>  (239) 
68:0-1

>  <s_i_glide_gridfile>  (239) 
pfpi4k_grid

>  <i_i_glide_lignum>  (239) 
19

>  <i_i_glide_rotatable_bonds>  (239) 
2

>  <r_i_docking_score>  (239) 
-2.52059

>  <r_i_glide_ligand_efficiency>  (239) 
-0.105025

>  <r_i_glide_ligand_efficiency_sa>  (239) 
-0.302943

>  <r_i_glide_ligand_efficiency_ln>  (239) 
-0.603293

>  <r_i_glide_gscore>  (239) 
-2.52059

>  <r_i_glide_lipo>  (239) 
-0.677327

>  <r_i_glide_hbond>  (239) 
0

>  <r_i_glide_metal>  (239) 
-0

>  <r_i_glide_rewards>  (239) 
-1.12875

>  <r_i_glide_evdw>  (239) 
-9.32868

>  <r_i_glide_ecoul>  (239) 
-1.65385

>  <r_i_glide_erotb>  (239) 
0

>  <r_i_glide_esite>  (239) 
0

>  <r_i_glide_emodel>  (239) 
-9.87935

>  <r_i_glide_energy>  (239) 
-10.9825

>  <r_i_glide_einternal>  (239) 
0.282612

>  <r_i_glide_intrahb_reward>  (239) 
-0

>  <i_i_glide_confnum>  (239) 
1

>  <i_i_glide_posenum>  (239) 
12

>  <r_i_glide_eff_state_penalty>  (239) 
0

>  <ligand_id>  (239) 
68

>  <original_smiles>  (239) 
CC1=C2C3(O)C4OC(C)(C)C4C(O)CC4(CO4)C2(C)CC3C1(C)C

>  <smiles>  (239) 
[H]OC1([H])C([H])([H])C2(OC2([H])[H])C2(C([H])([H])[H])C3=C(C([H])([H])[H])C(C([H])([H])[H])(C([H])([H])[H])C([H])(C2([H])[H])C3(O[H])C2([H])OC(C([H])([H])[H])(C([H])([H])[H])C12[H]

$$$$
68:0:1
     RDKit          3D

 54 58  0  0  1  0  0  0  0  0999 V2000
    4.8610   -4.1801   -3.4789 C   0  0  0  0  0  0  0  0  0  0  0  0
    4.2601   -3.4783   -2.2742 C   0  0  0  0  0  0  0  0  0  0  0  0
    4.8155   -3.2542   -1.0570 C   0  0  0  0  0  0  0  0  0  0  0  0
    3.7879   -2.6630   -0.0806 C   0  0  2  0  0  0  0  0  0  0  0  0
    4.1102   -1.8934    1.0843 O   0  0  0  0  0  0  0  0  0  0  0  0
    3.2459   -4.0029    0.4492 C   0  0  2  0  0  0  0  0  0  0  0  0
    2.1997   -4.1460    1.4365 O   0  0  0  0  0  0  0  0  0  0  0  0
    2.9846   -5.2338    2.0640 C   0  0  0  0  0  0  0  0  0  0  0  0
    2.7574   -5.1586    3.5683 C   0  0  0  0  0  0  0  0  0  0  0  0
    2.5738   -6.6375    1.5579 C   0  0  0  0  0  0  0  0  0  0  0  0
    4.2401   -4.5855    1.4872 C   0  0  1  0  0  0  0  0  0  0  0  0
    5.5332   -5.2384    1.0373 C   0  0  1  0  0  0  0  0  0  0  0  0
    5.2462   -6.0358   -0.0938 O   0  0  0  0  0  0  0  0  0  0  0  0
    6.7594   -4.2496    0.7614 C   0  0  0  0  0  0  0  0  0  0  0  0
    6.6395   -2.7192    0.3745 C   0  0  1  0  0  0  0  0  0  0  0  0
    6.8217   -1.6253    1.4163 C   0  0  0  0  0  0  0  0  0  0  0  0
    7.8854   -2.0323    0.5581 O   0  0  0  0  0  0  0  0  0  0  0  0
    5.9937   -2.3888   -0.9817 C   0  0  1  0  0  0  0  0  0  0  0  0
    7.0626   -2.6028   -2.0756 C   0  0  0  0  0  0  0  0  0  0  0  0
    5.0745   -1.0940   -1.1867 C   0  0  0  0  0  0  0  0  0  0  0  0
    3.5263   -1.6328   -1.1752 C   0  0  1  0  0  0  0  0  0  0  0  0
    3.2114   -2.4372   -2.4537 C   0  0  0  0  0  0  0  0  0  0  0  0
    3.3658   -1.6141   -3.7507 C   0  0  0  0  0  0  0  0  0  0  0  0
    1.8407   -3.0810   -2.4374 C   0  0  0  0  0  0  0  0  0  0  0  0
    4.2168   -4.9493   -3.8783 H   0  0  0  0  0  0  0  0  0  0  0  0
    5.7470   -4.6588   -3.1315 H   0  0  0  0  0  0  0  0  0  0  0  0
    5.0858   -3.4945   -4.3048 H   0  0  0  0  0  0  0  0  0  0  0  0
    4.3689   -1.0377    0.7805 H   0  0  0  0  0  0  0  0  0  0  0  0
    3.0369   -4.7237   -0.3563 H   0  0  0  0  0  0  0  0  0  0  0  0
    3.4104   -5.8419    4.0998 H   0  0  0  0  0  0  0  0  0  0  0  0
    1.7264   -5.4123    3.8091 H   0  0  0  0  0  0  0  0  0  0  0  0
    2.9375   -4.1480    3.9396 H   0  0  0  0  0  0  0  0  0  0  0  0
    3.2190   -7.3928    1.9864 H   0  0  0  0  0  0  0  0  0  0  0  0
    2.6581   -6.7192    0.4794 H   0  0  0  0  0  0  0  0  0  0  0  0
    1.5478   -6.8733    1.8345 H   0  0  0  0  0  0  0  0  0  0  0  0
    4.4929   -3.8687    2.2601 H   0  0  0  0  0  0  0  0  0  0  0  0
    5.8557   -5.9494    1.7929 H   0  0  0  0  0  0  0  0  0  0  0  0
    4.9245   -5.4721   -0.7865 H   0  0  0  0  0  0  0  0  0  0  0  0
    7.3175   -4.2425    1.7054 H   0  0  0  0  0  0  0  0  0  0  0  0
    7.4550   -4.7227    0.0558 H   0  0  0  0  0  0  0  0  0  0  0  0
    6.4925   -0.6042    1.2578 H   0  0  0  0  0  0  0  0  0  0  0  0
    6.6971   -2.0162    2.4192 H   0  0  0  0  0  0  0  0  0  0  0  0
    7.9069   -1.9191   -1.9790 H   0  0  0  0  0  0  0  0  0  0  0  0
    6.5716   -2.4484   -3.0359 H   0  0  0  0  0  0  0  0  0  0  0  0
    7.4441   -3.6433   -2.0859 H   0  0  0  0  0  0  0  0  0  0  0  0
    5.2279   -0.3083   -0.4403 H   0  0  0  0  0  0  0  0  0  0  0  0
    5.2939   -0.5892   -2.1320 H   0  0  0  0  0  0  0  0  0  0  0  0
    2.8210   -0.8366   -0.9329 H   0  0  0  0  0  0  0  0  0  0  0  0
    2.7609   -0.7062   -3.7213 H   0  0  0  0  0  0  0  0  0  0  0  0
    3.0337   -2.1913   -4.6176 H   0  0  0  0  0  0  0  0  0  0  0  0
    4.3961   -1.3211   -3.9525 H   0  0  0  0  0  0  0  0  0  0  0  0
    1.1140   -2.3153   -2.6192 H   0  0  0  0  0  0  0  0  0  0  0  0
    1.5660   -3.5700   -1.5043 H   0  0  0  0  0  0  0  0  0  0  0  0
    1.7988   -3.8138   -3.2460 H   0  0  0  0  0  0  0  0  0  0  0  0
  1  2  1  0
  1 25  1  0
  1 26  1  0
  1 27  1  0
  2 22  1  0
  2  3  2  0
  3 18  1  0
  3  4  1  0
  4 21  1  0
  4  5  1  1
  4  6  1  0
  5 28  1  0
  6 11  1  0
  6  7  1  0
  6 29  1  6
  7  8  1  0
  8  9  1  0
  8 10  1  0
  8 11  1  0
  9 30  1  0
  9 31  1  0
  9 32  1  0
 10 33  1  0
 10 34  1  0
 10 35  1  0
 11 12  1  0
 11 36  1  1
 12 13  1  0
 12 14  1  0
 12 37  1  1
 13 38  1  0
 14 15  1  0
 14 39  1  0
 14 40  1  0
 15 17  1  6
 15 16  1  0
 15 18  1  0
 16 17  1  0
 16 41  1  0
 16 42  1  0
 18 19  1  6
 18 20  1  0
 19 43  1  0
 19 44  1  0
 19 45  1  0
 20 21  1  0
 20 46  1  0
 20 47  1  0
 21 22  1  0
 21 48  1  1
 22 23  1  0
 22 24  1  0
 23 49  1  0
 23 50  1  0
 23 51  1  0
 24 52  1  0
 24 53  1  0
 24 54  1  0
M  END
>  <i_m_ct_stereo_status>  (240) 
1

>  <s_m_source_file>  (240) 
/var/tmp/pbs.5076255.sched01/tmp1t990xkq/82z3oanzij.sdf

>  <i_m_source_file_index>  (240) 
19

>  <i_lp_mmshare_version>  (240) 
48012

>  <i_f3d_flags>  (240) 
0

>  <s_epik_input>  (240) 
W0NIM11DPTFDKFtDSDNdKShbQ0gzXSlbQ0BIXShbQ0gyXTIpW0NAXShbT0hdKShDMVtDQF0yKFtDSDNdKVtDQEBdMzRbQ0gyXU80KVtDQEhdNVtDQEBIXShDKE81KShbQ0gzXSlbQ0gzXSlbQ0BASF0oW09IXSlbQ0gyXTM=

>  <s_epik_cmdline>  (240) 
J2VwaWtfcHl0aG9uJywgJy1waHQnLCAnMi4wJywgJy1waCcsICc3LjAnLCAnLXRuJywgJzgnLCAnLW1hJywgJzIwMCcsICctaW1hZScsICc8aW5maWxlLm1hZT4nLCAnLW9tYWUnLCAnPG91dGZpbGUubWFlPic=

>  <r_lp_tautomer_probability>  (240) 
1

>  <r_epik_Ionization_Penalty>  (240) 
1.20424e-07

>  <r_epik_Ionization_Penalty_Charging>  (240) 
0

>  <r_epik_Ionization_Penalty_Neutral>  (240) 
1.20424e-07

>  <r_epik_State_Penalty>  (240) 
-0

>  <r_epik_Charging_Adjusted_Penalty>  (240) 
0

>  <i_epik_Tot_Q>  (240) 
0

>  <i_epik_Tot_abs_Q>  (240) 
0

>  <s_lp_Force_Field>  (240) 
OPLS3e

>  <r_lp_Energy>  (240) 
145.367

>  <b_lp_Chiralities_Consistent>  (240) 
1

>  <s_lp_Variant>  (240) 
68:0-1

>  <s_i_glide_gridfile>  (240) 
pfpi4k_grid

>  <i_i_glide_lignum>  (240) 
19

>  <i_i_glide_rotatable_bonds>  (240) 
2

>  <r_i_docking_score>  (240) 
-2.42704

>  <r_i_glide_ligand_efficiency>  (240) 
-0.101127

>  <r_i_glide_ligand_efficiency_sa>  (240) 
-0.2917

>  <r_i_glide_ligand_efficiency_ln>  (240) 
-0.580902

>  <r_i_glide_gscore>  (240) 
-2.42704

>  <r_i_glide_lipo>  (240) 
-0.635491

>  <r_i_glide_hbond>  (240) 
0

>  <r_i_glide_metal>  (240) 
-0

>  <r_i_glide_rewards>  (240) 
-1.12875

>  <r_i_glide_evdw>  (240) 
-10.0173

>  <r_i_glide_ecoul>  (240) 
-1.07954

>  <r_i_glide_erotb>  (240) 
0

>  <r_i_glide_esite>  (240) 
0

>  <r_i_glide_emodel>  (240) 
-10.2696

>  <r_i_glide_energy>  (240) 
-11.0968

>  <r_i_glide_einternal>  (240) 
0.221247

>  <r_i_glide_intrahb_reward>  (240) 
-0

>  <i_i_glide_confnum>  (240) 
1

>  <i_i_glide_posenum>  (240) 
14

>  <r_i_glide_eff_state_penalty>  (240) 
0

>  <ligand_id>  (240) 
68

>  <original_smiles>  (240) 
CC1=C2C3(O)C4OC(C)(C)C4C(O)CC4(CO4)C2(C)CC3C1(C)C

>  <smiles>  (240) 
[H]OC1([H])C([H])([H])C2(OC2([H])[H])C2(C([H])([H])[H])C3=C(C([H])([H])[H])C(C([H])([H])[H])(C([H])([H])[H])C([H])(C2([H])[H])C3(O[H])C2([H])OC(C([H])([H])[H])(C([H])([H])[H])C12[H]

$$$$
68:0:2
     RDKit          3D

 54 58  0  0  1  0  0  0  0  0999 V2000
    4.8888   -4.1774   -3.4307 C   0  0  0  0  0  0  0  0  0  0  0  0
    4.3504   -3.3786   -2.2682 C   0  0  0  0  0  0  0  0  0  0  0  0
    4.9361   -3.0032   -1.1115 C   0  0  0  0  0  0  0  0  0  0  0  0
    3.9403   -2.2923   -0.2014 C   0  0  2  0  0  0  0  0  0  0  0  0
    4.3032   -1.3644    0.8209 O   0  0  0  0  0  0  0  0  0  0  0  0
    3.4142   -3.5349    0.5126 C   0  0  2  0  0  0  0  0  0  0  0  0
    2.4014   -3.5661    1.5452 O   0  0  0  0  0  0  0  0  0  0  0  0
    3.2245   -4.5498    2.2768 C   0  0  0  0  0  0  0  0  0  0  0  0
    3.0708   -4.2661    3.7735 C   0  0  0  0  0  0  0  0  0  0  0  0
    2.8263   -6.0018    1.9790 C   0  0  0  0  0  0  0  0  0  0  0  0
    4.4473   -3.9855    1.5624 C   0  0  1  0  0  0  0  0  0  0  0  0
    5.7498   -4.6850    1.1395 C   0  0  1  0  0  0  0  0  0  0  0  0
    5.4754   -5.6203    0.1103 O   0  0  0  0  0  0  0  0  0  0  0  0
    6.9707   -3.7469    0.7393 C   0  0  0  0  0  0  0  0  0  0  0  0
    6.8282   -2.2767    0.1970 C   0  0  1  0  0  0  0  0  0  0  0  0
    7.0426   -1.0584    1.0584 C   0  0  0  0  0  0  0  0  0  0  0  0
    8.0821   -1.5704    0.2394 O   0  0  0  0  0  0  0  0  0  0  0  0
    6.1153   -2.1248   -1.1779 C   0  0  1  0  0  0  0  0  0  0  0  0
    7.1270   -2.4848   -2.2490 C   0  0  0  0  0  0  0  0  0  0  0  0
    5.1662   -0.8823   -1.5542 C   0  0  0  0  0  0  0  0  0  0  0  0
    3.6315   -1.4323   -1.4151 C   0  0  1  0  0  0  0  0  0  0  0  0
    3.2667   -2.3987   -2.5626 C   0  0  0  0  0  0  0  0  0  0  0  0
    3.3771   -1.7271   -3.9485 C   0  0  0  0  0  0  0  0  0  0  0  0
    1.8817   -3.0235   -2.4098 C   0  0  0  0  0  0  0  0  0  0  0  0
    4.2293   -4.9902   -3.6685 H   0  0  0  0  0  0  0  0  0  0  0  0
    5.7902   -4.5753   -3.0573 H   0  0  0  0  0  0  0  0  0  0  0  0
    5.0528   -3.6720   -4.3766 H   0  0  0  0  0  0  0  0  0  0  0  0
    4.4854   -1.8543    1.5966 H   0  0  0  0  0  0  0  0  0  0  0  0
    3.1875   -4.3430   -0.1870 H   0  0  0  0  0  0  0  0  0  0  0  0
    3.7633   -4.8671    4.3620 H   0  0  0  0  0  0  0  0  0  0  0  0
    2.0665   -4.4877    4.1331 H   0  0  0  0  0  0  0  0  0  0  0  0
    3.2676   -3.2221    4.0154 H   0  0  0  0  0  0  0  0  0  0  0  0
    3.5109   -6.6899    2.4771 H   0  0  0  0  0  0  0  0  0  0  0  0
    2.8764   -6.2453    0.9188 H   0  0  0  0  0  0  0  0  0  0  0  0
    1.8234   -6.2417    2.3283 H   0  0  0  0  0  0  0  0  0  0  0  0
    4.7389   -3.1844    2.2352 H   0  0  0  0  0  0  0  0  0  0  0  0
    6.0774   -5.2966    1.9761 H   0  0  0  0  0  0  0  0  0  0  0  0
    5.1220   -5.1669   -0.6338 H   0  0  0  0  0  0  0  0  0  0  0  0
    7.5465   -3.6376    1.6554 H   0  0  0  0  0  0  0  0  0  0  0  0
    7.6358   -4.3058    0.0755 H   0  0  0  0  0  0  0  0  0  0  0  0
    6.6085   -0.1173    0.7404 H   0  0  0  0  0  0  0  0  0  0  0  0
    7.0121   -1.2529    2.1225 H   0  0  0  0  0  0  0  0  0  0  0  0
    7.9615   -1.8222   -2.3635 H   0  0  0  0  0  0  0  0  0  0  0  0
    6.5656   -2.5422   -3.1416 H   0  0  0  0  0  0  0  0  0  0  0  0
    7.6213   -3.4432   -2.1568 H   0  0  0  0  0  0  0  0  0  0  0  0
    5.3143   -0.0442   -0.8920 H   0  0  0  0  0  0  0  0  0  0  0  0
    5.3621   -0.4627   -2.5411 H   0  0  0  0  0  0  0  0  0  0  0  0
    2.8601   -0.7008   -1.2520 H   0  0  0  0  0  0  0  0  0  0  0  0
    2.7657   -0.8262   -4.0122 H   0  0  0  0  0  0  0  0  0  0  0  0
    3.0158   -2.4186   -4.7102 H   0  0  0  0  0  0  0  0  0  0  0  0
    4.3972   -1.4553   -4.2267 H   0  0  0  0  0  0  0  0  0  0  0  0
    1.1621   -2.2656   -2.6584 H   0  0  0  0  0  0  0  0  0  0  0  0
    1.6392   -3.3606   -1.4048 H   0  0  0  0  0  0  0  0  0  0  0  0
    1.7614   -3.8531   -3.1025 H   0  0  0  0  0  0  0  0  0  0  0  0
  1  2  1  0
  1 25  1  0
  1 26  1  0
  1 27  1  0
  2 22  1  0
  2  3  2  0
  3 18  1  0
  3  4  1  0
  4 21  1  0
  4  5  1  1
  4  6  1  0
  5 28  1  0
  6 11  1  0
  6  7  1  0
  6 29  1  6
  7  8  1  0
  8  9  1  0
  8 10  1  0
  8 11  1  0
  9 30  1  0
  9 31  1  0
  9 32  1  0
 10 33  1  0
 10 34  1  0
 10 35  1  0
 11 12  1  0
 11 36  1  1
 12 13  1  0
 12 14  1  0
 12 37  1  1
 13 38  1  0
 14 15  1  0
 14 39  1  0
 14 40  1  0
 15 17  1  6
 15 16  1  0
 15 18  1  0
 16 17  1  0
 16 41  1  0
 16 42  1  0
 18 19  1  6
 18 20  1  0
 19 43  1  0
 19 44  1  0
 19 45  1  0
 20 21  1  0
 20 46  1  0
 20 47  1  0
 21 22  1  0
 21 48  1  1
 22 23  1  0
 22 24  1  0
 23 49  1  0
 23 50  1  0
 23 51  1  0
 24 52  1  0
 24 53  1  0
 24 54  1  0
M  END
>  <i_m_ct_stereo_status>  (241) 
1

>  <s_m_source_file>  (241) 
/var/tmp/pbs.5076255.sched01/tmp1t990xkq/82z3oanzij.sdf

>  <i_m_source_file_index>  (241) 
19

>  <i_lp_mmshare_version>  (241) 
48012

>  <i_f3d_flags>  (241) 
0

>  <s_epik_input>  (241) 
W0NIM11DPTFDKFtDSDNdKShbQ0gzXSlbQ0BIXShbQ0gyXTIpW0NAXShbT0hdKShDMVtDQF0yKFtDSDNdKVtDQEBdMzRbQ0gyXU80KVtDQEhdNVtDQEBIXShDKE81KShbQ0gzXSlbQ0gzXSlbQ0BASF0oW09IXSlbQ0gyXTM=

>  <s_epik_cmdline>  (241) 
J2VwaWtfcHl0aG9uJywgJy1waHQnLCAnMi4wJywgJy1waCcsICc3LjAnLCAnLXRuJywgJzgnLCAnLW1hJywgJzIwMCcsICctaW1hZScsICc8aW5maWxlLm1hZT4nLCAnLW9tYWUnLCAnPG91dGZpbGUubWFlPic=

>  <r_lp_tautomer_probability>  (241) 
1

>  <r_epik_Ionization_Penalty>  (241) 
1.20424e-07

>  <r_epik_Ionization_Penalty_Charging>  (241) 
0

>  <r_epik_Ionization_Penalty_Neutral>  (241) 
1.20424e-07

>  <r_epik_State_Penalty>  (241) 
-0

>  <r_epik_Charging_Adjusted_Penalty>  (241) 
0

>  <i_epik_Tot_Q>  (241) 
0

>  <i_epik_Tot_abs_Q>  (241) 
0

>  <s_lp_Force_Field>  (241) 
OPLS3e

>  <r_lp_Energy>  (241) 
145.367

>  <b_lp_Chiralities_Consistent>  (241) 
1

>  <s_lp_Variant>  (241) 
68:0-1

>  <s_i_glide_gridfile>  (241) 
pfpi4k_grid

>  <i_i_glide_lignum>  (241) 
19

>  <i_i_glide_rotatable_bonds>  (241) 
2

>  <r_i_docking_score>  (241) 
-2.25823

>  <r_i_glide_ligand_efficiency>  (241) 
-0.0940929

>  <r_i_glide_ligand_efficiency_sa>  (241) 
-0.271411

>  <r_i_glide_ligand_efficiency_ln>  (241) 
-0.540498

>  <r_i_glide_gscore>  (241) 
-2.25823

>  <r_i_glide_lipo>  (241) 
-0.402077

>  <r_i_glide_hbond>  (241) 
-0.0586353

>  <r_i_glide_metal>  (241) 
-0

>  <r_i_glide_rewards>  (241) 
-1.12875

>  <r_i_glide_evdw>  (241) 
-10.0728

>  <r_i_glide_ecoul>  (241) 
-1.10083

>  <r_i_glide_erotb>  (241) 
0

>  <r_i_glide_esite>  (241) 
0

>  <r_i_glide_emodel>  (241) 
-9.72584

>  <r_i_glide_energy>  (241) 
-11.1736

>  <r_i_glide_einternal>  (241) 
0.0635859

>  <r_i_glide_intrahb_reward>  (241) 
-0

>  <i_i_glide_confnum>  (241) 
2

>  <i_i_glide_posenum>  (241) 
18

>  <r_i_glide_eff_state_penalty>  (241) 
0

>  <ligand_id>  (241) 
68

>  <original_smiles>  (241) 
CC1=C2C3(O)C4OC(C)(C)C4C(O)CC4(CO4)C2(C)CC3C1(C)C

>  <smiles>  (241) 
[H]OC1([H])C([H])([H])C2(OC2([H])[H])C2(C([H])([H])[H])C3=C(C([H])([H])[H])C(C([H])([H])[H])(C([H])([H])[H])C([H])(C2([H])[H])C3(O[H])C2([H])OC(C([H])([H])[H])(C([H])([H])[H])C12[H]

$$$$
69:0:0
     RDKit          3D

 61 65  0  0  1  0  0  0  0  0999 V2000
    1.0771   -2.4974    4.0607 C   0  0  0  0  0  0  0  0  0  0  0  0
    2.5953   -2.6809    4.2131 C   0  0  2  0  0  0  0  0  0  0  0  0
    3.3407   -1.7182    3.3013 C   0  0  0  0  0  0  0  0  0  0  0  0
    3.3678   -2.1621    1.8520 C   0  0  0  0  0  0  0  0  0  0  0  0
    3.9318   -3.6069    1.6376 C   0  0  2  0  0  0  0  0  0  0  0  0
    4.0598   -4.1172    0.1418 C   0  0  1  0  0  0  0  0  0  0  0  0
    4.7597   -3.1574   -0.9141 C   0  0  1  0  0  0  0  0  0  0  0  0
    6.2130   -2.8556   -0.4631 C   0  0  0  0  0  0  0  0  0  0  0  0
    4.8254   -3.8146   -2.3206 C   0  0  0  0  0  0  0  0  0  0  0  0
    4.5254   -3.2367   -3.4859 C   0  0  0  0  0  0  0  0  0  0  0  0
    4.1612   -1.8239   -3.5905 C   0  0  0  0  0  0  0  0  0  0  0  0
    3.8164   -1.2787   -4.6548 O   0  0  0  0  0  0  0  0  0  0  0  0
    4.3008   -1.0137   -2.3207 C   0  0  0  0  0  0  0  0  0  0  0  0
    3.9654   -1.8089   -1.0632 C   0  0  0  0  0  0  0  0  0  0  0  0
    4.7665   -5.5173    0.2079 C   0  0  0  0  0  0  0  0  0  0  0  0
    3.9394   -6.5392    0.9753 C   0  0  1  0  0  0  0  0  0  0  0  0
    4.6142   -7.9165    0.8634 C   0  0  0  0  0  0  0  0  0  0  0  0
    3.7400   -6.0678    2.4231 C   0  0  2  0  0  0  0  0  0  0  0  0
    2.9421   -7.0660    3.0712 O   0  0  0  0  0  0  0  0  0  0  0  0
    1.6089   -6.6818    3.3143 C   0  0  1  0  0  0  0  0  0  0  0  0
    0.7988   -7.9888    3.2756 C   0  0  0  0  0  0  0  0  0  0  0  0
    1.4972   -6.0046    4.7004 C   0  0  0  0  0  0  0  0  0  0  0  0
    2.6869   -5.1108    5.0773 C   0  0  0  0  0  0  0  0  0  0  0  0
    3.1565   -4.1137    4.0106 C   0  0  1  0  0  0  0  0  0  0  0  0
    3.1508   -4.6320    2.5388 C   0  0  1  0  0  0  0  0  0  0  0  0
    1.8065   -4.6079    2.0531 O   0  0  0  0  0  0  0  0  0  0  0  0
    1.0574   -5.8998    2.2662 O   0  0  0  0  0  0  0  0  0  0  0  0
    0.7378   -2.6659    3.0407 H   0  0  0  0  0  0  0  0  0  0  0  0
    0.7928   -1.4783    4.3247 H   0  0  0  0  0  0  0  0  0  0  0  0
    0.5440   -3.1735    4.7213 H   0  0  0  0  0  0  0  0  0  0  0  0
    2.8536   -2.3606    5.2226 H   0  0  0  0  0  0  0  0  0  0  0  0
    2.9338   -0.7064    3.3581 H   0  0  0  0  0  0  0  0  0  0  0  0
    4.3796   -1.6281    3.6234 H   0  0  0  0  0  0  0  0  0  0  0  0
    2.3749   -2.0541    1.3948 H   0  0  0  0  0  0  0  0  0  0  0  0
    4.0416   -1.4310    1.4843 H   0  0  0  0  0  0  0  0  0  0  0  0
    4.9495   -3.5641    2.0310 H   0  0  0  0  0  0  0  0  0  0  0  0
    3.0446   -4.2967   -0.2317 H   0  0  0  0  0  0  0  0  0  0  0  0
    6.2319   -2.3112    0.4859 H   0  0  0  0  0  0  0  0  0  0  0  0
    6.7534   -2.2804   -1.2195 H   0  0  0  0  0  0  0  0  0  0  0  0
    6.8099   -3.7649   -0.3297 H   0  0  0  0  0  0  0  0  0  0  0  0
    5.0875   -4.8619   -2.4216 H   0  0  0  0  0  0  0  0  0  0  0  0
    4.5622   -3.8282   -4.3976 H   0  0  0  0  0  0  0  0  0  0  0  0
    5.3250   -0.6453   -2.2186 H   0  0  0  0  0  0  0  0  0  0  0  0
    3.6504   -0.1459   -2.3595 H   0  0  0  0  0  0  0  0  0  0  0  0
    2.8849   -2.0201   -1.0702 H   0  0  0  0  0  0  0  0  0  0  0  0
    4.2148   -1.0609   -0.3505 H   0  0  0  0  0  0  0  0  0  0  0  0
    4.9403   -5.9758   -0.7677 H   0  0  0  0  0  0  0  0  0  0  0  0
    5.7394   -5.4388    0.7004 H   0  0  0  0  0  0  0  0  0  0  0  0
    2.9757   -6.5848    0.4748 H   0  0  0  0  0  0  0  0  0  0  0  0
    5.6004   -7.9308    1.3220 H   0  0  0  0  0  0  0  0  0  0  0  0
    4.7162   -8.2044   -0.1815 H   0  0  0  0  0  0  0  0  0  0  0  0
    3.9915   -8.6780    1.3336 H   0  0  0  0  0  0  0  0  0  0  0  0
    4.7137   -6.0708    2.9062 H   0  0  0  0  0  0  0  0  0  0  0  0
    0.8588   -8.4386    2.2882 H   0  0  0  0  0  0  0  0  0  0  0  0
   -0.2535   -7.8253    3.4850 H   0  0  0  0  0  0  0  0  0  0  0  0
    1.1692   -8.7285    3.9825 H   0  0  0  0  0  0  0  0  0  0  0  0
    0.5579   -5.4627    4.7758 H   0  0  0  0  0  0  0  0  0  0  0  0
    1.4571   -6.7725    5.4726 H   0  0  0  0  0  0  0  0  0  0  0  0
    2.4707   -4.5642    5.9959 H   0  0  0  0  0  0  0  0  0  0  0  0
    3.5360   -5.7513    5.3123 H   0  0  0  0  0  0  0  0  0  0  0  0
    4.2174   -3.9973    4.2240 H   0  0  0  0  0  0  0  0  0  0  0  0
  1  2  1  0
  1 28  1  0
  1 29  1  0
  1 30  1  0
  2 24  1  0
  2  3  1  0
  2 31  1  1
  3  4  1  0
  3 32  1  0
  3 33  1  0
  4  5  1  0
  4 34  1  0
  4 35  1  0
  5 25  1  0
  5  6  1  0
  5 36  1  1
  6  7  1  0
  6 15  1  0
  6 37  1  6
  7 14  1  0
  7  8  1  1
  7  9  1  0
  8 38  1  0
  8 39  1  0
  8 40  1  0
  9 10  2  0
  9 41  1  0
 10 11  1  0
 10 42  1  0
 11 12  2  0
 11 13  1  0
 13 14  1  0
 13 43  1  0
 13 44  1  0
 14 45  1  0
 14 46  1  0
 15 16  1  0
 15 47  1  0
 15 48  1  0
 16 17  1  0
 16 18  1  0
 16 49  1  6
 17 50  1  0
 17 51  1  0
 17 52  1  0
 18 25  1  0
 18 19  1  0
 18 53  1  1
 19 20  1  0
 20 27  1  0
 20 21  1  1
 20 22  1  0
 21 54  1  0
 21 55  1  0
 21 56  1  0
 22 23  1  0
 22 57  1  0
 22 58  1  0
 23 24  1  0
 23 59  1  0
 23 60  1  0
 24 25  1  0
 24 61  1  1
 25 26  1  6
 26 27  1  0
M  END
>  <i_m_ct_stereo_status>  (242) 
1

>  <s_m_source_file>  (242) 
/var/tmp/pbs.5076255.sched01/tmp1t990xkq/82z3oanzij.sdf

>  <i_m_source_file_index>  (242) 
20

>  <i_lp_mmshare_version>  (242) 
48012

>  <i_f3d_flags>  (242) 
0

>  <s_epik_input>  (242) 
W0NAXTEyM1tDQEBIXTRbQ0gyXVtDSDJdW0NAQEhdKFtDSDNdKVtDQEhdMltDSDJdW0NIMl1bQ0BAXShbQ0gzXSkoT08zKU9bQ0BIXTFbQ0BIXShbQ0gzXSlbQ0gyXVtDQEBIXTRbQ0BAXTUoW0NIM10pW0NIXT1bQ0hdQyg9TylbQ0gyXVtDSDJdNQ==

>  <s_epik_cmdline>  (242) 
J2VwaWtfcHl0aG9uJywgJy1waHQnLCAnMi4wJywgJy1waCcsICc3LjAnLCAnLXRuJywgJzgnLCAnLW1hJywgJzIwMCcsICctaW1hZScsICc8aW5maWxlLm1hZT4nLCAnLW9tYWUnLCAnPG91dGZpbGUubWFlPic=

>  <r_lp_tautomer_probability>  (242) 
1

>  <r_epik_Ionization_Penalty>  (242) 
2.89428e-14

>  <r_epik_Ionization_Penalty_Charging>  (242) 
0

>  <r_epik_Ionization_Penalty_Neutral>  (242) 
2.89428e-14

>  <r_epik_State_Penalty>  (242) 
-0

>  <r_epik_Charging_Adjusted_Penalty>  (242) 
0

>  <i_epik_Tot_Q>  (242) 
0

>  <i_epik_Tot_abs_Q>  (242) 
0

>  <s_lp_Force_Field>  (242) 
OPLS3e

>  <r_lp_Energy>  (242) 
50.521

>  <b_lp_Chiralities_Consistent>  (242) 
1

>  <s_lp_Variant>  (242) 
69:0-1

>  <s_i_glide_gridfile>  (242) 
pfpi4k_grid

>  <i_i_glide_lignum>  (242) 
20

>  <i_i_glide_rotatable_bonds>  (242) 
1

>  <r_i_docking_score>  (242) 
-3.71695

>  <r_i_glide_ligand_efficiency>  (242) 
-0.137665

>  <r_i_glide_ligand_efficiency_sa>  (242) 
-0.412995

>  <r_i_glide_ligand_efficiency_ln>  (242) 
-0.865246

>  <r_i_glide_gscore>  (242) 
-3.71695

>  <r_i_glide_lipo>  (242) 
-0.456986

>  <r_i_glide_hbond>  (242) 
-0.366936

>  <r_i_glide_metal>  (242) 
-0

>  <r_i_glide_rewards>  (242) 
-1.13576

>  <r_i_glide_evdw>  (242) 
-30.6258

>  <r_i_glide_ecoul>  (242) 
-2.34253

>  <r_i_glide_erotb>  (242) 
0.137864

>  <r_i_glide_esite>  (242) 
-0.0124697

>  <r_i_glide_emodel>  (242) 
-35.9927

>  <r_i_glide_energy>  (242) 
-32.9683

>  <r_i_glide_einternal>  (242) 
6.71443

>  <r_i_glide_intrahb_reward>  (242) 
-0

>  <i_i_glide_confnum>  (242) 
4

>  <i_i_glide_posenum>  (242) 
18

>  <r_i_glide_eff_state_penalty>  (242) 
0

>  <ligand_id>  (242) 
69

>  <original_smiles>  (242) 
CC1CCC2C(C3(C)C=CC(=O)CC3)CC(C)C3OC4(C)CCC1C23OO4

>  <smiles>  (242) 
[H]C1=C([H])C(C([H])([H])[H])(C2([H])C([H])([H])C([H])(C([H])([H])[H])C3([H])OC4(C([H])([H])[H])OOC35C([H])(C([H])([H])C4([H])[H])C([H])(C([H])([H])[H])C([H])([H])C([H])([H])C25[H])C([H])([H])C([H])([H])C1=O

$$$$
69:0:1
     RDKit          3D

 61 65  0  0  1  0  0  0  0  0999 V2000
    0.5890    0.0298    3.6908 C   0  0  0  0  0  0  0  0  0  0  0  0
    2.0846    0.1284    4.0231 C   0  0  2  0  0  0  0  0  0  0  0  0
    2.8540    0.6770    2.8258 C   0  0  0  0  0  0  0  0  0  0  0  0
    3.0892   -0.3531    1.7451 C   0  0  0  0  0  0  0  0  0  0  0  0
    3.8039   -1.6432    2.2383 C   0  0  2  0  0  0  0  0  0  0  0  0
    4.1571   -2.7525    1.1566 C   0  0  1  0  0  0  0  0  0  0  0  0
    4.8988   -2.2777   -0.1641 C   0  0  1  0  0  0  0  0  0  0  0  0
    6.2779   -1.6695    0.2043 C   0  0  0  0  0  0  0  0  0  0  0  0
    5.1494   -3.4750   -1.1327 C   0  0  0  0  0  0  0  0  0  0  0  0
    4.9379   -3.4891   -2.4534 C   0  0  0  0  0  0  0  0  0  0  0  0
    4.4835   -2.2997   -3.1735 C   0  0  0  0  0  0  0  0  0  0  0  0
    4.1283   -2.3017   -4.3590 O   0  0  0  0  0  0  0  0  0  0  0  0
    4.4499   -1.0032   -2.3839 C   0  0  0  0  0  0  0  0  0  0  0  0
    4.0608   -1.2257   -0.9457 C   0  0  0  0  0  0  0  0  0  0  0  0
    4.9630   -3.8802    1.9023 C   0  0  0  0  0  0  0  0  0  0  0  0
    4.1377   -4.5549    2.9817 C   0  0  1  0  0  0  0  0  0  0  0  0
    4.9341   -5.7369    3.5523 C   0  0  0  0  0  0  0  0  0  0  0  0
    3.7181   -3.5202    4.0431 C   0  0  2  0  0  0  0  0  0  0  0  0
    2.9438   -4.2161    5.0151 O   0  0  0  0  0  0  0  0  0  0  0  0
    1.5552   -3.9430    4.9569 C   0  0  1  0  0  0  0  0  0  0  0  0
    0.8722   -5.2216    5.4600 C   0  0  0  0  0  0  0  0  0  0  0  0
    1.2228   -2.7439    5.8760 C   0  0  0  0  0  0  0  0  0  0  0  0
    2.2779   -1.6297    5.8942 C   0  0  0  0  0  0  0  0  0  0  0  0
    2.7850   -1.1607    4.5306 C   0  0  1  0  0  0  0  0  0  0  0  0
    2.9919   -2.2657    3.4464 C   0  0  1  0  0  0  0  0  0  0  0  0
    1.7212   -2.6349    2.9138 O   0  0  0  0  0  0  0  0  0  0  0  0
    1.0745   -3.7886    3.6284 O   0  0  0  0  0  0  0  0  0  0  0  0
    0.3978   -0.6133    2.8355 H   0  0  0  0  0  0  0  0  0  0  0  0
    0.1945    1.0153    3.4415 H   0  0  0  0  0  0  0  0  0  0  0  0
    0.0412   -0.3452    4.5438 H   0  0  0  0  0  0  0  0  0  0  0  0
    2.1945    0.8995    4.7924 H   0  0  0  0  0  0  0  0  0  0  0  0
    2.3625    1.5521    2.3910 H   0  0  0  0  0  0  0  0  0  0  0  0
    3.8321    1.0340    3.1526 H   0  0  0  0  0  0  0  0  0  0  0  0
    2.1637   -0.5876    1.2287 H   0  0  0  0  0  0  0  0  0  0  0  0
    3.7429    0.2415    1.1329 H   0  0  0  0  0  0  0  0  0  0  0  0
    4.7642   -1.3086    2.6514 H   0  0  0  0  0  0  0  0  0  0  0  0
    3.2083   -3.2012    0.8351 H   0  0  0  0  0  0  0  0  0  0  0  0
    6.1639   -0.7659    0.8165 H   0  0  0  0  0  0  0  0  0  0  0  0
    6.8498   -1.4354   -0.6969 H   0  0  0  0  0  0  0  0  0  0  0  0
    6.9263   -2.3634    0.7547 H   0  0  0  0  0  0  0  0  0  0  0  0
    5.4969   -4.4361   -0.7452 H   0  0  0  0  0  0  0  0  0  0  0  0
    5.0972   -4.4003   -3.0108 H   0  0  0  0  0  0  0  0  0  0  0  0
    5.4313   -0.5307   -2.3974 H   0  0  0  0  0  0  0  0  0  0  0  0
    3.7506   -0.3036   -2.8458 H   0  0  0  0  0  0  0  0  0  0  0  0
    3.0139   -1.5061   -0.9220 H   0  0  0  0  0  0  0  0  0  0  0  0
    4.2252   -0.2092   -0.6140 H   0  0  0  0  0  0  0  0  0  0  0  0
    5.3038   -4.6871    1.2517 H   0  0  0  0  0  0  0  0  0  0  0  0
    5.8529   -3.4623    2.3820 H   0  0  0  0  0  0  0  0  0  0  0  0
    3.2507   -4.9422    2.4856 H   0  0  0  0  0  0  0  0  0  0  0  0
    5.8530   -5.4135    4.0425 H   0  0  0  0  0  0  0  0  0  0  0  0
    5.2098   -6.4364    2.7623 H   0  0  0  0  0  0  0  0  0  0  0  0
    4.3280   -6.2803    4.2690 H   0  0  0  0  0  0  0  0  0  0  0  0
    4.6261   -3.1795    4.5424 H   0  0  0  0  0  0  0  0  0  0  0  0
    1.0887   -6.0482    4.7937 H   0  0  0  0  0  0  0  0  0  0  0  0
   -0.2070   -5.1220    5.4940 H   0  0  0  0  0  0  0  0  0  0  0  0
    1.2120   -5.5204    6.4497 H   0  0  0  0  0  0  0  0  0  0  0  0
    0.2382   -2.3524    5.6296 H   0  0  0  0  0  0  0  0  0  0  0  0
    1.1514   -3.0906    6.9097 H   0  0  0  0  0  0  0  0  0  0  0  0
    1.9057   -0.7674    6.4457 H   0  0  0  0  0  0  0  0  0  0  0  0
    3.1418   -1.9853    6.4540 H   0  0  0  0  0  0  0  0  0  0  0  0
    3.8023   -0.8219    4.7400 H   0  0  0  0  0  0  0  0  0  0  0  0
  1  2  1  0
  1 28  1  0
  1 29  1  0
  1 30  1  0
  2 24  1  0
  2  3  1  0
  2 31  1  1
  3  4  1  0
  3 32  1  0
  3 33  1  0
  4  5  1  0
  4 34  1  0
  4 35  1  0
  5 25  1  0
  5  6  1  0
  5 36  1  1
  6  7  1  0
  6 15  1  0
  6 37  1  6
  7 14  1  0
  7  8  1  1
  7  9  1  0
  8 38  1  0
  8 39  1  0
  8 40  1  0
  9 10  2  0
  9 41  1  0
 10 11  1  0
 10 42  1  0
 11 12  2  0
 11 13  1  0
 13 14  1  0
 13 43  1  0
 13 44  1  0
 14 45  1  0
 14 46  1  0
 15 16  1  0
 15 47  1  0
 15 48  1  0
 16 17  1  0
 16 18  1  0
 16 49  1  6
 17 50  1  0
 17 51  1  0
 17 52  1  0
 18 25  1  0
 18 19  1  0
 18 53  1  1
 19 20  1  0
 20 27  1  0
 20 21  1  1
 20 22  1  0
 21 54  1  0
 21 55  1  0
 21 56  1  0
 22 23  1  0
 22 57  1  0
 22 58  1  0
 23 24  1  0
 23 59  1  0
 23 60  1  0
 24 25  1  0
 24 61  1  1
 25 26  1  6
 26 27  1  0
M  END
>  <i_m_ct_stereo_status>  (243) 
1

>  <s_m_source_file>  (243) 
/var/tmp/pbs.5076255.sched01/tmp1t990xkq/82z3oanzij.sdf

>  <i_m_source_file_index>  (243) 
20

>  <i_lp_mmshare_version>  (243) 
48012

>  <i_f3d_flags>  (243) 
0

>  <s_epik_input>  (243) 
W0NAXTEyM1tDQEBIXTRbQ0gyXVtDSDJdW0NAQEhdKFtDSDNdKVtDQEhdMltDSDJdW0NIMl1bQ0BAXShbQ0gzXSkoT08zKU9bQ0BIXTFbQ0BIXShbQ0gzXSlbQ0gyXVtDQEBIXTRbQ0BAXTUoW0NIM10pW0NIXT1bQ0hdQyg9TylbQ0gyXVtDSDJdNQ==

>  <s_epik_cmdline>  (243) 
J2VwaWtfcHl0aG9uJywgJy1waHQnLCAnMi4wJywgJy1waCcsICc3LjAnLCAnLXRuJywgJzgnLCAnLW1hJywgJzIwMCcsICctaW1hZScsICc8aW5maWxlLm1hZT4nLCAnLW9tYWUnLCAnPG91dGZpbGUubWFlPic=

>  <r_lp_tautomer_probability>  (243) 
1

>  <r_epik_Ionization_Penalty>  (243) 
2.89428e-14

>  <r_epik_Ionization_Penalty_Charging>  (243) 
0

>  <r_epik_Ionization_Penalty_Neutral>  (243) 
2.89428e-14

>  <r_epik_State_Penalty>  (243) 
-0

>  <r_epik_Charging_Adjusted_Penalty>  (243) 
0

>  <i_epik_Tot_Q>  (243) 
0

>  <i_epik_Tot_abs_Q>  (243) 
0

>  <s_lp_Force_Field>  (243) 
OPLS3e

>  <r_lp_Energy>  (243) 
50.521

>  <b_lp_Chiralities_Consistent>  (243) 
1

>  <s_lp_Variant>  (243) 
69:0-1

>  <s_i_glide_gridfile>  (243) 
pfpi4k_grid

>  <i_i_glide_lignum>  (243) 
20

>  <i_i_glide_rotatable_bonds>  (243) 
1

>  <r_i_docking_score>  (243) 
-3.05344

>  <r_i_glide_ligand_efficiency>  (243) 
-0.11309

>  <r_i_glide_ligand_efficiency_sa>  (243) 
-0.339271

>  <r_i_glide_ligand_efficiency_ln>  (243) 
-0.71079

>  <r_i_glide_gscore>  (243) 
-3.05344

>  <r_i_glide_lipo>  (243) 
-0.23201

>  <r_i_glide_hbond>  (243) 
-0.32

>  <r_i_glide_metal>  (243) 
-0

>  <r_i_glide_rewards>  (243) 
-1.01181

>  <r_i_glide_evdw>  (243) 
-26.8413

>  <r_i_glide_ecoul>  (243) 
-1.90275

>  <r_i_glide_erotb>  (243) 
0.137864

>  <r_i_glide_esite>  (243) 
0

>  <r_i_glide_emodel>  (243) 
-30.5058

>  <r_i_glide_energy>  (243) 
-28.7441

>  <r_i_glide_einternal>  (243) 
6.80603

>  <r_i_glide_intrahb_reward>  (243) 
-0

>  <i_i_glide_confnum>  (243) 
4

>  <i_i_glide_posenum>  (243) 
5

>  <r_i_glide_eff_state_penalty>  (243) 
0

>  <ligand_id>  (243) 
69

>  <original_smiles>  (243) 
CC1CCC2C(C3(C)C=CC(=O)CC3)CC(C)C3OC4(C)CCC1C23OO4

>  <smiles>  (243) 
[H]C1=C([H])C(C([H])([H])[H])(C2([H])C([H])([H])C([H])(C([H])([H])[H])C3([H])OC4(C([H])([H])[H])OOC35C([H])(C([H])([H])C4([H])[H])C([H])(C([H])([H])[H])C([H])([H])C([H])([H])C25[H])C([H])([H])C([H])([H])C1=O

$$$$
69:0:2
     RDKit          3D

 61 65  0  0  1  0  0  0  0  0999 V2000
    0.2092   -4.0146    5.2879 C   0  0  0  0  0  0  0  0  0  0  0  0
    1.5314   -4.6920    5.6691 C   0  0  2  0  0  0  0  0  0  0  0  0
    2.7070   -3.8159    5.2663 C   0  0  0  0  0  0  0  0  0  0  0  0
    3.0111   -3.8825    3.7863 C   0  0  0  0  0  0  0  0  0  0  0  0
    3.2664   -5.3139    3.2422 C   0  0  2  0  0  0  0  0  0  0  0  0
    3.6763   -5.4594    1.7193 C   0  0  1  0  0  0  0  0  0  0  0  0
    4.8461   -4.5363    1.1753 C   0  0  1  0  0  0  0  0  0  0  0  0
    6.1593   -4.8724    1.9316 C   0  0  0  0  0  0  0  0  0  0  0  0
    5.0792   -4.7847   -0.3383 C   0  0  0  0  0  0  0  0  0  0  0  0
    5.2705   -3.8392   -1.2779 C   0  0  0  0  0  0  0  0  0  0  0  0
    5.3482   -2.4115   -0.9553 C   0  0  0  0  0  0  0  0  0  0  0  0
    5.4513   -1.5109   -1.8159 O   0  0  0  0  0  0  0  0  0  0  0  0
    5.3495   -2.0630    0.5277 C   0  0  0  0  0  0  0  0  0  0  0  0
    4.5082   -3.0260    1.3483 C   0  0  0  0  0  0  0  0  0  0  0  0
    3.9802   -6.9794    1.4730 C   0  0  0  0  0  0  0  0  0  0  0  0
    2.7512   -7.8519    1.6974 C   0  0  1  0  0  0  0  0  0  0  0  0
    3.0793   -9.2992    1.2972 C   0  0  0  0  0  0  0  0  0  0  0  0
    2.2716   -7.7128    3.1553 C   0  0  2  0  0  0  0  0  0  0  0  0
    1.1090   -8.5404    3.2847 O   0  0  0  0  0  0  0  0  0  0  0  0
   -0.1076   -7.8353    3.3716 C   0  0  1  0  0  0  0  0  0  0  0  0
   -1.1621   -8.7766    2.7691 C   0  0  0  0  0  0  0  0  0  0  0  0
   -0.4303   -7.5257    4.8501 C   0  0  0  0  0  0  0  0  0  0  0  0
    0.7835   -7.1680    5.7193 C   0  0  0  0  0  0  0  0  0  0  0  0
    1.7569   -6.1313    5.1325 C   0  0  1  0  0  0  0  0  0  0  0  0
    2.0336   -6.2333    3.5959 C   0  0  1  0  0  0  0  0  0  0  0  0
    0.9235   -5.6731    2.8873 O   0  0  0  0  0  0  0  0  0  0  0  0
   -0.1534   -6.6877    2.5355 O   0  0  0  0  0  0  0  0  0  0  0  0
    0.1326   -3.8156    4.2197 H   0  0  0  0  0  0  0  0  0  0  0  0
    0.1080   -3.0562    5.7986 H   0  0  0  0  0  0  0  0  0  0  0  0
   -0.6233   -4.6425    5.5933 H   0  0  0  0  0  0  0  0  0  0  0  0
    1.5592   -4.7339    6.7621 H   0  0  0  0  0  0  0  0  0  0  0  0
    2.5479   -2.7787    5.5680 H   0  0  0  0  0  0  0  0  0  0  0  0
    3.5991   -4.1409    5.8041 H   0  0  0  0  0  0  0  0  0  0  0  0
    2.2461   -3.3654    3.2118 H   0  0  0  0  0  0  0  0  0  0  0  0
    3.9251   -3.3077    3.7993 H   0  0  0  0  0  0  0  0  0  0  0  0
    4.1065   -5.6996    3.8242 H   0  0  0  0  0  0  0  0  0  0  0  0
    2.7903   -5.2195    1.1235 H   0  0  0  0  0  0  0  0  0  0  0  0
    6.0722   -4.6445    2.9972 H   0  0  0  0  0  0  0  0  0  0  0  0
    7.0071   -4.3162    1.5259 H   0  0  0  0  0  0  0  0  0  0  0  0
    6.4475   -5.9259    1.8497 H   0  0  0  0  0  0  0  0  0  0  0  0
    5.0914   -5.7994   -0.7263 H   0  0  0  0  0  0  0  0  0  0  0  0
    5.3966   -4.1425   -2.3149 H   0  0  0  0  0  0  0  0  0  0  0  0
    6.3738   -2.0996    0.9061 H   0  0  0  0  0  0  0  0  0  0  0  0
    4.9819   -1.0526    0.6775 H   0  0  0  0  0  0  0  0  0  0  0  0
    3.4566   -2.8437    1.1253 H   0  0  0  0  0  0  0  0  0  0  0  0
    4.7647   -2.6443    2.3340 H   0  0  0  0  0  0  0  0  0  0  0  0
    4.3166   -7.2063    0.4592 H   0  0  0  0  0  0  0  0  0  0  0  0
    4.7622   -7.3354    2.1504 H   0  0  0  0  0  0  0  0  0  0  0  0
    1.9756   -7.4767    1.0299 H   0  0  0  0  0  0  0  0  0  0  0  0
    3.8616   -9.7369    1.9211 H   0  0  0  0  0  0  0  0  0  0  0  0
    3.4248   -9.3634    0.2655 H   0  0  0  0  0  0  0  0  0  0  0  0
    2.1873   -9.9163    1.3724 H   0  0  0  0  0  0  0  0  0  0  0  0
    3.0437   -8.1431    3.7978 H   0  0  0  0  0  0  0  0  0  0  0  0
   -0.9413   -8.9676    1.7209 H   0  0  0  0  0  0  0  0  0  0  0  0
   -2.1620   -8.3524    2.8106 H   0  0  0  0  0  0  0  0  0  0  0  0
   -1.1893   -9.7457    3.2675 H   0  0  0  0  0  0  0  0  0  0  0  0
   -1.1958   -6.7567    4.9100 H   0  0  0  0  0  0  0  0  0  0  0  0
   -0.8661   -8.4133    5.3120 H   0  0  0  0  0  0  0  0  0  0  0  0
    0.4582   -6.8266    6.7035 H   0  0  0  0  0  0  0  0  0  0  0  0
    1.3546   -8.0786    5.9031 H   0  0  0  0  0  0  0  0  0  0  0  0
    2.7113   -6.4125    5.5778 H   0  0  0  0  0  0  0  0  0  0  0  0
  1  2  1  0
  1 28  1  0
  1 29  1  0
  1 30  1  0
  2 24  1  0
  2  3  1  0
  2 31  1  1
  3  4  1  0
  3 32  1  0
  3 33  1  0
  4  5  1  0
  4 34  1  0
  4 35  1  0
  5 25  1  0
  5  6  1  0
  5 36  1  1
  6  7  1  0
  6 15  1  0
  6 37  1  6
  7 14  1  0
  7  8  1  1
  7  9  1  0
  8 38  1  0
  8 39  1  0
  8 40  1  0
  9 10  2  0
  9 41  1  0
 10 11  1  0
 10 42  1  0
 11 12  2  0
 11 13  1  0
 13 14  1  0
 13 43  1  0
 13 44  1  0
 14 45  1  0
 14 46  1  0
 15 16  1  0
 15 47  1  0
 15 48  1  0
 16 17  1  0
 16 18  1  0
 16 49  1  6
 17 50  1  0
 17 51  1  0
 17 52  1  0
 18 25  1  0
 18 19  1  0
 18 53  1  1
 19 20  1  0
 20 27  1  0
 20 21  1  6
 20 22  1  0
 21 54  1  0
 21 55  1  0
 21 56  1  0
 22 23  1  0
 22 57  1  0
 22 58  1  0
 23 24  1  0
 23 59  1  0
 23 60  1  0
 24 25  1  0
 24 61  1  1
 25 26  1  6
 26 27  1  0
M  END
>  <i_m_ct_stereo_status>  (244) 
1

>  <s_m_source_file>  (244) 
/var/tmp/pbs.5076255.sched01/tmp1t990xkq/82z3oanzij.sdf

>  <i_m_source_file_index>  (244) 
20

>  <i_lp_mmshare_version>  (244) 
48012

>  <i_f3d_flags>  (244) 
0

>  <s_epik_input>  (244) 
W0NAXTEyM1tDQEBIXTRbQ0gyXVtDSDJdW0NAQEhdKFtDSDNdKVtDQEhdMltDSDJdW0NIMl1bQ0BAXShbQ0gzXSkoT08zKU9bQ0BIXTFbQ0BIXShbQ0gzXSlbQ0gyXVtDQEBIXTRbQ0BAXTUoW0NIM10pW0NIXT1bQ0hdQyg9TylbQ0gyXVtDSDJdNQ==

>  <s_epik_cmdline>  (244) 
J2VwaWtfcHl0aG9uJywgJy1waHQnLCAnMi4wJywgJy1waCcsICc3LjAnLCAnLXRuJywgJzgnLCAnLW1hJywgJzIwMCcsICctaW1hZScsICc8aW5maWxlLm1hZT4nLCAnLW9tYWUnLCAnPG91dGZpbGUubWFlPic=

>  <r_lp_tautomer_probability>  (244) 
1

>  <r_epik_Ionization_Penalty>  (244) 
2.89428e-14

>  <r_epik_Ionization_Penalty_Charging>  (244) 
0

>  <r_epik_Ionization_Penalty_Neutral>  (244) 
2.89428e-14

>  <r_epik_State_Penalty>  (244) 
-0

>  <r_epik_Charging_Adjusted_Penalty>  (244) 
0

>  <i_epik_Tot_Q>  (244) 
0

>  <i_epik_Tot_abs_Q>  (244) 
0

>  <s_lp_Force_Field>  (244) 
OPLS3e

>  <r_lp_Energy>  (244) 
50.521

>  <b_lp_Chiralities_Consistent>  (244) 
1

>  <s_lp_Variant>  (244) 
69:0-1

>  <s_i_glide_gridfile>  (244) 
pfpi4k_grid

>  <i_i_glide_lignum>  (244) 
20

>  <i_i_glide_rotatable_bonds>  (244) 
1

>  <r_i_docking_score>  (244) 
-2.96051

>  <r_i_glide_ligand_efficiency>  (244) 
-0.109649

>  <r_i_glide_ligand_efficiency_sa>  (244) 
-0.328946

>  <r_i_glide_ligand_efficiency_ln>  (244) 
-0.689159

>  <r_i_glide_gscore>  (244) 
-2.96051

>  <r_i_glide_lipo>  (244) 
-0.276612

>  <r_i_glide_hbond>  (244) 
-0.16

>  <r_i_glide_metal>  (244) 
-0

>  <r_i_glide_rewards>  (244) 
-0.855589

>  <r_i_glide_evdw>  (244) 
-28.6578

>  <r_i_glide_ecoul>  (244) 
-2.09554

>  <r_i_glide_erotb>  (244) 
0.137864

>  <r_i_glide_esite>  (244) 
-0.0589524

>  <r_i_glide_emodel>  (244) 
-32.5851

>  <r_i_glide_energy>  (244) 
-30.7534

>  <r_i_glide_einternal>  (244) 
6.85137

>  <r_i_glide_intrahb_reward>  (244) 
-0

>  <i_i_glide_confnum>  (244) 
4

>  <i_i_glide_posenum>  (244) 
24

>  <r_i_glide_eff_state_penalty>  (244) 
0

>  <ligand_id>  (244) 
69

>  <original_smiles>  (244) 
CC1CCC2C(C3(C)C=CC(=O)CC3)CC(C)C3OC4(C)CCC1C23OO4

>  <smiles>  (244) 
[H]C1=C([H])C(C([H])([H])[H])(C2([H])C([H])([H])C([H])(C([H])([H])[H])C3([H])OC4(C([H])([H])[H])OOC35C([H])(C([H])([H])C4([H])[H])C([H])(C([H])([H])[H])C([H])([H])C([H])([H])C25[H])C([H])([H])C([H])([H])C1=O

$$$$
70:0:0
     RDKit          3D

 77 83  0  0  1  0  0  0  0  0999 V2000
   -0.2413   -9.8376    7.2581 C   0  0  0  0  0  0  0  0  0  0  0  0
    0.5702   -9.2175    6.1136 C   0  0  0  0  0  0  0  0  0  0  0  0
    1.1054  -10.4045    5.2691 C   0  0  0  0  0  0  0  0  0  0  0  0
   -0.3971   -8.4986    5.3205 O   0  0  0  0  0  0  0  0  0  0  0  0
    0.0800   -7.5519    4.3532 C   0  0  0  0  0  0  0  0  0  0  0  0
    1.1544   -6.6420    5.0045 C   0  0  1  0  0  0  0  0  0  0  0  0
    0.5499   -6.1110    6.3402 C   0  0  0  0  0  0  0  0  0  0  0  0
    1.1485   -7.0141    7.4191 C   0  0  1  0  0  0  0  0  0  0  0  0
    0.2835   -7.2374    8.5170 O   0  0  0  0  0  0  0  0  0  0  0  0
    1.6934   -8.2390    6.6370 C   0  0  2  0  0  0  0  0  0  0  0  0
    2.3088   -7.5652    5.3908 C   0  0  2  0  0  0  0  0  0  0  0  0
    3.6617   -6.7608    5.3471 C   0  0  0  0  0  0  0  0  0  0  0  0
    4.4245   -6.6875    6.7039 C   0  0  0  0  0  0  0  0  0  0  0  0
    4.6334   -7.5492    4.4301 C   0  0  0  0  0  0  0  0  0  0  0  0
    3.2605   -5.3538    4.7314 C   0  0  2  0  0  0  0  0  0  0  0  0
    3.0492   -4.4580    5.8049 O   0  0  0  0  0  0  0  0  0  0  0  0
    1.8218   -5.5344    4.1429 C   0  0  1  0  0  0  0  0  0  0  0  0
    1.8249   -5.8452    2.6302 C   0  0  0  0  0  0  0  0  0  0  0  0
    2.7012   -4.8768    1.8243 C   0  0  1  0  0  0  0  0  0  0  0  0
    2.2163   -3.5610    2.0073 O   0  0  0  0  0  0  0  0  0  0  0  0
    4.1628   -5.0300    2.2890 C   0  0  1  0  0  0  0  0  0  0  0  0
    5.2931   -4.4623    1.3444 C   0  0  1  0  0  0  0  0  0  0  0  0
    6.5982   -5.2678    1.6103 C   0  0  0  0  0  0  0  0  0  0  0  0
    5.0065   -4.8044   -0.1223 C   0  0  0  0  0  0  0  0  0  0  0  0
    5.2367   -4.0071   -1.1774 C   0  0  0  0  0  0  0  0  0  0  0  0
    5.7446   -2.6552   -0.9814 C   0  0  0  0  0  0  0  0  0  0  0  0
    6.4104   -2.0725   -1.8410 O   0  0  0  0  0  0  0  0  0  0  0  0
    5.3584   -1.9570    0.3333 C   0  0  0  0  0  0  0  0  0  0  0  0
    6.2074   -0.6774    0.5183 C   0  0  0  0  0  0  0  0  0  0  0  0
    3.8820   -1.5291    0.1455 C   0  0  0  0  0  0  0  0  0  0  0  0
    5.6169   -2.9272    1.5509 C   0  0  1  0  0  0  0  0  0  0  0  0
    5.1755   -2.3136    2.9152 C   0  0  0  0  0  0  0  0  0  0  0  0
    4.8118   -3.2568    4.0478 C   0  0  2  0  0  0  0  0  0  0  0  0
    5.5920   -4.4355    4.2718 O   0  0  0  0  0  0  0  0  0  0  0  0
    4.2638   -4.6277    3.7659 C   0  0  1  0  0  0  0  0  0  0  0  0
    0.3921  -10.2281    8.0583 H   0  0  0  0  0  0  0  0  0  0  0  0
   -0.8528  -10.6602    6.8891 H   0  0  0  0  0  0  0  0  0  0  0  0
   -0.9591   -9.1372    7.6826 H   0  0  0  0  0  0  0  0  0  0  0  0
    1.9365  -10.8926    5.7753 H   0  0  0  0  0  0  0  0  0  0  0  0
    1.4294  -10.1300    4.2706 H   0  0  0  0  0  0  0  0  0  0  0  0
    0.3380  -11.1644    5.1237 H   0  0  0  0  0  0  0  0  0  0  0  0
    0.4719   -8.0923    3.4921 H   0  0  0  0  0  0  0  0  0  0  0  0
   -0.7688   -6.9628    4.0034 H   0  0  0  0  0  0  0  0  0  0  0  0
    0.7751   -5.0677    6.5521 H   0  0  0  0  0  0  0  0  0  0  0  0
   -0.5390   -6.1770    6.3351 H   0  0  0  0  0  0  0  0  0  0  0  0
    1.9771   -6.4845    7.8714 H   0  0  0  0  0  0  0  0  0  0  0  0
    0.7446   -7.7739    9.1474 H   0  0  0  0  0  0  0  0  0  0  0  0
    2.4199   -8.8014    7.2213 H   0  0  0  0  0  0  0  0  0  0  0  0
    2.4186   -8.3158    4.6172 H   0  0  0  0  0  0  0  0  0  0  0  0
    5.4248   -6.2718    6.5665 H   0  0  0  0  0  0  0  0  0  0  0  0
    4.5514   -7.6847    7.1331 H   0  0  0  0  0  0  0  0  0  0  0  0
    3.9527   -6.0756    7.4673 H   0  0  0  0  0  0  0  0  0  0  0  0
    5.5624   -7.0041    4.2510 H   0  0  0  0  0  0  0  0  0  0  0  0
    4.1924   -7.7942    3.4637 H   0  0  0  0  0  0  0  0  0  0  0  0
    4.9089   -8.5049    4.8827 H   0  0  0  0  0  0  0  0  0  0  0  0
    3.8782   -4.3458    6.2446 H   0  0  0  0  0  0  0  0  0  0  0  0
    1.2511   -4.6090    4.2538 H   0  0  0  0  0  0  0  0  0  0  0  0
    2.1844   -6.8611    2.4628 H   0  0  0  0  0  0  0  0  0  0  0  0
    0.8075   -5.8138    2.2473 H   0  0  0  0  0  0  0  0  0  0  0  0
    2.5981   -5.1237    0.7670 H   0  0  0  0  0  0  0  0  0  0  0  0
    2.7022   -2.9747    1.4460 H   0  0  0  0  0  0  0  0  0  0  0  0
    4.3319   -6.0988    2.2477 H   0  0  0  0  0  0  0  0  0  0  0  0
    7.0351   -5.0915    2.5916 H   0  0  0  0  0  0  0  0  0  0  0  0
    7.3774   -5.0063    0.8915 H   0  0  0  0  0  0  0  0  0  0  0  0
    6.4349   -6.3455    1.5197 H   0  0  0  0  0  0  0  0  0  0  0  0
    4.6367   -5.8059   -0.3054 H   0  0  0  0  0  0  0  0  0  0  0  0
    5.0612   -4.3446   -2.1902 H   0  0  0  0  0  0  0  0  0  0  0  0
    5.8991   -0.1160    1.4019 H   0  0  0  0  0  0  0  0  0  0  0  0
    6.1096    0.0009   -0.3254 H   0  0  0  0  0  0  0  0  0  0  0  0
    7.2663   -0.9171    0.6194 H   0  0  0  0  0  0  0  0  0  0  0  0
    3.4708   -0.9748    0.9891 H   0  0  0  0  0  0  0  0  0  0  0  0
    3.2289   -2.3771   -0.0656 H   0  0  0  0  0  0  0  0  0  0  0  0
    3.7863   -0.8580   -0.7102 H   0  0  0  0  0  0  0  0  0  0  0  0
    6.7062   -2.9036    1.6371 H   0  0  0  0  0  0  0  0  0  0  0  0
    5.9464   -1.6313    3.2719 H   0  0  0  0  0  0  0  0  0  0  0  0
    4.3067   -1.6777    2.7854 H   0  0  0  0  0  0  0  0  0  0  0  0
    4.5651   -2.7432    4.9692 H   0  0  0  0  0  0  0  0  0  0  0  0
  1  2  1  0
  1 36  1  0
  1 37  1  0
  1 38  1  0
  2 10  1  0
  2  3  1  0
  2  4  1  0
  3 39  1  0
  3 40  1  0
  3 41  1  0
  4  5  1  0
  6  5  1  6
  5 42  1  0
  5 43  1  0
  6 11  1  0
  6 17  1  0
  6  7  1  0
  7  8  1  0
  7 44  1  0
  7 45  1  0
  8  9  1  0
  8 10  1  0
  8 46  1  1
  9 47  1  0
 10 11  1  0
 10 48  1  1
 11 12  1  0
 11 49  1  6
 12 13  1  0
 12 14  1  0
 12 15  1  0
 13 50  1  0
 13 51  1  0
 13 52  1  0
 14 53  1  0
 14 54  1  0
 14 55  1  0
 15 35  1  0
 15 16  1  1
 15 17  1  0
 16 56  1  0
 17 18  1  0
 17 57  1  6
 18 19  1  0
 18 58  1  0
 18 59  1  0
 19 20  1  0
 19 21  1  0
 19 60  1  6
 20 61  1  0
 21 35  1  0
 21 22  1  0
 21 62  1  1
 22 31  1  0
 22 23  1  1
 22 24  1  0
 23 63  1  0
 23 64  1  0
 23 65  1  0
 24 25  2  0
 24 66  1  0
 25 26  1  0
 25 67  1  0
 26 27  2  0
 26 28  1  0
 28 29  1  0
 28 30  1  0
 28 31  1  0
 29 68  1  0
 29 69  1  0
 29 70  1  0
 30 71  1  0
 30 72  1  0
 30 73  1  0
 31 32  1  0
 31 74  1  1
 32 33  1  0
 32 75  1  0
 32 76  1  0
 33 35  1  0
 33 34  1  0
 33 77  1  1
 35 34  1  1
M  END
>  <i_m_ct_stereo_status>  (245) 
1

>  <s_m_source_file>  (245) 
/var/tmp/pbs.5076255.sched01/tmp1t990xkq/82z3oanzij.sdf

>  <i_m_source_file_index>  (245) 
21

>  <i_lp_mmshare_version>  (245) 
48012

>  <i_f3d_flags>  (245) 
0

>  <s_epik_input>  (245) 
W0NIMl0xT0MoW0NIM10pKFtDSDNdKVtDQEhdKFtDQEBIXShbQ0gyXTIpW09IXSlbQ0BASF0oW0NAQF0xMjMpQyhbQ0gzXSkoW0NIM10pW0NAQF00KFtPSF0pW0NAQF01NltDQEBIXShbQ0BIXShbT0hdKVtDSDJdW0NAQEhdMzQpW0NAXTcoW0NIM10pW0NASF0oW0NIMl1bQ0BASF01TzYpQyhbQ0gzXSkoW0NIM10pQyg9TylbQ0hdPVtDSF03

>  <s_epik_cmdline>  (245) 
J2VwaWtfcHl0aG9uJywgJy1waHQnLCAnMi4wJywgJy1waCcsICc3LjAnLCAnLXRuJywgJzgnLCAnLW1hJywgJzIwMCcsICctaW1hZScsICc8aW5maWxlLm1hZT4nLCAnLW9tYWUnLCAnPG91dGZpbGUubWFlPic=

>  <r_lp_tautomer_probability>  (245) 
1

>  <r_epik_Ionization_Penalty>  (245) 
6.20112e-07

>  <r_epik_Ionization_Penalty_Charging>  (245) 
0

>  <r_epik_Ionization_Penalty_Neutral>  (245) 
6.20112e-07

>  <r_epik_State_Penalty>  (245) 
-0

>  <r_epik_Charging_Adjusted_Penalty>  (245) 
0

>  <i_epik_Tot_Q>  (245) 
0

>  <i_epik_Tot_abs_Q>  (245) 
0

>  <s_lp_Force_Field>  (245) 
OPLS3e

>  <r_lp_Energy>  (245) 
91.1819

>  <b_lp_Chiralities_Consistent>  (245) 
1

>  <s_lp_Variant>  (245) 
70:0-1

>  <s_i_glide_gridfile>  (245) 
pfpi4k_grid

>  <i_i_glide_lignum>  (245) 
21

>  <i_i_glide_rotatable_bonds>  (245) 
3

>  <r_i_docking_score>  (245) 
-2.49706

>  <r_i_glide_ligand_efficiency>  (245) 
-0.0713446

>  <r_i_glide_ligand_efficiency_sa>  (245) 
-0.233373

>  <r_i_glide_ligand_efficiency_ln>  (245) 
-0.54816

>  <r_i_glide_gscore>  (245) 
-2.49706

>  <r_i_glide_lipo>  (245) 
-0.444711

>  <r_i_glide_hbond>  (245) 
-0.156863

>  <r_i_glide_metal>  (245) 
-0

>  <r_i_glide_rewards>  (245) 
-0.0910897

>  <r_i_glide_evdw>  (245) 
-27.2877

>  <r_i_glide_ecoul>  (245) 
-2.87357

>  <r_i_glide_erotb>  (245) 
0

>  <r_i_glide_esite>  (245) 
-0.00897533

>  <r_i_glide_emodel>  (245) 
-34.7012

>  <r_i_glide_energy>  (245) 
-30.1613

>  <r_i_glide_einternal>  (245) 
0.667262

>  <r_i_glide_intrahb_reward>  (245) 
-0

>  <i_i_glide_confnum>  (245) 
2

>  <i_i_glide_posenum>  (245) 
11

>  <r_i_glide_eff_state_penalty>  (245) 
0

>  <ligand_id>  (245) 
70

>  <original_smiles>  (245) 
CC1(C)OCC23CC(O)C1C2C(C)(C)C1(O)C3CC(O)C2C3(C)C=CC(=O)C(C)(C)C3CC3OC321

>  <smiles>  (245) 
[H]OC1([H])C([H])([H])C23C([H])([H])OC(C([H])([H])[H])(C([H])([H])[H])C1([H])C2([H])C(C([H])([H])[H])(C([H])([H])[H])C1(O[H])C3([H])C([H])([H])C([H])(O[H])C2([H])C13OC3([H])C([H])([H])C1([H])C(C([H])([H])[H])(C([H])([H])[H])C(=O)C([H])=C([H])C21C([H])([H])[H]

$$$$
70:0:1
     RDKit          3D

 77 83  0  0  1  0  0  0  0  0999 V2000
   -0.2379   -9.8258    7.2622 C   0  0  0  0  0  0  0  0  0  0  0  0
    0.5698   -9.2094    6.1129 C   0  0  0  0  0  0  0  0  0  0  0  0
    1.0909  -10.3938    5.2586 C   0  0  0  0  0  0  0  0  0  0  0  0
   -0.3993   -8.4784    5.3321 O   0  0  0  0  0  0  0  0  0  0  0  0
    0.0772   -7.5286    4.3664 C   0  0  0  0  0  0  0  0  0  0  0  0
    1.1631   -6.6290    5.0136 C   0  0  1  0  0  0  0  0  0  0  0  0
    0.5756   -6.1010    6.3574 C   0  0  0  0  0  0  0  0  0  0  0  0
    1.1762   -7.0153    7.4246 C   0  0  1  0  0  0  0  0  0  0  0  0
    0.3194   -7.2188    8.5319 O   0  0  0  0  0  0  0  0  0  0  0  0
    1.7025   -8.2406    6.6335 C   0  0  2  0  0  0  0  0  0  0  0  0
    2.3133   -7.5638    5.3856 C   0  0  2  0  0  0  0  0  0  0  0  0
    3.6717   -6.7683    5.3356 C   0  0  0  0  0  0  0  0  0  0  0  0
    4.4461   -6.7076    6.6850 C   0  0  0  0  0  0  0  0  0  0  0  0
    4.6307   -7.5558    4.4047 C   0  0  0  0  0  0  0  0  0  0  0  0
    3.2779   -5.3520    4.7391 C   0  0  2  0  0  0  0  0  0  0  0  0
    3.0759   -4.4617    5.8227 O   0  0  0  0  0  0  0  0  0  0  0  0
    1.8323   -5.5205    4.1552 C   0  0  1  0  0  0  0  0  0  0  0  0
    1.8194   -5.8215    2.6398 C   0  0  0  0  0  0  0  0  0  0  0  0
    2.6960   -4.8504    1.8359 C   0  0  1  0  0  0  0  0  0  0  0  0
    2.2319   -3.5318    2.0482 O   0  0  0  0  0  0  0  0  0  0  0  0
    4.1604   -5.0199    2.2858 C   0  0  1  0  0  0  0  0  0  0  0  0
    5.2860   -4.4523    1.3362 C   0  0  1  0  0  0  0  0  0  0  0  0
    6.5887   -5.2678    1.5844 C   0  0  0  0  0  0  0  0  0  0  0  0
    4.9853   -4.7821   -0.1311 C   0  0  0  0  0  0  0  0  0  0  0  0
    5.2119   -3.9778   -1.1817 C   0  0  0  0  0  0  0  0  0  0  0  0
    5.7291   -2.6308   -0.9819 C   0  0  0  0  0  0  0  0  0  0  0  0
    6.3878   -2.0454   -1.8451 O   0  0  0  0  0  0  0  0  0  0  0  0
    5.3585   -1.9409    0.3414 C   0  0  0  0  0  0  0  0  0  0  0  0
    6.2122   -0.6691    0.5271 C   0  0  0  0  0  0  0  0  0  0  0  0
    3.8832   -1.4999    0.1718 C   0  0  0  0  0  0  0  0  0  0  0  0
    5.6210   -2.9192    1.5508 C   0  0  1  0  0  0  0  0  0  0  0  0
    5.1974   -2.3142    2.9242 C   0  0  0  0  0  0  0  0  0  0  0  0
    4.8415   -3.2642    4.0536 C   0  0  2  0  0  0  0  0  0  0  0  0
    5.6144   -4.4521    4.2520 O   0  0  0  0  0  0  0  0  0  0  0  0
    4.2767   -4.6298    3.7649 C   0  0  1  0  0  0  0  0  0  0  0  0
    0.4015  -10.2275    8.0527 H   0  0  0  0  0  0  0  0  0  0  0  0
   -0.8543  -10.6453    6.8925 H   0  0  0  0  0  0  0  0  0  0  0  0
   -0.9452   -9.1246    7.7001 H   0  0  0  0  0  0  0  0  0  0  0  0
    1.9223  -10.8913    5.7534 H   0  0  0  0  0  0  0  0  0  0  0  0
    1.4091  -10.1137    4.2581 H   0  0  0  0  0  0  0  0  0  0  0  0
    0.3173  -11.1477    5.1124 H   0  0  0  0  0  0  0  0  0  0  0  0
    0.4589   -8.0652    3.4978 H   0  0  0  0  0  0  0  0  0  0  0  0
   -0.7699   -6.9303    4.0281 H   0  0  0  0  0  0  0  0  0  0  0  0
    0.8062   -5.0608    6.5767 H   0  0  0  0  0  0  0  0  0  0  0  0
   -0.5135   -6.1622    6.3600 H   0  0  0  0  0  0  0  0  0  0  0  0
    2.0206   -6.5056    7.8701 H   0  0  0  0  0  0  0  0  0  0  0  0
    0.3374   -6.4329    9.0571 H   0  0  0  0  0  0  0  0  0  0  0  0
    2.4284   -8.8114    7.2103 H   0  0  0  0  0  0  0  0  0  0  0  0
    2.4126   -8.3111    4.6067 H   0  0  0  0  0  0  0  0  0  0  0  0
    5.4467   -6.2968    6.5407 H   0  0  0  0  0  0  0  0  0  0  0  0
    4.5683   -7.7065    7.1089 H   0  0  0  0  0  0  0  0  0  0  0  0
    3.9867   -6.0899    7.4508 H   0  0  0  0  0  0  0  0  0  0  0  0
    5.5614   -7.0151    4.2237 H   0  0  0  0  0  0  0  0  0  0  0  0
    4.1802   -7.7909    3.4401 H   0  0  0  0  0  0  0  0  0  0  0  0
    4.9026   -8.5153    4.8499 H   0  0  0  0  0  0  0  0  0  0  0  0
    2.8245   -3.6236    5.4695 H   0  0  0  0  0  0  0  0  0  0  0  0
    1.2581   -4.5980    4.2699 H   0  0  0  0  0  0  0  0  0  0  0  0
    2.1707   -6.8385    2.4618 H   0  0  0  0  0  0  0  0  0  0  0  0
    0.7975   -5.7811    2.2646 H   0  0  0  0  0  0  0  0  0  0  0  0
    2.5799   -5.0847    0.7763 H   0  0  0  0  0  0  0  0  0  0  0  0
    2.7087   -2.9437    1.4793 H   0  0  0  0  0  0  0  0  0  0  0  0
    4.3213   -6.0890    2.2342 H   0  0  0  0  0  0  0  0  0  0  0  0
    7.0378   -5.1018    2.5622 H   0  0  0  0  0  0  0  0  0  0  0  0
    7.3636   -5.0058    0.8609 H   0  0  0  0  0  0  0  0  0  0  0  0
    6.4172   -6.3443    1.4890 H   0  0  0  0  0  0  0  0  0  0  0  0
    4.6080   -5.7797   -0.3187 H   0  0  0  0  0  0  0  0  0  0  0  0
    5.0275   -4.3077   -2.1944 H   0  0  0  0  0  0  0  0  0  0  0  0
    5.9215   -0.1118    1.4173 H   0  0  0  0  0  0  0  0  0  0  0  0
    6.1199    0.0122   -0.3139 H   0  0  0  0  0  0  0  0  0  0  0  0
    7.2714   -0.9190    0.6191 H   0  0  0  0  0  0  0  0  0  0  0  0
    3.4855   -0.9489    1.0227 H   0  0  0  0  0  0  0  0  0  0  0  0
    3.2214   -2.3418   -0.0382 H   0  0  0  0  0  0  0  0  0  0  0  0
    3.7876   -0.8226   -0.6767 H   0  0  0  0  0  0  0  0  0  0  0  0
    6.7106   -2.9049    1.6298 H   0  0  0  0  0  0  0  0  0  0  0  0
    5.9756   -1.6375    3.2772 H   0  0  0  0  0  0  0  0  0  0  0  0
    4.3313   -1.6721    2.8084 H   0  0  0  0  0  0  0  0  0  0  0  0
    4.6186   -2.7615    4.9860 H   0  0  0  0  0  0  0  0  0  0  0  0
  1  2  1  0
  1 36  1  0
  1 37  1  0
  1 38  1  0
  2 10  1  0
  2  3  1  0
  2  4  1  0
  3 39  1  0
  3 40  1  0
  3 41  1  0
  4  5  1  0
  6  5  1  6
  5 42  1  0
  5 43  1  0
  6 11  1  0
  6 17  1  0
  6  7  1  0
  7  8  1  0
  7 44  1  0
  7 45  1  0
  8  9  1  0
  8 10  1  0
  8 46  1  1
  9 47  1  0
 10 11  1  0
 10 48  1  1
 11 12  1  0
 11 49  1  6
 12 13  1  0
 12 14  1  0
 12 15  1  0
 13 50  1  0
 13 51  1  0
 13 52  1  0
 14 53  1  0
 14 54  1  0
 14 55  1  0
 15 35  1  0
 15 16  1  1
 15 17  1  0
 16 56  1  0
 17 18  1  0
 17 57  1  6
 18 19  1  0
 18 58  1  0
 18 59  1  0
 19 20  1  0
 19 21  1  0
 19 60  1  6
 20 61  1  0
 21 35  1  0
 21 22  1  0
 21 62  1  1
 22 31  1  0
 22 23  1  1
 22 24  1  0
 23 63  1  0
 23 64  1  0
 23 65  1  0
 24 25  2  0
 24 66  1  0
 25 26  1  0
 25 67  1  0
 26 27  2  0
 26 28  1  0
 28 29  1  0
 28 30  1  0
 28 31  1  0
 29 68  1  0
 29 69  1  0
 29 70  1  0
 30 71  1  0
 30 72  1  0
 30 73  1  0
 31 32  1  0
 31 74  1  1
 32 33  1  0
 32 75  1  0
 32 76  1  0
 33 35  1  0
 33 34  1  0
 33 77  1  1
 35 34  1  1
M  END
>  <i_m_ct_stereo_status>  (246) 
1

>  <s_m_source_file>  (246) 
/var/tmp/pbs.5076255.sched01/tmp1t990xkq/82z3oanzij.sdf

>  <i_m_source_file_index>  (246) 
21

>  <i_lp_mmshare_version>  (246) 
48012

>  <i_f3d_flags>  (246) 
0

>  <s_epik_input>  (246) 
W0NIMl0xT0MoW0NIM10pKFtDSDNdKVtDQEhdKFtDQEBIXShbQ0gyXTIpW09IXSlbQ0BASF0oW0NAQF0xMjMpQyhbQ0gzXSkoW0NIM10pW0NAQF00KFtPSF0pW0NAQF01NltDQEBIXShbQ0BIXShbT0hdKVtDSDJdW0NAQEhdMzQpW0NAXTcoW0NIM10pW0NASF0oW0NIMl1bQ0BASF01TzYpQyhbQ0gzXSkoW0NIM10pQyg9TylbQ0hdPVtDSF03

>  <s_epik_cmdline>  (246) 
J2VwaWtfcHl0aG9uJywgJy1waHQnLCAnMi4wJywgJy1waCcsICc3LjAnLCAnLXRuJywgJzgnLCAnLW1hJywgJzIwMCcsICctaW1hZScsICc8aW5maWxlLm1hZT4nLCAnLW9tYWUnLCAnPG91dGZpbGUubWFlPic=

>  <r_lp_tautomer_probability>  (246) 
1

>  <r_epik_Ionization_Penalty>  (246) 
6.20112e-07

>  <r_epik_Ionization_Penalty_Charging>  (246) 
0

>  <r_epik_Ionization_Penalty_Neutral>  (246) 
6.20112e-07

>  <r_epik_State_Penalty>  (246) 
-0

>  <r_epik_Charging_Adjusted_Penalty>  (246) 
0

>  <i_epik_Tot_Q>  (246) 
0

>  <i_epik_Tot_abs_Q>  (246) 
0

>  <s_lp_Force_Field>  (246) 
OPLS3e

>  <r_lp_Energy>  (246) 
91.1819

>  <b_lp_Chiralities_Consistent>  (246) 
1

>  <s_lp_Variant>  (246) 
70:0-1

>  <s_i_glide_gridfile>  (246) 
pfpi4k_grid

>  <i_i_glide_lignum>  (246) 
21

>  <i_i_glide_rotatable_bonds>  (246) 
3

>  <r_i_docking_score>  (246) 
-2.40783

>  <r_i_glide_ligand_efficiency>  (246) 
-0.0687952

>  <r_i_glide_ligand_efficiency_sa>  (246) 
-0.225034

>  <r_i_glide_ligand_efficiency_ln>  (246) 
-0.528573

>  <r_i_glide_gscore>  (246) 
-2.40783

>  <r_i_glide_lipo>  (246) 
-0.446037

>  <r_i_glide_hbond>  (246) 
-0.153982

>  <r_i_glide_metal>  (246) 
-0

>  <r_i_glide_rewards>  (246) 
-0.0910897

>  <r_i_glide_evdw>  (246) 
-27.2538

>  <r_i_glide_ecoul>  (246) 
-2.29197

>  <r_i_glide_erotb>  (246) 
0

>  <r_i_glide_esite>  (246) 
-0.0102366

>  <r_i_glide_emodel>  (246) 
-33.6943

>  <r_i_glide_energy>  (246) 
-29.5458

>  <r_i_glide_einternal>  (246) 
0.841322

>  <r_i_glide_intrahb_reward>  (246) 
-0

>  <i_i_glide_confnum>  (246) 
2

>  <i_i_glide_posenum>  (246) 
1

>  <r_i_glide_eff_state_penalty>  (246) 
0

>  <ligand_id>  (246) 
70

>  <original_smiles>  (246) 
CC1(C)OCC23CC(O)C1C2C(C)(C)C1(O)C3CC(O)C2C3(C)C=CC(=O)C(C)(C)C3CC3OC321

>  <smiles>  (246) 
[H]OC1([H])C([H])([H])C23C([H])([H])OC(C([H])([H])[H])(C([H])([H])[H])C1([H])C2([H])C(C([H])([H])[H])(C([H])([H])[H])C1(O[H])C3([H])C([H])([H])C([H])(O[H])C2([H])C13OC3([H])C([H])([H])C1([H])C(C([H])([H])[H])(C([H])([H])[H])C(=O)C([H])=C([H])C21C([H])([H])[H]

$$$$
70:0:2
     RDKit          3D

 77 83  0  0  1  0  0  0  0  0999 V2000
   -0.1666   -9.8263    7.3233 C   0  0  0  0  0  0  0  0  0  0  0  0
    0.6226   -9.2342    6.1428 C   0  0  0  0  0  0  0  0  0  0  0  0
    1.0679  -10.4342    5.2691 C   0  0  0  0  0  0  0  0  0  0  0  0
   -0.3598   -8.4746    5.4144 O   0  0  0  0  0  0  0  0  0  0  0  0
    0.0956   -7.5384    4.4289 C   0  0  0  0  0  0  0  0  0  0  0  0
    1.2423   -6.6704    5.0163 C   0  0  1  0  0  0  0  0  0  0  0  0
    0.7406   -6.1314    6.3915 C   0  0  0  0  0  0  0  0  0  0  0  0
    1.3720   -7.0652    7.4256 C   0  0  1  0  0  0  0  0  0  0  0  0
    0.5635   -7.2635    8.5680 O   0  0  0  0  0  0  0  0  0  0  0  0
    1.8164   -8.3037    6.6044 C   0  0  2  0  0  0  0  0  0  0  0  0
    2.3810   -7.6393    5.3253 C   0  0  2  0  0  0  0  0  0  0  0  0
    3.7577   -6.8799    5.1988 C   0  0  0  0  0  0  0  0  0  0  0  0
    4.6040   -6.8453    6.5038 C   0  0  0  0  0  0  0  0  0  0  0  0
    4.6384   -7.6993    4.2197 C   0  0  0  0  0  0  0  0  0  0  0  0
    3.3733   -5.4541    4.6165 C   0  0  2  0  0  0  0  0  0  0  0  0
    3.2561   -4.5506    5.7022 O   0  0  0  0  0  0  0  0  0  0  0  0
    1.8937   -5.5823    4.1200 C   0  0  1  0  0  0  0  0  0  0  0  0
    1.7865   -5.8859    2.6090 C   0  0  0  0  0  0  0  0  0  0  0  0
    2.6431   -4.9434    1.7520 C   0  0  1  0  0  0  0  0  0  0  0  0
    2.2169   -3.6138    1.9713 O   0  0  0  0  0  0  0  0  0  0  0  0
    4.1233   -5.1532    2.1244 C   0  0  1  0  0  0  0  0  0  0  0  0
    5.2136   -4.6215    1.1176 C   0  0  1  0  0  0  0  0  0  0  0  0
    6.5050   -5.4716    1.2914 C   0  0  0  0  0  0  0  0  0  0  0  0
    4.8183   -4.9458   -0.3245 C   0  0  0  0  0  0  0  0  0  0  0  0
    5.0176   -4.1521   -1.3902 C   0  0  0  0  0  0  0  0  0  0  0  0
    5.5863   -2.8199   -1.2152 C   0  0  0  0  0  0  0  0  0  0  0  0
    6.2366   -2.2588   -2.0898 O   0  0  0  0  0  0  0  0  0  0  0  0
    5.3050   -2.1154    0.1223 C   0  0  0  0  0  0  0  0  0  0  0  0
    6.2093   -0.8728    0.2537 C   0  0  0  0  0  0  0  0  0  0  0  0
    3.8363   -1.6296    0.0213 C   0  0  0  0  0  0  0  0  0  0  0  0
    5.6083   -3.1020    1.3106 C   0  0  1  0  0  0  0  0  0  0  0  0
    5.2793   -2.4785    2.6975 C   0  0  0  0  0  0  0  0  0  0  0  0
    4.9626   -3.4209    3.8440 C   0  0  2  0  0  0  0  0  0  0  0  0
    5.7063   -4.6335    4.0007 O   0  0  0  0  0  0  0  0  0  0  0  0
    4.3362   -4.7632    3.5911 C   0  0  1  0  0  0  0  0  0  0  0  0
    0.5064  -10.2344    8.0808 H   0  0  0  0  0  0  0  0  0  0  0  0
   -0.8056  -10.6425    6.9990 H   0  0  0  0  0  0  0  0  0  0  0  0
   -0.8279   -9.1042    7.7967 H   0  0  0  0  0  0  0  0  0  0  0  0
    1.9126  -10.9562    5.7178 H   0  0  0  0  0  0  0  0  0  0  0  0
    1.3405  -10.1641    4.2529 H   0  0  0  0  0  0  0  0  0  0  0  0
    0.2679  -11.1691    5.1658 H   0  0  0  0  0  0  0  0  0  0  0  0
    0.4123   -8.0891    3.5425 H   0  0  0  0  0  0  0  0  0  0  0  0
   -0.7533   -6.9183    4.1367 H   0  0  0  0  0  0  0  0  0  0  0  0
    1.0031   -5.0949    6.5937 H   0  0  0  0  0  0  0  0  0  0  0  0
   -0.3485   -6.1659    6.4534 H   0  0  0  0  0  0  0  0  0  0  0  0
    2.2489   -6.5744    7.8300 H   0  0  0  0  0  0  0  0  0  0  0  0
    1.0503   -7.7918    9.1849 H   0  0  0  0  0  0  0  0  0  0  0  0
    2.5598   -8.8969    7.1382 H   0  0  0  0  0  0  0  0  0  0  0  0
    2.4145   -8.3895    4.5427 H   0  0  0  0  0  0  0  0  0  0  0  0
    5.6064   -6.4648    6.3018 H   0  0  0  0  0  0  0  0  0  0  0  0
    4.7247   -7.8499    6.9206 H   0  0  0  0  0  0  0  0  0  0  0  0
    4.2084   -6.2173    7.2961 H   0  0  0  0  0  0  0  0  0  0  0  0
    5.5720   -7.1883    3.9845 H   0  0  0  0  0  0  0  0  0  0  0  0
    4.1303   -7.9229    3.2810 H   0  0  0  0  0  0  0  0  0  0  0  0
    4.9081   -8.6675    4.6477 H   0  0  0  0  0  0  0  0  0  0  0  0
    2.6991   -4.9467    6.3503 H   0  0  0  0  0  0  0  0  0  0  0  0
    1.3572   -4.6407    4.2663 H   0  0  0  0  0  0  0  0  0  0  0  0
    2.0972   -6.9121    2.4134 H   0  0  0  0  0  0  0  0  0  0  0  0
    0.7480   -5.8149    2.2903 H   0  0  0  0  0  0  0  0  0  0  0  0
    2.4644   -5.1834    0.7020 H   0  0  0  0  0  0  0  0  0  0  0  0
    2.6616   -3.0418    1.3623 H   0  0  0  0  0  0  0  0  0  0  0  0
    4.2526   -6.2255    2.0669 H   0  0  0  0  0  0  0  0  0  0  0  0
    7.0177   -5.3186    2.2403 H   0  0  0  0  0  0  0  0  0  0  0  0
    7.2431   -5.2325    0.5225 H   0  0  0  0  0  0  0  0  0  0  0  0
    6.2975   -6.5417    1.2062 H   0  0  0  0  0  0  0  0  0  0  0  0
    4.4065   -5.9344   -0.4844 H   0  0  0  0  0  0  0  0  0  0  0  0
    4.7549   -4.4757   -2.3890 H   0  0  0  0  0  0  0  0  0  0  0  0
    5.9843   -0.2881    1.1444 H   0  0  0  0  0  0  0  0  0  0  0  0
    6.0694   -0.2175   -0.6011 H   0  0  0  0  0  0  0  0  0  0  0  0
    7.2671   -1.1465    0.2886 H   0  0  0  0  0  0  0  0  0  0  0  0
    3.5010   -1.0645    0.8899 H   0  0  0  0  0  0  0  0  0  0  0  0
    3.1406   -2.4498   -0.1548 H   0  0  0  0  0  0  0  0  0  0  0  0
    3.7160   -0.9511   -0.8251 H   0  0  0  0  0  0  0  0  0  0  0  0
    6.7003   -3.1148    1.3231 H   0  0  0  0  0  0  0  0  0  0  0  0
    6.0993   -1.8286    3.0009 H   0  0  0  0  0  0  0  0  0  0  0  0
    4.4283   -1.8116    2.6283 H   0  0  0  0  0  0  0  0  0  0  0  0
    4.7942   -2.9109    4.7848 H   0  0  0  0  0  0  0  0  0  0  0  0
  1  2  1  0
  1 36  1  0
  1 37  1  0
  1 38  1  0
  2 10  1  0
  2  3  1  0
  2  4  1  0
  3 39  1  0
  3 40  1  0
  3 41  1  0
  4  5  1  0
  6  5  1  6
  5 42  1  0
  5 43  1  0
  6 11  1  0
  6 17  1  0
  6  7  1  0
  7  8  1  0
  7 44  1  0
  7 45  1  0
  8  9  1  0
  8 10  1  0
  8 46  1  1
  9 47  1  0
 10 11  1  0
 10 48  1  1
 11 12  1  0
 11 49  1  6
 12 13  1  0
 12 14  1  0
 12 15  1  0
 13 50  1  0
 13 51  1  0
 13 52  1  0
 14 53  1  0
 14 54  1  0
 14 55  1  0
 15 35  1  0
 15 16  1  1
 15 17  1  0
 16 56  1  0
 17 18  1  0
 17 57  1  6
 18 19  1  0
 18 58  1  0
 18 59  1  0
 19 20  1  0
 19 21  1  0
 19 60  1  6
 20 61  1  0
 21 35  1  0
 21 22  1  0
 21 62  1  1
 22 31  1  0
 22 23  1  1
 22 24  1  0
 23 63  1  0
 23 64  1  0
 23 65  1  0
 24 25  2  0
 24 66  1  0
 25 26  1  0
 25 67  1  0
 26 27  2  0
 26 28  1  0
 28 29  1  0
 28 30  1  0
 28 31  1  0
 29 68  1  0
 29 69  1  0
 29 70  1  0
 30 71  1  0
 30 72  1  0
 30 73  1  0
 31 32  1  0
 31 74  1  1
 32 33  1  0
 32 75  1  0
 32 76  1  0
 33 35  1  0
 33 34  1  0
 33 77  1  1
 35 34  1  1
M  END
>  <i_m_ct_stereo_status>  (247) 
1

>  <s_m_source_file>  (247) 
/var/tmp/pbs.5076255.sched01/tmp1t990xkq/82z3oanzij.sdf

>  <i_m_source_file_index>  (247) 
21

>  <i_lp_mmshare_version>  (247) 
48012

>  <i_f3d_flags>  (247) 
0

>  <s_epik_input>  (247) 
W0NIMl0xT0MoW0NIM10pKFtDSDNdKVtDQEhdKFtDQEBIXShbQ0gyXTIpW09IXSlbQ0BASF0oW0NAQF0xMjMpQyhbQ0gzXSkoW0NIM10pW0NAQF00KFtPSF0pW0NAQF01NltDQEBIXShbQ0BIXShbT0hdKVtDSDJdW0NAQEhdMzQpW0NAXTcoW0NIM10pW0NASF0oW0NIMl1bQ0BASF01TzYpQyhbQ0gzXSkoW0NIM10pQyg9TylbQ0hdPVtDSF03

>  <s_epik_cmdline>  (247) 
J2VwaWtfcHl0aG9uJywgJy1waHQnLCAnMi4wJywgJy1waCcsICc3LjAnLCAnLXRuJywgJzgnLCAnLW1hJywgJzIwMCcsICctaW1hZScsICc8aW5maWxlLm1hZT4nLCAnLW9tYWUnLCAnPG91dGZpbGUubWFlPic=

>  <r_lp_tautomer_probability>  (247) 
1

>  <r_epik_Ionization_Penalty>  (247) 
6.20112e-07

>  <r_epik_Ionization_Penalty_Charging>  (247) 
0

>  <r_epik_Ionization_Penalty_Neutral>  (247) 
6.20112e-07

>  <r_epik_State_Penalty>  (247) 
-0

>  <r_epik_Charging_Adjusted_Penalty>  (247) 
0

>  <i_epik_Tot_Q>  (247) 
0

>  <i_epik_Tot_abs_Q>  (247) 
0

>  <s_lp_Force_Field>  (247) 
OPLS3e

>  <r_lp_Energy>  (247) 
91.1819

>  <b_lp_Chiralities_Consistent>  (247) 
1

>  <s_lp_Variant>  (247) 
70:0-1

>  <s_i_glide_gridfile>  (247) 
pfpi4k_grid

>  <i_i_glide_lignum>  (247) 
21

>  <i_i_glide_rotatable_bonds>  (247) 
3

>  <r_i_docking_score>  (247) 
-2.23731

>  <r_i_glide_ligand_efficiency>  (247) 
-0.0639231

>  <r_i_glide_ligand_efficiency_sa>  (247) 
-0.209097

>  <r_i_glide_ligand_efficiency_ln>  (247) 
-0.491139

>  <r_i_glide_gscore>  (247) 
-2.23731

>  <r_i_glide_lipo>  (247) 
-0.361026

>  <r_i_glide_hbond>  (247) 
-0.0596245

>  <r_i_glide_metal>  (247) 
-0

>  <r_i_glide_rewards>  (247) 
-0.0940578

>  <r_i_glide_evdw>  (247) 
-27.6935

>  <r_i_glide_ecoul>  (247) 
-2.25283

>  <r_i_glide_erotb>  (247) 
0

>  <r_i_glide_esite>  (247) 
0

>  <r_i_glide_emodel>  (247) 
-33.9196

>  <r_i_glide_energy>  (247) 
-29.9463

>  <r_i_glide_einternal>  (247) 
0.706648

>  <r_i_glide_intrahb_reward>  (247) 
-0

>  <i_i_glide_confnum>  (247) 
2

>  <i_i_glide_posenum>  (247) 
33

>  <r_i_glide_eff_state_penalty>  (247) 
0

>  <ligand_id>  (247) 
70

>  <original_smiles>  (247) 
CC1(C)OCC23CC(O)C1C2C(C)(C)C1(O)C3CC(O)C2C3(C)C=CC(=O)C(C)(C)C3CC3OC321

>  <smiles>  (247) 
[H]OC1([H])C([H])([H])C23C([H])([H])OC(C([H])([H])[H])(C([H])([H])[H])C1([H])C2([H])C(C([H])([H])[H])(C([H])([H])[H])C1(O[H])C3([H])C([H])([H])C([H])(O[H])C2([H])C13OC3([H])C([H])([H])C1([H])C(C([H])([H])[H])(C([H])([H])[H])C(=O)C([H])=C([H])C21C([H])([H])[H]

$$$$
71:0:0
     RDKit          3D

 63 68  0  0  1  0  0  0  0  0999 V2000
    3.1030   -0.7094    4.4459 C   0  0  0  0  0  0  0  0  0  0  0  0
    2.9429   -2.0298    3.6628 C   0  0  0  0  0  0  0  0  0  0  0  0
    1.5870   -1.9902    2.9178 C   0  0  0  0  0  0  0  0  0  0  0  0
    3.9953   -2.0172    2.7169 O   0  0  0  0  0  0  0  0  0  0  0  0
    4.1819   -3.1123    1.8264 C   0  0  1  0  0  0  0  0  0  0  0  0
    5.6719   -3.4431    2.0498 C   0  0  1  0  0  0  0  0  0  0  0  0
    5.2667   -4.8559    2.5193 C   0  0  0  0  0  0  0  0  0  0  0  0
    5.9103   -5.8431    2.8659 O   0  0  0  0  0  0  0  0  0  0  0  0
    3.7552   -4.5290    2.4094 C   0  0  2  0  0  0  0  0  0  0  0  0
    3.0754   -5.5727    1.4987 C   0  0  0  0  0  0  0  0  0  0  0  0
    3.0077   -4.5666    3.7553 C   0  0  1  0  0  0  0  0  0  0  0  0
    3.2351   -5.7144    4.5516 O   0  0  0  0  0  0  0  0  0  0  0  0
    3.0887   -3.2733    4.5701 C   0  0  1  0  0  0  0  0  0  0  0  0
    4.2910   -3.1840    5.3057 O   0  0  0  0  0  0  0  0  0  0  0  0
    6.3770   -3.2929    0.6997 C   0  0  2  0  0  0  0  0  0  0  0  0
    7.5972   -4.2168    0.5203 C   0  0  0  0  0  0  0  0  0  0  0  0
    6.8359   -1.8048    0.5003 C   0  0  0  0  0  0  0  0  0  0  0  0
    5.7006   -0.7428    0.4930 C   0  0  0  0  0  0  0  0  0  0  0  0
    4.2908   -1.2544    0.0983 C   0  0  1  0  0  0  0  0  0  0  0  0
    3.8284   -0.9159   -1.1971 O   0  0  0  0  0  0  0  0  0  0  0  0
    4.5780   -1.1255   -2.3741 C   0  0  2  0  0  0  0  0  0  0  0  0
    3.5248   -0.9196   -3.4778 C   0  0  1  0  0  0  0  0  0  0  0  0
    4.1106   -0.6107   -4.7189 O   0  0  0  0  0  0  0  0  0  0  0  0
    2.8067   -2.2710   -3.5835 C   0  0  0  0  0  0  0  0  0  0  0  0
    3.8224   -3.3412   -3.1515 C   0  0  1  0  0  0  0  0  0  0  0  0
    4.2098   -4.1199   -4.2705 O   0  0  0  0  0  0  0  0  0  0  0  0
    5.0302   -2.5651   -2.6178 C   0  0  2  0  0  0  0  0  0  0  0  0
    5.8154   -3.1135   -1.5853 O   0  0  0  0  0  0  0  0  0  0  0  0
    5.2532   -3.5301   -0.3437 C   0  0  2  0  0  0  0  0  0  0  0  0
    4.0785   -2.7477    0.3303 C   0  0  1  0  0  0  0  0  0  0  0  0
    2.7768   -3.0906   -0.1013 O   0  0  0  0  0  0  0  0  0  0  0  0
    2.3625   -0.6209    5.2428 H   0  0  0  0  0  0  0  0  0  0  0  0
    2.9895    0.1510    3.7779 H   0  0  0  0  0  0  0  0  0  0  0  0
    4.0959   -0.6344    4.8938 H   0  0  0  0  0  0  0  0  0  0  0  0
    0.7486   -1.9961    3.6177 H   0  0  0  0  0  0  0  0  0  0  0  0
    1.4535   -2.8467    2.2611 H   0  0  0  0  0  0  0  0  0  0  0  0
    1.4943   -1.0989    2.2915 H   0  0  0  0  0  0  0  0  0  0  0  0
    6.1147   -2.8524    2.8533 H   0  0  0  0  0  0  0  0  0  0  0  0
    2.0808   -5.2247    1.2218 H   0  0  0  0  0  0  0  0  0  0  0  0
    2.9510   -6.5375    1.9788 H   0  0  0  0  0  0  0  0  0  0  0  0
    3.6029   -5.7566    0.5597 H   0  0  0  0  0  0  0  0  0  0  0  0
    1.9508   -4.6621    3.5147 H   0  0  0  0  0  0  0  0  0  0  0  0
    3.0759   -6.4875    4.0399 H   0  0  0  0  0  0  0  0  0  0  0  0
    2.2780   -3.2742    5.2990 H   0  0  0  0  0  0  0  0  0  0  0  0
    5.0097   -3.2352    4.7019 H   0  0  0  0  0  0  0  0  0  0  0  0
    8.0980   -4.0320   -0.4366 H   0  0  0  0  0  0  0  0  0  0  0  0
    7.3249   -5.2733    0.5360 H   0  0  0  0  0  0  0  0  0  0  0  0
    8.3378   -4.0555    1.3048 H   0  0  0  0  0  0  0  0  0  0  0  0
    7.5583   -1.5239    1.2667 H   0  0  0  0  0  0  0  0  0  0  0  0
    7.3887   -1.7287   -0.4392 H   0  0  0  0  0  0  0  0  0  0  0  0
    5.6392   -0.3376    1.5037 H   0  0  0  0  0  0  0  0  0  0  0  0
    5.9881    0.1059   -0.1229 H   0  0  0  0  0  0  0  0  0  0  0  0
    3.5842   -0.7074    0.7297 H   0  0  0  0  0  0  0  0  0  0  0  0
    5.4046   -0.4193   -2.4128 H   0  0  0  0  0  0  0  0  0  0  0  0
    2.8288   -0.1195   -3.2315 H   0  0  0  0  0  0  0  0  0  0  0  0
    4.3862    0.2947   -4.6791 H   0  0  0  0  0  0  0  0  0  0  0  0
    1.9813   -2.2844   -2.8734 H   0  0  0  0  0  0  0  0  0  0  0  0
    2.3818   -2.4671   -4.5642 H   0  0  0  0  0  0  0  0  0  0  0  0
    3.3565   -3.9529   -2.3931 H   0  0  0  0  0  0  0  0  0  0  0  0
    4.4919   -4.9558   -3.9248 H   0  0  0  0  0  0  0  0  0  0  0  0
    5.7318   -2.5041   -3.4540 H   0  0  0  0  0  0  0  0  0  0  0  0
    5.0360   -4.5929   -0.4115 H   0  0  0  0  0  0  0  0  0  0  0  0
    2.3473   -2.2783   -0.3481 H   0  0  0  0  0  0  0  0  0  0  0  0
  1  2  1  0
  1 32  1  0
  1 33  1  0
  1 34  1  0
  2 13  1  0
  2  3  1  0
  2  4  1  0
  3 35  1  0
  3 36  1  0
  3 37  1  0
  5  4  1  1
  5  9  1  0
  5 30  1  0
  5  6  1  0
  6  7  1  0
  6 15  1  0
  6 38  1  1
  7  8  2  0
  7  9  1  0
  9 10  1  6
  9 11  1  0
 10 39  1  0
 10 40  1  0
 10 41  1  0
 11 12  1  0
 11 13  1  0
 11 42  1  6
 12 43  1  0
 13 14  1  0
 13 44  1  1
 14 45  1  0
 15 29  1  0
 15 16  1  6
 15 17  1  0
 16 46  1  0
 16 47  1  0
 16 48  1  0
 17 18  1  0
 17 49  1  0
 17 50  1  0
 18 19  1  0
 18 51  1  0
 18 52  1  0
 19 30  1  0
 19 20  1  0
 19 53  1  1
 20 21  1  0
 21 27  1  0
 21 22  1  0
 21 54  1  6
 22 23  1  0
 22 24  1  0
 22 55  1  1
 23 56  1  0
 24 25  1  0
 24 57  1  0
 24 58  1  0
 25 26  1  0
 25 27  1  0
 25 59  1  1
 26 60  1  0
 27 28  1  0
 27 61  1  6
 28 29  1  0
 29 30  1  0
 29 62  1  6
 30 31  1  6
 31 63  1  0
M  END
>  <i_m_ct_stereo_status>  (248) 
1

>  <s_m_source_file>  (248) 
/var/tmp/pbs.5076255.sched01/tmp1t990xkq/82z3oanzij.sdf

>  <i_m_source_file_index>  (248) 
22

>  <i_lp_mmshare_version>  (248) 
48012

>  <i_f3d_flags>  (248) 
0

>  <s_epik_input>  (248) 
W0NIM11DKE8xKShbQ0gzXSlbQ0BIXShbT0hdKVtDQEhdKFtPSF0pW0NAXTIoW0NIM10pQyg9TylbQ0BIXShbQ0BdMTIzKVtDQEBdNChbQ0gzXSlbQ0BIXTVbQ0BdMyhbT0hdKVtDQEBIXShbQ0gyXVtDSDJdNClPW0NASF02W0NAQEhdKE81KVtDQEhdKFtPSF0pW0NIMl1bQ0BASF02W09IXQ==

>  <s_epik_cmdline>  (248) 
J2VwaWtfcHl0aG9uJywgJy1waHQnLCAnMi4wJywgJy1waCcsICc3LjAnLCAnLXRuJywgJzgnLCAnLW1hJywgJzIwMCcsICctaW1hZScsICc8aW5maWxlLm1hZT4nLCAnLW9tYWUnLCAnPG91dGZpbGUubWFlPic=

>  <r_lp_tautomer_probability>  (248) 
1

>  <r_epik_Ionization_Penalty>  (248) 
1.49776e-06

>  <r_epik_Ionization_Penalty_Charging>  (248) 
0

>  <r_epik_Ionization_Penalty_Neutral>  (248) 
1.49776e-06

>  <r_epik_State_Penalty>  (248) 
-0

>  <r_epik_Charging_Adjusted_Penalty>  (248) 
0

>  <i_epik_Tot_Q>  (248) 
0

>  <i_epik_Tot_abs_Q>  (248) 
0

>  <s_lp_Force_Field>  (248) 
OPLS3e

>  <r_lp_Energy>  (248) 
52.4951

>  <b_lp_Chiralities_Consistent>  (248) 
1

>  <s_lp_Variant>  (248) 
71:0-1

>  <s_i_glide_gridfile>  (248) 
pfpi4k_grid

>  <i_i_glide_lignum>  (248) 
22

>  <i_i_glide_rotatable_bonds>  (248) 
5

>  <r_i_docking_score>  (248) 
-4.15272

>  <r_i_glide_ligand_efficiency>  (248) 
-0.133959

>  <r_i_glide_ligand_efficiency_sa>  (248) 
-0.420816

>  <r_i_glide_ligand_efficiency_ln>  (248) 
-0.936566

>  <r_i_glide_gscore>  (248) 
-4.15272

>  <r_i_glide_lipo>  (248) 
-1.1611

>  <r_i_glide_hbond>  (248) 
-0.114678

>  <r_i_glide_metal>  (248) 
-0

>  <r_i_glide_rewards>  (248) 
-0.425426

>  <r_i_glide_evdw>  (248) 
-25.7064

>  <r_i_glide_ecoul>  (248) 
-7.77464

>  <r_i_glide_erotb>  (248) 
0

>  <r_i_glide_esite>  (248) 
0

>  <r_i_glide_emodel>  (248) 
-39.836

>  <r_i_glide_energy>  (248) 
-33.4811

>  <r_i_glide_einternal>  (248) 
2.93422

>  <r_i_glide_intrahb_reward>  (248) 
-0

>  <i_i_glide_confnum>  (248) 
2

>  <i_i_glide_posenum>  (248) 
15

>  <r_i_glide_eff_state_penalty>  (248) 
0

>  <ligand_id>  (248) 
71

>  <original_smiles>  (248) 
CC1(C)OC23C(C(=O)C2(C)C(O)C1O)C1(C)CCC2OC4C(O)CC(O)C4OC1C23O

>  <smiles>  (248) 
[H]OC1([H])C([H])([H])C([H])(O[H])C2([H])OC3([H])C4(O[H])C([H])(OC12[H])C([H])([H])C([H])([H])C3(C([H])([H])[H])C1([H])C(=O)C2(C([H])([H])[H])C([H])(O[H])C([H])(O[H])C(C([H])([H])[H])(C([H])([H])[H])OC142

$$$$
71:0:1
     RDKit          3D

 63 68  0  0  1  0  0  0  0  0999 V2000
    3.1902   -0.5890    4.4969 C   0  0  0  0  0  0  0  0  0  0  0  0
    2.9714   -1.8910    3.7048 C   0  0  0  0  0  0  0  0  0  0  0  0
    1.6119   -1.8046    2.9726 C   0  0  0  0  0  0  0  0  0  0  0  0
    4.0206   -1.9137    2.7487 O   0  0  0  0  0  0  0  0  0  0  0  0
    4.1600   -3.0236    1.8545 C   0  0  1  0  0  0  0  0  0  0  0  0
    5.6339   -3.3860    2.0533 C   0  0  1  0  0  0  0  0  0  0  0  0
    5.1853   -4.7883    2.5252 C   0  0  0  0  0  0  0  0  0  0  0  0
    5.7892   -5.7907    2.8878 O   0  0  0  0  0  0  0  0  0  0  0  0
    3.6851   -4.4222    2.4202 C   0  0  2  0  0  0  0  0  0  0  0  0
    2.9554   -5.4241    1.5081 C   0  0  0  0  0  0  0  0  0  0  0  0
    2.9479   -4.4324    3.7766 C   0  0  1  0  0  0  0  0  0  0  0  0
    3.1532   -5.6003    4.5515 O   0  0  0  0  0  0  0  0  0  0  0  0
    3.0877   -3.1492    4.6016 C   0  0  1  0  0  0  0  0  0  0  0  0
    4.3035   -3.1502    5.3245 O   0  0  0  0  0  0  0  0  0  0  0  0
    6.3327   -3.2537    0.6962 C   0  0  2  0  0  0  0  0  0  0  0  0
    7.5206   -4.2245    0.5013 C   0  0  0  0  0  0  0  0  0  0  0  0
    6.8413   -1.7860    0.5103 C   0  0  0  0  0  0  0  0  0  0  0  0
    5.7443   -0.6875    0.5182 C   0  0  0  0  0  0  0  0  0  0  0  0
    4.3103   -1.1388    0.1332 C   0  0  1  0  0  0  0  0  0  0  0  0
    3.8381   -0.7748   -1.1554 O   0  0  0  0  0  0  0  0  0  0  0  0
    4.5775   -1.0096   -2.3342 C   0  0  2  0  0  0  0  0  0  0  0  0
    3.5487   -0.7618   -3.4447 C   0  0  1  0  0  0  0  0  0  0  0  0
    4.1801   -0.4935   -4.6807 O   0  0  0  0  0  0  0  0  0  0  0  0
    2.7662   -2.0824   -3.5322 C   0  0  0  0  0  0  0  0  0  0  0  0
    3.7336   -3.1998   -3.1187 C   0  0  1  0  0  0  0  0  0  0  0  0
    4.1121   -3.9547   -4.2470 O   0  0  0  0  0  0  0  0  0  0  0  0
    4.9714   -2.4621   -2.5917 C   0  0  2  0  0  0  0  0  0  0  0  0
    5.7561   -3.0454   -1.5731 O   0  0  0  0  0  0  0  0  0  0  0  0
    5.1954   -3.4517   -0.3308 C   0  0  2  0  0  0  0  0  0  0  0  0
    4.0521   -2.6378    0.3548 C   0  0  1  0  0  0  0  0  0  0  0  0
    2.7383   -2.9467   -0.0738 O   0  0  0  0  0  0  0  0  0  0  0  0
    2.4593   -0.4795    5.3003 H   0  0  0  0  0  0  0  0  0  0  0  0
    3.0995    0.2782    3.8375 H   0  0  0  0  0  0  0  0  0  0  0  0
    4.1887   -0.5528    4.9367 H   0  0  0  0  0  0  0  0  0  0  0  0
    0.7843   -1.7834    3.6814 H   0  0  0  0  0  0  0  0  0  0  0  0
    1.4419   -2.6507    2.3095 H   0  0  0  0  0  0  0  0  0  0  0  0
    1.5476   -0.9056    2.3556 H   0  0  0  0  0  0  0  0  0  0  0  0
    6.1101   -2.8268    2.8566 H   0  0  0  0  0  0  0  0  0  0  0  0
    1.9695   -5.0412    1.2536 H   0  0  0  0  0  0  0  0  0  0  0  0
    2.8085   -6.3837    2.0003 H   0  0  0  0  0  0  0  0  0  0  0  0
    3.4694   -5.6236    0.5741 H   0  0  0  0  0  0  0  0  0  0  0  0
    1.8846   -4.4971    3.5524 H   0  0  0  0  0  0  0  0  0  0  0  0
    4.0602   -5.6291    4.8293 H   0  0  0  0  0  0  0  0  0  0  0  0
    2.2848   -3.1314    5.3379 H   0  0  0  0  0  0  0  0  0  0  0  0
    5.0156   -3.1291    4.7027 H   0  0  0  0  0  0  0  0  0  0  0  0
    8.0157   -4.0464   -0.4561 H   0  0  0  0  0  0  0  0  0  0  0  0
    7.2082   -5.2688    0.5117 H   0  0  0  0  0  0  0  0  0  0  0  0
    8.2702   -4.0917    1.2823 H   0  0  0  0  0  0  0  0  0  0  0  0
    7.5759   -1.5375    1.2777 H   0  0  0  0  0  0  0  0  0  0  0  0
    7.3884   -1.7209   -0.4327 H   0  0  0  0  0  0  0  0  0  0  0  0
    5.7045   -0.2859    1.5274 H   0  0  0  0  0  0  0  0  0  0  0  0
    6.0588    0.1424   -0.1056 H   0  0  0  0  0  0  0  0  0  0  0  0
    3.6271   -0.5779    0.7755 H   0  0  0  0  0  0  0  0  0  0  0  0
    5.4209   -0.3271   -2.3728 H   0  0  0  0  0  0  0  0  0  0  0  0
    2.8957    0.0795   -3.2108 H   0  0  0  0  0  0  0  0  0  0  0  0
    3.5036   -0.2458   -5.2972 H   0  0  0  0  0  0  0  0  0  0  0  0
    1.9550   -2.0632   -2.8052 H   0  0  0  0  0  0  0  0  0  0  0  0
    2.3065   -2.2442   -4.5027 H   0  0  0  0  0  0  0  0  0  0  0  0
    3.2590   -3.8497   -2.3950 H   0  0  0  0  0  0  0  0  0  0  0  0
    4.1914   -4.8479   -3.9423 H   0  0  0  0  0  0  0  0  0  0  0  0
    5.6704   -2.4118   -3.4287 H   0  0  0  0  0  0  0  0  0  0  0  0
    4.9369   -4.4998   -0.4116 H   0  0  0  0  0  0  0  0  0  0  0  0
    2.3268   -2.1199   -0.3307 H   0  0  0  0  0  0  0  0  0  0  0  0
  1  2  1  0
  1 32  1  0
  1 33  1  0
  1 34  1  0
  2 13  1  0
  2  3  1  0
  2  4  1  0
  3 35  1  0
  3 36  1  0
  3 37  1  0
  5  4  1  1
  5  9  1  0
  5 30  1  0
  5  6  1  0
  6  7  1  0
  6 15  1  0
  6 38  1  1
  7  8  2  0
  7  9  1  0
  9 10  1  6
  9 11  1  0
 10 39  1  0
 10 40  1  0
 10 41  1  0
 11 12  1  0
 11 13  1  0
 11 42  1  6
 12 43  1  0
 13 14  1  0
 13 44  1  1
 14 45  1  0
 15 29  1  0
 15 16  1  6
 15 17  1  0
 16 46  1  0
 16 47  1  0
 16 48  1  0
 17 18  1  0
 17 49  1  0
 17 50  1  0
 18 19  1  0
 18 51  1  0
 18 52  1  0
 19 30  1  0
 19 20  1  0
 19 53  1  1
 20 21  1  0
 21 27  1  0
 21 22  1  0
 21 54  1  6
 22 23  1  0
 22 24  1  0
 22 55  1  1
 23 56  1  0
 24 25  1  0
 24 57  1  0
 24 58  1  0
 25 26  1  0
 25 27  1  0
 25 59  1  1
 26 60  1  0
 27 28  1  0
 27 61  1  6
 28 29  1  0
 29 30  1  0
 29 62  1  6
 30 31  1  6
 31 63  1  0
M  END
>  <i_m_ct_stereo_status>  (249) 
1

>  <s_m_source_file>  (249) 
/var/tmp/pbs.5076255.sched01/tmp1t990xkq/82z3oanzij.sdf

>  <i_m_source_file_index>  (249) 
22

>  <i_lp_mmshare_version>  (249) 
48012

>  <i_f3d_flags>  (249) 
0

>  <s_epik_input>  (249) 
W0NIM11DKE8xKShbQ0gzXSlbQ0BIXShbT0hdKVtDQEhdKFtPSF0pW0NAXTIoW0NIM10pQyg9TylbQ0BIXShbQ0BdMTIzKVtDQEBdNChbQ0gzXSlbQ0BIXTVbQ0BdMyhbT0hdKVtDQEBIXShbQ0gyXVtDSDJdNClPW0NASF02W0NAQEhdKE81KVtDQEhdKFtPSF0pW0NIMl1bQ0BASF02W09IXQ==

>  <s_epik_cmdline>  (249) 
J2VwaWtfcHl0aG9uJywgJy1waHQnLCAnMi4wJywgJy1waCcsICc3LjAnLCAnLXRuJywgJzgnLCAnLW1hJywgJzIwMCcsICctaW1hZScsICc8aW5maWxlLm1hZT4nLCAnLW9tYWUnLCAnPG91dGZpbGUubWFlPic=

>  <r_lp_tautomer_probability>  (249) 
1

>  <r_epik_Ionization_Penalty>  (249) 
1.49776e-06

>  <r_epik_Ionization_Penalty_Charging>  (249) 
0

>  <r_epik_Ionization_Penalty_Neutral>  (249) 
1.49776e-06

>  <r_epik_State_Penalty>  (249) 
-0

>  <r_epik_Charging_Adjusted_Penalty>  (249) 
0

>  <i_epik_Tot_Q>  (249) 
0

>  <i_epik_Tot_abs_Q>  (249) 
0

>  <s_lp_Force_Field>  (249) 
OPLS3e

>  <r_lp_Energy>  (249) 
52.4951

>  <b_lp_Chiralities_Consistent>  (249) 
1

>  <s_lp_Variant>  (249) 
71:0-1

>  <s_i_glide_gridfile>  (249) 
pfpi4k_grid

>  <i_i_glide_lignum>  (249) 
22

>  <i_i_glide_rotatable_bonds>  (249) 
5

>  <r_i_docking_score>  (249) 
-4.03575

>  <r_i_glide_ligand_efficiency>  (249) 
-0.130186

>  <r_i_glide_ligand_efficiency_sa>  (249) 
-0.408963

>  <r_i_glide_ligand_efficiency_ln>  (249) 
-0.910186

>  <r_i_glide_gscore>  (249) 
-4.03575

>  <r_i_glide_lipo>  (249) 
-1.08394

>  <r_i_glide_hbond>  (249) 
0

>  <r_i_glide_metal>  (249) 
-0

>  <r_i_glide_rewards>  (249) 
-0.42615

>  <r_i_glide_evdw>  (249) 
-24.5141

>  <r_i_glide_ecoul>  (249) 
-8.66638

>  <r_i_glide_erotb>  (249) 
0

>  <r_i_glide_esite>  (249) 
0

>  <r_i_glide_emodel>  (249) 
-39.181

>  <r_i_glide_energy>  (249) 
-33.1805

>  <r_i_glide_einternal>  (249) 
2.74698

>  <r_i_glide_intrahb_reward>  (249) 
-0

>  <i_i_glide_confnum>  (249) 
2

>  <i_i_glide_posenum>  (249) 
23

>  <r_i_glide_eff_state_penalty>  (249) 
0

>  <ligand_id>  (249) 
71

>  <original_smiles>  (249) 
CC1(C)OC23C(C(=O)C2(C)C(O)C1O)C1(C)CCC2OC4C(O)CC(O)C4OC1C23O

>  <smiles>  (249) 
[H]OC1([H])C([H])([H])C([H])(O[H])C2([H])OC3([H])C4(O[H])C([H])(OC12[H])C([H])([H])C([H])([H])C3(C([H])([H])[H])C1([H])C(=O)C2(C([H])([H])[H])C([H])(O[H])C([H])(O[H])C(C([H])([H])[H])(C([H])([H])[H])OC142

$$$$
71:0:2
     RDKit          3D

 63 68  0  0  1  0  0  0  0  0999 V2000
    3.2687   -0.5480    4.5602 C   0  0  0  0  0  0  0  0  0  0  0  0
    3.0089   -1.8450    3.7698 C   0  0  0  0  0  0  0  0  0  0  0  0
    1.6412   -1.7306    3.0586 C   0  0  0  0  0  0  0  0  0  0  0  0
    4.0426   -1.8930    2.7991 O   0  0  0  0  0  0  0  0  0  0  0  0
    4.1496   -3.0020    1.9043 C   0  0  1  0  0  0  0  0  0  0  0  0
    5.6192   -3.3942    2.0825 C   0  0  1  0  0  0  0  0  0  0  0  0
    5.1494   -4.7883    2.5595 C   0  0  0  0  0  0  0  0  0  0  0  0
    5.7416   -5.8198    2.8704 O   0  0  0  0  0  0  0  0  0  0  0  0
    3.6550   -4.3909    2.4780 C   0  0  2  0  0  0  0  0  0  0  0  0
    2.8902   -5.3760    1.5727 C   0  0  0  0  0  0  0  0  0  0  0  0
    2.9346   -4.3853    3.8470 C   0  0  1  0  0  0  0  0  0  0  0  0
    3.1262   -5.5524    4.6279 O   0  0  0  0  0  0  0  0  0  0  0  0
    3.1110   -3.1030    4.6662 C   0  0  1  0  0  0  0  0  0  0  0  0
    4.3349   -3.0974    5.3746 O   0  0  0  0  0  0  0  0  0  0  0  0
    6.3014   -3.2736    0.7142 C   0  0  2  0  0  0  0  0  0  0  0  0
    7.4617   -4.2695    0.4999 C   0  0  0  0  0  0  0  0  0  0  0  0
    6.8388   -1.8155    0.5161 C   0  0  0  0  0  0  0  0  0  0  0  0
    5.7644   -0.6915    0.5479 C   0  0  0  0  0  0  0  0  0  0  0  0
    4.3129   -1.1161    0.1867 C   0  0  1  0  0  0  0  0  0  0  0  0
    3.8340   -0.7341   -1.0905 O   0  0  0  0  0  0  0  0  0  0  0  0
    4.5508   -0.9840   -2.2853 C   0  0  2  0  0  0  0  0  0  0  0  0
    3.5079   -0.7162   -3.3814 C   0  0  1  0  0  0  0  0  0  0  0  0
    4.1273   -0.4653   -4.6296 O   0  0  0  0  0  0  0  0  0  0  0  0
    2.6926   -2.0186   -3.4528 C   0  0  0  0  0  0  0  0  0  0  0  0
    3.6429   -3.1537   -3.0570 C   0  0  1  0  0  0  0  0  0  0  0  0
    3.9863   -3.9015   -4.1970 O   0  0  0  0  0  0  0  0  0  0  0  0
    4.9058   -2.4439   -2.5503 C   0  0  2  0  0  0  0  0  0  0  0  0
    5.6905   -3.0539   -1.5510 O   0  0  0  0  0  0  0  0  0  0  0  0
    5.1415   -3.4451   -0.2959 C   0  0  2  0  0  0  0  0  0  0  0  0
    4.0275   -2.6097    0.4063 C   0  0  1  0  0  0  0  0  0  0  0  0
    2.7009   -2.8885   -0.0011 O   0  0  0  0  0  0  0  0  0  0  0  0
    2.5520   -0.4262    5.3769 H   0  0  0  0  0  0  0  0  0  0  0  0
    3.1866    0.3230    3.9027 H   0  0  0  0  0  0  0  0  0  0  0  0
    4.2747   -0.5328    4.9862 H   0  0  0  0  0  0  0  0  0  0  0  0
    0.8267   -1.6907    3.7830 H   0  0  0  0  0  0  0  0  0  0  0  0
    1.4448   -2.5724    2.3966 H   0  0  0  0  0  0  0  0  0  0  0  0
    1.5902   -0.8273    2.4432 H   0  0  0  0  0  0  0  0  0  0  0  0
    6.1201   -2.8413    2.8798 H   0  0  0  0  0  0  0  0  0  0  0  0
    1.9076   -4.9712    1.3323 H   0  0  0  0  0  0  0  0  0  0  0  0
    2.7311   -6.3371    2.0577 H   0  0  0  0  0  0  0  0  0  0  0  0
    3.3883   -5.5829    0.6289 H   0  0  0  0  0  0  0  0  0  0  0  0
    1.8686   -4.4220    3.6280 H   0  0  0  0  0  0  0  0  0  0  0  0
    2.9282   -6.3156    4.1030 H   0  0  0  0  0  0  0  0  0  0  0  0
    2.3202   -3.0705    5.4146 H   0  0  0  0  0  0  0  0  0  0  0  0
    5.0361   -3.1837    4.7492 H   0  0  0  0  0  0  0  0  0  0  0  0
    7.9494   -4.1028   -0.4638 H   0  0  0  0  0  0  0  0  0  0  0  0
    7.1289   -5.3079    0.5127 H   0  0  0  0  0  0  0  0  0  0  0  0
    8.2256   -4.1557    1.2707 H   0  0  0  0  0  0  0  0  0  0  0  0
    7.5891   -1.5860    1.2738 H   0  0  0  0  0  0  0  0  0  0  0  0
    7.3721   -1.7622   -0.4376 H   0  0  0  0  0  0  0  0  0  0  0  0
    5.7493   -0.2995    1.5640 H   0  0  0  0  0  0  0  0  0  0  0  0
    6.0822    0.1321   -0.0652 H   0  0  0  0  0  0  0  0  0  0  0  0
    3.6560   -0.5400    0.8414 H   0  0  0  0  0  0  0  0  0  0  0  0
    5.4164   -0.3268   -2.3368 H   0  0  0  0  0  0  0  0  0  0  0  0
    2.8762    0.1373   -3.1393 H   0  0  0  0  0  0  0  0  0  0  0  0
    3.4457   -0.2307   -5.2410 H   0  0  0  0  0  0  0  0  0  0  0  0
    1.8970   -1.9851   -2.7120 H   0  0  0  0  0  0  0  0  0  0  0  0
    2.2068   -2.1752   -4.4120 H   0  0  0  0  0  0  0  0  0  0  0  0
    3.1694   -3.8117   -2.3307 H   0  0  0  0  0  0  0  0  0  0  0  0
    4.0589   -4.7985   -3.8996 H   0  0  0  0  0  0  0  0  0  0  0  0
    5.5954   -2.4049   -3.3981 H   0  0  0  0  0  0  0  0  0  0  0  0
    4.8624   -4.4892   -0.3776 H   0  0  0  0  0  0  0  0  0  0  0  0
    2.3172   -2.0685   -0.3071 H   0  0  0  0  0  0  0  0  0  0  0  0
  1  2  1  0
  1 32  1  0
  1 33  1  0
  1 34  1  0
  2 13  1  0
  2  3  1  0
  2  4  1  0
  3 35  1  0
  3 36  1  0
  3 37  1  0
  5  4  1  1
  5  9  1  0
  5 30  1  0
  5  6  1  0
  6  7  1  0
  6 15  1  0
  6 38  1  1
  7  8  2  0
  7  9  1  0
  9 10  1  6
  9 11  1  0
 10 39  1  0
 10 40  1  0
 10 41  1  0
 11 12  1  0
 11 13  1  0
 11 42  1  6
 12 43  1  0
 13 14  1  0
 13 44  1  1
 14 45  1  0
 15 29  1  0
 15 16  1  6
 15 17  1  0
 16 46  1  0
 16 47  1  0
 16 48  1  0
 17 18  1  0
 17 49  1  0
 17 50  1  0
 18 19  1  0
 18 51  1  0
 18 52  1  0
 19 30  1  0
 19 20  1  0
 19 53  1  1
 20 21  1  0
 21 27  1  0
 21 22  1  0
 21 54  1  6
 22 23  1  0
 22 24  1  0
 22 55  1  1
 23 56  1  0
 24 25  1  0
 24 57  1  0
 24 58  1  0
 25 26  1  0
 25 27  1  0
 25 59  1  1
 26 60  1  0
 27 28  1  0
 27 61  1  6
 28 29  1  0
 29 30  1  0
 29 62  1  6
 30 31  1  6
 31 63  1  0
M  END
>  <i_m_ct_stereo_status>  (250) 
1

>  <s_m_source_file>  (250) 
/var/tmp/pbs.5076255.sched01/tmp1t990xkq/82z3oanzij.sdf

>  <i_m_source_file_index>  (250) 
22

>  <i_lp_mmshare_version>  (250) 
48012

>  <i_f3d_flags>  (250) 
0

>  <s_epik_input>  (250) 
W0NIM11DKE8xKShbQ0gzXSlbQ0BIXShbT0hdKVtDQEhdKFtPSF0pW0NAXTIoW0NIM10pQyg9TylbQ0BIXShbQ0BdMTIzKVtDQEBdNChbQ0gzXSlbQ0BIXTVbQ0BdMyhbT0hdKVtDQEBIXShbQ0gyXVtDSDJdNClPW0NASF02W0NAQEhdKE81KVtDQEhdKFtPSF0pW0NIMl1bQ0BASF02W09IXQ==

>  <s_epik_cmdline>  (250) 
J2VwaWtfcHl0aG9uJywgJy1waHQnLCAnMi4wJywgJy1waCcsICc3LjAnLCAnLXRuJywgJzgnLCAnLW1hJywgJzIwMCcsICctaW1hZScsICc8aW5maWxlLm1hZT4nLCAnLW9tYWUnLCAnPG91dGZpbGUubWFlPic=

>  <r_lp_tautomer_probability>  (250) 
1

>  <r_epik_Ionization_Penalty>  (250) 
1.49776e-06

>  <r_epik_Ionization_Penalty_Charging>  (250) 
0

>  <r_epik_Ionization_Penalty_Neutral>  (250) 
1.49776e-06

>  <r_epik_State_Penalty>  (250) 
-0

>  <r_epik_Charging_Adjusted_Penalty>  (250) 
0

>  <i_epik_Tot_Q>  (250) 
0

>  <i_epik_Tot_abs_Q>  (250) 
0

>  <s_lp_Force_Field>  (250) 
OPLS3e

>  <r_lp_Energy>  (250) 
52.4951

>  <b_lp_Chiralities_Consistent>  (250) 
1

>  <s_lp_Variant>  (250) 
71:0-1

>  <s_i_glide_gridfile>  (250) 
pfpi4k_grid

>  <i_i_glide_lignum>  (250) 
22

>  <i_i_glide_rotatable_bonds>  (250) 
5

>  <r_i_docking_score>  (250) 
-3.9704

>  <r_i_glide_ligand_efficiency>  (250) 
-0.128077

>  <r_i_glide_ligand_efficiency_sa>  (250) 
-0.40234

>  <r_i_glide_ligand_efficiency_ln>  (250) 
-0.895447

>  <r_i_glide_gscore>  (250) 
-3.9704

>  <r_i_glide_lipo>  (250) 
-0.978672

>  <r_i_glide_hbond>  (250) 
0

>  <r_i_glide_metal>  (250) 
-0

>  <r_i_glide_rewards>  (250) 
-0.425287

>  <r_i_glide_evdw>  (250) 
-24.3376

>  <r_i_glide_ecoul>  (250) 
-8.99707

>  <r_i_glide_erotb>  (250) 
0

>  <r_i_glide_esite>  (250) 
0

>  <r_i_glide_emodel>  (250) 
-39.1618

>  <r_i_glide_energy>  (250) 
-33.3347

>  <r_i_glide_einternal>  (250) 
3.06254

>  <r_i_glide_intrahb_reward>  (250) 
-0

>  <i_i_glide_confnum>  (250) 
2

>  <i_i_glide_posenum>  (250) 
13

>  <r_i_glide_eff_state_penalty>  (250) 
0

>  <ligand_id>  (250) 
71

>  <original_smiles>  (250) 
CC1(C)OC23C(C(=O)C2(C)C(O)C1O)C1(C)CCC2OC4C(O)CC(O)C4OC1C23O

>  <smiles>  (250) 
[H]OC1([H])C([H])([H])C([H])(O[H])C2([H])OC3([H])C4(O[H])C([H])(OC12[H])C([H])([H])C([H])([H])C3(C([H])([H])[H])C1([H])C(=O)C2(C([H])([H])[H])C([H])(O[H])C([H])(O[H])C(C([H])([H])[H])(C([H])([H])[H])OC142

$$$$
72:0:0
     RDKit          3D

 45 49  0  0  1  0  0  0  0  0999 V2000
    3.5693   -1.1547    0.7943 C   0  0  0  0  0  0  0  0  0  0  0  0
    3.5463   -2.5790    1.4048 C   0  0  2  0  0  0  0  0  0  0  0  0
    4.2057   -2.5702    2.8079 C   0  0  0  0  0  0  0  0  0  0  0  0
    5.5444   -3.3206    2.9738 C   0  0  0  0  0  0  0  0  0  0  0  0
    6.3878   -3.5174    1.6939 C   0  0  2  0  0  0  0  0  0  0  0  0
    6.8825   -2.2663    0.9453 C   0  0  0  0  0  0  0  0  0  0  0  0
    6.4269   -2.8791   -0.3683 C   0  0  1  0  0  0  0  0  0  0  0  0
    7.5016   -3.3483   -1.3422 C   0  0  0  0  0  0  0  0  0  0  0  0
    5.5912   -3.8961    0.4568 C   0  0  1  0  0  0  0  0  0  0  0  0
    5.8408   -5.3839    0.3243 C   0  0  2  0  0  0  0  0  0  0  0  0
    4.6186   -6.1684    0.7614 C   0  0  0  0  0  0  0  0  0  0  0  0
    3.5844   -5.1078    1.1486 C   0  0  2  0  0  0  0  0  0  0  0  0
    2.2287   -5.3460    0.5149 C   0  0  0  0  0  0  0  0  0  0  0  0
    1.3452   -6.0489    1.0076 O   0  0  0  0  0  0  0  0  0  0  0  0
    2.1490   -4.6121   -0.5830 O   0  0  0  0  0  0  0  0  0  0  0  0
    3.3719   -3.9564   -0.8831 C   0  0  1  0  0  0  0  0  0  0  0  0
    3.1028   -2.7870   -1.8423 C   0  0  0  0  0  0  0  0  0  0  0  0
    4.0506   -3.7745    0.5143 C   0  0  1  0  0  0  0  0  0  0  0  0
    6.9404   -5.7417    1.1393 O   0  0  0  0  0  0  0  0  0  0  0  0
    7.3723   -4.6965    1.9401 C   0  0  1  0  0  0  0  0  0  0  0  0
    8.7144   -4.3713    1.6493 O   0  0  0  0  0  0  0  0  0  0  0  0
    4.4966   -0.8887    0.2997 H   0  0  0  0  0  0  0  0  0  0  0  0
    3.3822   -0.3940    1.5515 H   0  0  0  0  0  0  0  0  0  0  0  0
    2.7690   -1.0060    0.0800 H   0  0  0  0  0  0  0  0  0  0  0  0
    2.4862   -2.7473    1.5872 H   0  0  0  0  0  0  0  0  0  0  0  0
    4.3698   -1.5437    3.1280 H   0  0  0  0  0  0  0  0  0  0  0  0
    3.5003   -2.9814    3.5340 H   0  0  0  0  0  0  0  0  0  0  0  0
    6.1073   -2.7929    3.7395 H   0  0  0  0  0  0  0  0  0  0  0  0
    5.3125   -4.2942    3.4031 H   0  0  0  0  0  0  0  0  0  0  0  0
    6.3420   -1.3663    1.2379 H   0  0  0  0  0  0  0  0  0  0  0  0
    7.9544   -2.0862    0.9440 H   0  0  0  0  0  0  0  0  0  0  0  0
    5.7746   -2.1664   -0.8568 H   0  0  0  0  0  0  0  0  0  0  0  0
    8.1898   -4.0529   -0.8758 H   0  0  0  0  0  0  0  0  0  0  0  0
    8.1088   -2.5212   -1.7086 H   0  0  0  0  0  0  0  0  0  0  0  0
    7.0572   -3.8286   -2.2128 H   0  0  0  0  0  0  0  0  0  0  0  0
    6.0550   -5.6505   -0.6868 H   0  0  0  0  0  0  0  0  0  0  0  0
    4.2871   -6.7897   -0.0741 H   0  0  0  0  0  0  0  0  0  0  0  0
    4.8426   -6.8497    1.5831 H   0  0  0  0  0  0  0  0  0  0  0  0
    3.4897   -5.0651    2.2298 H   0  0  0  0  0  0  0  0  0  0  0  0
    3.9886   -4.6520   -1.4449 H   0  0  0  0  0  0  0  0  0  0  0  0
    3.9289   -2.0782   -1.9305 H   0  0  0  0  0  0  0  0  0  0  0  0
    2.2227   -2.2559   -1.5260 H   0  0  0  0  0  0  0  0  0  0  0  0
    2.8658   -3.1693   -2.8403 H   0  0  0  0  0  0  0  0  0  0  0  0
    7.3406   -5.0814    2.9594 H   0  0  0  0  0  0  0  0  0  0  0  0
    9.2674   -4.8133    2.2863 H   0  0  0  0  0  0  0  0  0  0  0  0
  1  2  1  0
  1 22  1  0
  1 23  1  0
  1 24  1  0
  2 18  1  0
  2  3  1  0
  2 25  1  1
  3  4  1  0
  3 26  1  0
  3 27  1  0
  5  4  1  1
  4 28  1  0
  4 29  1  0
  9  5  1  1
  5 20  1  0
  5  6  1  0
  6  7  1  0
  6 30  1  0
  6 31  1  0
  7  8  1  0
  7  9  1  0
  7 32  1  6
  8 33  1  0
  8 34  1  0
  8 35  1  0
 18  9  1  6
  9 10  1  0
 10 11  1  0
 10 19  1  0
 10 36  1  6
 11 12  1  0
 11 37  1  0
 11 38  1  0
 12 18  1  0
 12 13  1  0
 12 39  1  1
 13 14  2  0
 13 15  1  0
 15 16  1  0
 16 17  1  0
 16 18  1  0
 16 40  1  6
 17 41  1  0
 17 42  1  0
 17 43  1  0
 19 20  1  0
 20 21  1  0
 20 44  1  1
 21 45  1  0
M  END
>  <i_m_ct_stereo_status>  (251) 
1

>  <s_m_source_file>  (251) 
/var/tmp/pbs.5076255.sched01/tmp1t990xkq/82z3oanzij.sdf

>  <i_m_source_file_index>  (251) 
23

>  <i_lp_mmshare_version>  (251) 
48012

>  <i_f3d_flags>  (251) 
0

>  <s_epik_input>  (251) 
W0NIMl0xW0NIMl1bQ0BASF0oW0NIM10pW0NAQF0yKFtDQF0zKFtDQF0xNDUpW0NAQEhdKFtDSDJdNClbQ0gzXSlbQ0BASF0oQyg9TylPW0NASF0yW0NIM10pW0NIMl1bQ0BASF0zT1tDQEhdNVtPSF0=

>  <s_epik_cmdline>  (251) 
J2VwaWtfcHl0aG9uJywgJy1waHQnLCAnMi4wJywgJy1waCcsICc3LjAnLCAnLXRuJywgJzgnLCAnLW1hJywgJzIwMCcsICctaW1hZScsICc8aW5maWxlLm1hZT4nLCAnLW9tYWUnLCAnPG91dGZpbGUubWFlPic=

>  <r_lp_tautomer_probability>  (251) 
1

>  <r_epik_Ionization_Penalty>  (251) 
4.45669e-08

>  <r_epik_Ionization_Penalty_Charging>  (251) 
0

>  <r_epik_Ionization_Penalty_Neutral>  (251) 
4.45669e-08

>  <r_epik_State_Penalty>  (251) 
-0

>  <r_epik_Charging_Adjusted_Penalty>  (251) 
0

>  <i_epik_Tot_Q>  (251) 
0

>  <i_epik_Tot_abs_Q>  (251) 
0

>  <s_epik_Chemistry_Notes>  (251) 
This compound has an ester and may undergo hydrolysis at high or low pH. This compound contains an acetal/aminal-like group ( X-CH(R)-Y where X, Y are N, S, or O) that may be acid/base labile, releasing an aldehyde.

>  <s_lp_Force_Field>  (251) 
OPLS3e

>  <r_lp_Energy>  (251) 
49.0145

>  <b_lp_Chiralities_Consistent>  (251) 
1

>  <s_lp_Variant>  (251) 
72:0-1

>  <s_i_glide_gridfile>  (251) 
pfpi4k_grid

>  <i_i_glide_lignum>  (251) 
23

>  <i_i_glide_rotatable_bonds>  (251) 
1

>  <r_i_docking_score>  (251) 
-3.35256

>  <r_i_glide_ligand_efficiency>  (251) 
-0.159646

>  <r_i_glide_ligand_efficiency_sa>  (251) 
-0.440451

>  <r_i_glide_ligand_efficiency_ln>  (251) 
-0.828915

>  <r_i_glide_gscore>  (251) 
-3.35256

>  <r_i_glide_lipo>  (251) 
-0.544369

>  <r_i_glide_hbond>  (251) 
-0.16

>  <r_i_glide_metal>  (251) 
-0

>  <r_i_glide_rewards>  (251) 
-1.49303

>  <r_i_glide_evdw>  (251) 
-8.21687

>  <r_i_glide_ecoul>  (251) 
-4.56382

>  <r_i_glide_erotb>  (251) 
0

>  <r_i_glide_esite>  (251) 
-0.0597457

>  <r_i_glide_emodel>  (251) 
-13.2166

>  <r_i_glide_energy>  (251) 
-12.7807

>  <r_i_glide_einternal>  (251) 
0.984072

>  <r_i_glide_intrahb_reward>  (251) 
-0

>  <i_i_glide_confnum>  (251) 
1

>  <i_i_glide_posenum>  (251) 
5

>  <r_i_glide_eff_state_penalty>  (251) 
0

>  <ligand_id>  (251) 
72

>  <original_smiles>  (251) 
CC1CCC23CC(C)C24C(CC2C(=O)OC(C)C124)OC3O

>  <smiles>  (251) 
[H]OC1([H])OC2([H])C([H])([H])C3([H])C(=O)OC([H])(C([H])([H])[H])C34C([H])(C([H])([H])[H])C([H])([H])C([H])([H])C13C([H])([H])C([H])(C([H])([H])[H])C234

$$$$
73:0:0
     RDKit          3D

 63 69  0  0  1  0  0  0  0  0999 V2000
   -0.9089   -8.5392    3.0376 C   0  0  0  0  0  0  0  0  0  0  0  0
   -0.1672   -8.0641    4.3104 C   0  0  2  0  0  0  0  0  0  0  0  0
   -0.2792   -6.5532    4.5299 C   0  0  0  0  0  0  0  0  0  0  0  0
    1.0253   -6.0318    3.9734 C   0  0  0  0  0  0  0  0  0  0  0  0
    1.2920   -4.8426    3.8518 O   0  0  0  0  0  0  0  0  0  0  0  0
    1.9484   -7.2155    3.6776 C   0  0  2  0  0  0  0  0  0  0  0  0
    1.2530   -8.3292    4.2639 O   0  0  0  0  0  0  0  0  0  0  0  0
    3.3068   -6.9581    4.3321 C   0  0  0  0  0  0  0  0  0  0  0  0
    3.5464   -7.1260    5.5337 O   0  0  0  0  0  0  0  0  0  0  0  0
    4.3652   -6.5224    3.3227 C   0  0  2  0  0  0  0  0  0  0  0  0
    4.7619   -5.0486    3.3939 C   0  0  0  0  0  0  0  0  0  0  0  0
    4.3201   -4.3174    2.3851 C   0  0  0  0  0  0  0  0  0  0  0  0
    3.4152   -5.1515    1.4857 C   0  0  1  0  0  0  0  0  0  0  0  0
    3.5719   -5.0572    0.0802 O   0  0  0  0  0  0  0  0  0  0  0  0
    4.1741   -3.9374   -0.5787 C   0  0  2  0  0  0  0  0  0  0  0  0
    5.6647   -4.2215   -0.7492 C   0  0  0  0  0  0  0  0  0  0  0  0
    6.5154   -3.9942    0.4988 C   0  0  1  0  0  0  0  0  0  0  0  0
    8.0243   -4.0760    0.1847 C   0  0  0  0  0  0  0  0  0  0  0  0
    6.0715   -2.7472    1.3351 C   0  0  1  0  0  0  0  0  0  0  0  0
    6.3048   -1.3999    0.5414 C   0  0  1  0  0  0  0  0  0  0  0  0
    7.6843   -1.0963    0.5234 O   0  0  0  0  0  0  0  0  0  0  0  0
    5.7859   -1.4527   -0.7674 O   0  0  0  0  0  0  0  0  0  0  0  0
    4.4098   -1.1516   -0.7018 C   0  0  1  0  0  0  0  0  0  0  0  0
    3.4359   -1.7998   -1.4823 O   0  0  0  0  0  0  0  0  0  0  0  0
    3.7523   -2.5009   -0.2417 C   0  0  1  0  0  0  0  0  0  0  0  0
    3.5106   -2.1771    1.2301 C   0  0  1  0  0  0  0  0  0  0  0  0
    2.2161   -2.4858    1.7153 O   0  0  0  0  0  0  0  0  0  0  0  0
    4.6521   -2.8325    2.0702 C   0  0  1  0  0  0  0  0  0  0  0  0
    4.7474   -2.0565    3.4087 C   0  0  0  0  0  0  0  0  0  0  0  0
    3.6493   -6.6184    1.9544 C   0  0  2  0  0  0  0  0  0  0  0  0
    2.3859   -7.4769    2.1922 C   0  0  1  0  0  0  0  0  0  0  0  0
    2.7183   -8.9690    1.9370 C   0  0  0  0  0  0  0  0  0  0  0  0
    1.4193   -7.1216    1.2460 O   0  0  0  0  0  0  0  0  0  0  0  0
   -1.9747   -8.3462    3.1148 H   0  0  0  0  0  0  0  0  0  0  0  0
   -0.7793   -9.6092    2.8721 H   0  0  0  0  0  0  0  0  0  0  0  0
   -0.6046   -8.0268    2.1314 H   0  0  0  0  0  0  0  0  0  0  0  0
   -0.5786   -8.5850    5.1728 H   0  0  0  0  0  0  0  0  0  0  0  0
   -1.1114   -6.1292    3.9788 H   0  0  0  0  0  0  0  0  0  0  0  0
   -0.3679   -6.2877    5.5840 H   0  0  0  0  0  0  0  0  0  0  0  0
    5.2512   -7.1646    3.3467 H   0  0  0  0  0  0  0  0  0  0  0  0
    5.4364   -4.7032    4.1758 H   0  0  0  0  0  0  0  0  0  0  0  0
    2.3897   -4.8725    1.6804 H   0  0  0  0  0  0  0  0  0  0  0  0
    3.7919   -4.0985   -1.5796 H   0  0  0  0  0  0  0  0  0  0  0  0
    5.7650   -5.2572   -1.0556 H   0  0  0  0  0  0  0  0  0  0  0  0
    6.0526   -3.6389   -1.5836 H   0  0  0  0  0  0  0  0  0  0  0  0
    6.3713   -4.8771    1.1217 H   0  0  0  0  0  0  0  0  0  0  0  0
    8.3210   -3.3593   -0.5799 H   0  0  0  0  0  0  0  0  0  0  0  0
    8.2843   -5.0654   -0.1883 H   0  0  0  0  0  0  0  0  0  0  0  0
    8.6268   -3.8987    1.0751 H   0  0  0  0  0  0  0  0  0  0  0  0
    6.8030   -2.7189    2.1306 H   0  0  0  0  0  0  0  0  0  0  0  0
    5.8487   -0.5481    1.0707 H   0  0  0  0  0  0  0  0  0  0  0  0
    7.8086   -0.3036    1.0114 H   0  0  0  0  0  0  0  0  0  0  0  0
    4.1228   -0.1741   -0.3372 H   0  0  0  0  0  0  0  0  0  0  0  0
    3.5370   -1.1080    1.4100 H   0  0  0  0  0  0  0  0  0  0  0  0
    2.0491   -3.3934    1.5349 H   0  0  0  0  0  0  0  0  0  0  0  0
    4.9479   -0.9963    3.2404 H   0  0  0  0  0  0  0  0  0  0  0  0
    5.5383   -2.4278    4.0584 H   0  0  0  0  0  0  0  0  0  0  0  0
    3.8121   -2.1149    3.9657 H   0  0  0  0  0  0  0  0  0  0  0  0
    4.3099   -7.1011    1.2268 H   0  0  0  0  0  0  0  0  0  0  0  0
    3.5212   -9.3368    2.5757 H   0  0  0  0  0  0  0  0  0  0  0  0
    3.0311   -9.1166    0.9060 H   0  0  0  0  0  0  0  0  0  0  0  0
    1.8539   -9.6091    2.1013 H   0  0  0  0  0  0  0  0  0  0  0  0
    0.8143   -7.8594    1.1859 H   0  0  0  0  0  0  0  0  0  0  0  0
  1  2  1  0
  1 34  1  0
  1 35  1  0
  1 36  1  0
  2  7  1  0
  2  3  1  0
  2 37  1  1
  3  4  1  0
  3 38  1  0
  3 39  1  0
  4  5  2  0
  4  6  1  0
  6 31  1  0
  6  7  1  1
  6  8  1  0
  8  9  2  0
  8 10  1  0
 10 30  1  0
 10 11  1  0
 10 40  1  6
 11 12  2  0
 11 41  1  0
 12 28  1  0
 12 13  1  0
 13 14  1  0
 13 30  1  0
 13 42  1  6
 14 15  1  0
 15 25  1  0
 15 16  1  0
 15 43  1  6
 16 17  1  0
 16 44  1  0
 16 45  1  0
 17 18  1  0
 17 19  1  0
 17 46  1  1
 18 47  1  0
 18 48  1  0
 18 49  1  0
 19 28  1  0
 19 20  1  0
 19 50  1  1
 20 21  1  0
 20 22  1  0
 20 51  1  1
 21 52  1  0
 22 23  1  0
 23 25  1  0
 23 24  1  0
 23 53  1  1
 25 24  1  6
 25 26  1  0
 26 27  1  0
 26 28  1  0
 26 54  1  6
 27 55  1  0
 28 29  1  1
 29 56  1  0
 29 57  1  0
 29 58  1  0
 30 31  1  0
 30 59  1  6
 31 32  1  0
 31 33  1  6
 32 60  1  0
 32 61  1  0
 32 62  1  0
 33 63  1  0
M  END
>  <i_m_ct_stereo_status>  (252) 
1

>  <s_m_source_file>  (252) 
/var/tmp/pbs.5076255.sched01/tmp1t990xkq/82z3oanzij.sdf

>  <i_m_source_file_index>  (252) 
24

>  <i_lp_mmshare_version>  (252) 
48012

>  <i_f3d_flags>  (252) 
0

>  <s_epik_input>  (252) 
W0NIM11bQ0BASF0oTzEpW0NIMl1DKD1PKVtDQEBdMTJDKD1PKVtDQEhdM1tDQEBIXShbQ0BdMihbQ0gzXSlbT0hdKVtDQEhdNEMoPVtDSF0zKVtDQEBdNShbQ0gzXSlbQ0BIXTZbQ0BIXShbQ0gzXSlbQ0gyXVtDQEBIXShPNClbQ0BAXTcoW0NASF01W09IXSlbQ0BIXShPNylPW0NAQEhdNltPSF0=

>  <s_epik_cmdline>  (252) 
J2VwaWtfcHl0aG9uJywgJy1waHQnLCAnMi4wJywgJy1waCcsICc3LjAnLCAnLXRuJywgJzgnLCAnLW1hJywgJzIwMCcsICctaW1hZScsICc8aW5maWxlLm1hZT4nLCAnLW9tYWUnLCAnPG91dGZpbGUubWFlPic=

>  <r_lp_tautomer_probability>  (252) 
1

>  <r_epik_Ionization_Penalty>  (252) 
1.853e-06

>  <r_epik_Ionization_Penalty_Charging>  (252) 
0

>  <r_epik_Ionization_Penalty_Neutral>  (252) 
1.853e-06

>  <r_epik_State_Penalty>  (252) 
-0

>  <r_epik_Charging_Adjusted_Penalty>  (252) 
0

>  <i_epik_Tot_Q>  (252) 
0

>  <i_epik_Tot_abs_Q>  (252) 
0

>  <s_epik_Chemistry_Notes>  (252) 
This compound contains an acetal/aminal-like group ( X-CH(R)-Y where X, Y are N, S, or O) that may be acid/base labile, releasing an aldehyde.

>  <s_lp_Force_Field>  (252) 
OPLS3e

>  <r_lp_Energy>  (252) 
61.1092

>  <b_lp_Chiralities_Consistent>  (252) 
1

>  <s_lp_Variant>  (252) 
73:0-1

>  <s_i_glide_gridfile>  (252) 
pfpi4k_grid

>  <i_i_glide_lignum>  (252) 
24

>  <i_i_glide_rotatable_bonds>  (252) 
3

>  <r_i_docking_score>  (252) 
-3.17634

>  <r_i_glide_ligand_efficiency>  (252) 
-0.0962528

>  <r_i_glide_ligand_efficiency_sa>  (252) 
-0.308734

>  <r_i_glide_ligand_efficiency_ln>  (252) 
-0.706402

>  <r_i_glide_gscore>  (252) 
-3.17634

>  <r_i_glide_lipo>  (252) 
-0.536586

>  <r_i_glide_hbond>  (252) 
-0.0267607

>  <r_i_glide_metal>  (252) 
-0

>  <r_i_glide_rewards>  (252) 
-0.355255

>  <r_i_glide_evdw>  (252) 
-30.6877

>  <r_i_glide_ecoul>  (252) 
-4.4485

>  <r_i_glide_erotb>  (252) 
0

>  <r_i_glide_esite>  (252) 
-0.0560821

>  <r_i_glide_emodel>  (252) 
-40.7225

>  <r_i_glide_energy>  (252) 
-35.1362

>  <r_i_glide_einternal>  (252) 
2.12612

>  <r_i_glide_intrahb_reward>  (252) 
-0

>  <i_i_glide_confnum>  (252) 
2

>  <i_i_glide_posenum>  (252) 
8

>  <r_i_glide_eff_state_penalty>  (252) 
0

>  <ligand_id>  (252) 
73

>  <original_smiles>  (252) 
CC1CC(=O)C2(O1)C(=O)C1C=C3C(OC4CC(C)C5C(O)OC6OC46C(O)C35C)C1C2(C)O

>  <smiles>  (252) 
[H]OC1([H])OC2([H])OC23C2([H])OC4([H])C(=C([H])C5([H])C(=O)C6(OC([H])(C([H])([H])[H])C([H])([H])C6=O)C(O[H])(C([H])([H])[H])C45[H])C(C([H])([H])[H])(C3([H])O[H])C1([H])C([H])(C([H])([H])[H])C2([H])[H]

$$$$
73:0:1
     RDKit          3D

 63 69  0  0  1  0  0  0  0  0999 V2000
    2.2475    0.2759    2.3906 C   0  0  0  0  0  0  0  0  0  0  0  0
    3.5591   -0.4653    2.0409 C   0  0  2  0  0  0  0  0  0  0  0  0
    3.4018   -1.4704    0.8963 C   0  0  0  0  0  0  0  0  0  0  0  0
    3.1675   -2.7847    1.6157 C   0  0  0  0  0  0  0  0  0  0  0  0
    2.8997   -3.8425    1.0576 O   0  0  0  0  0  0  0  0  0  0  0  0
    3.4483   -2.5948    3.1026 C   0  0  2  0  0  0  0  0  0  0  0  0
    4.0308   -1.2620    3.1728 O   0  0  0  0  0  0  0  0  0  0  0  0
    4.4500   -3.6462    3.5264 C   0  0  0  0  0  0  0  0  0  0  0  0
    5.6311   -3.6430    3.1891 O   0  0  0  0  0  0  0  0  0  0  0  0
    3.8186   -4.7382    4.3753 C   0  0  2  0  0  0  0  0  0  0  0  0
    3.6990   -6.0822    3.6545 C   0  0  0  0  0  0  0  0  0  0  0  0
    2.4683   -6.3833    3.2982 C   0  0  0  0  0  0  0  0  0  0  0  0
    1.5262   -5.2347    3.6214 C   0  0  1  0  0  0  0  0  0  0  0  0
    0.2768   -5.5130    4.2396 O   0  0  0  0  0  0  0  0  0  0  0  0
   -0.3666   -6.7864    4.1659 C   0  0  2  0  0  0  0  0  0  0  0  0
    0.0569   -7.6022    5.3925 C   0  0  0  0  0  0  0  0  0  0  0  0
    1.4402   -8.2549    5.2673 C   0  0  1  0  0  0  0  0  0  0  0  0
    1.6714   -9.2466    6.4228 C   0  0  0  0  0  0  0  0  0  0  0  0
    1.7984   -8.8047    3.8295 C   0  0  1  0  0  0  0  0  0  0  0  0
    0.8010   -9.9828    3.4343 C   0  0  1  0  0  0  0  0  0  0  0  0
    1.0913  -11.1712    4.1397 O   0  0  0  0  0  0  0  0  0  0  0  0
   -0.5359   -9.6168    3.6551 O   0  0  0  0  0  0  0  0  0  0  0  0
   -1.0521   -8.9394    2.5617 C   0  0  1  0  0  0  0  0  0  0  0  0
   -1.9187   -7.8343    2.5856 O   0  0  0  0  0  0  0  0  0  0  0  0
   -0.5290   -7.5068    2.8031 C   0  0  1  0  0  0  0  0  0  0  0  0
    0.6557   -7.4351    1.8484 C   0  0  1  0  0  0  0  0  0  0  0  0
    0.6500   -6.2773    1.0260 O   0  0  0  0  0  0  0  0  0  0  0  0
    1.9672   -7.6958    2.6699 C   0  0  1  0  0  0  0  0  0  0  0  0
    3.0399   -8.2286    1.6862 C   0  0  0  0  0  0  0  0  0  0  0  0
    2.3484   -4.2865    4.5366 C   0  0  2  0  0  0  0  0  0  0  0  0
    2.3102   -2.7856    4.1645 C   0  0  1  0  0  0  0  0  0  0  0  0
    2.5650   -1.9413    5.4434 C   0  0  0  0  0  0  0  0  0  0  0  0
    1.0378   -2.4150    3.6931 O   0  0  0  0  0  0  0  0  0  0  0  0
    1.9290    0.8917    1.5558 H   0  0  0  0  0  0  0  0  0  0  0  0
    2.3964    0.9766    3.2110 H   0  0  0  0  0  0  0  0  0  0  0  0
    1.4094   -0.3817    2.6705 H   0  0  0  0  0  0  0  0  0  0  0  0
    4.3515    0.2290    1.7901 H   0  0  0  0  0  0  0  0  0  0  0  0
    2.5208   -1.2552    0.3092 H   0  0  0  0  0  0  0  0  0  0  0  0
    4.2836   -1.5198    0.2409 H   0  0  0  0  0  0  0  0  0  0  0  0
    4.3180   -4.8765    5.3461 H   0  0  0  0  0  0  0  0  0  0  0  0
    4.5718   -6.7198    3.5240 H   0  0  0  0  0  0  0  0  0  0  0  0
    1.3061   -4.7349    2.6914 H   0  0  0  0  0  0  0  0  0  0  0  0
   -1.3720   -6.4877    4.4165 H   0  0  0  0  0  0  0  0  0  0  0  0
    0.0411   -6.9617    6.2754 H   0  0  0  0  0  0  0  0  0  0  0  0
   -0.7017   -8.3537    5.6012 H   0  0  0  0  0  0  0  0  0  0  0  0
    2.1511   -7.4617    5.4986 H   0  0  0  0  0  0  0  0  0  0  0  0
    0.9062  -10.0187    6.4725 H   0  0  0  0  0  0  0  0  0  0  0  0
    1.6433   -8.7213    7.3769 H   0  0  0  0  0  0  0  0  0  0  0  0
    2.6474   -9.7254    6.3387 H   0  0  0  0  0  0  0  0  0  0  0  0
    2.7843   -9.2681    3.9446 H   0  0  0  0  0  0  0  0  0  0  0  0
    0.9248  -10.2556    2.3719 H   0  0  0  0  0  0  0  0  0  0  0  0
    0.9281  -10.9839    5.0482 H   0  0  0  0  0  0  0  0  0  0  0  0
   -1.0683   -9.4707    1.6152 H   0  0  0  0  0  0  0  0  0  0  0  0
    0.5908   -8.2296    1.1161 H   0  0  0  0  0  0  0  0  0  0  0  0
    1.4515   -6.2857    0.5191 H   0  0  0  0  0  0  0  0  0  0  0  0
    2.7056   -9.1559    1.2152 H   0  0  0  0  0  0  0  0  0  0  0  0
    3.9787   -8.4653    2.1931 H   0  0  0  0  0  0  0  0  0  0  0  0
    3.2557   -7.5162    0.8877 H   0  0  0  0  0  0  0  0  0  0  0  0
    2.0347   -4.4396    5.5777 H   0  0  0  0  0  0  0  0  0  0  0  0
    3.5089   -2.1778    5.9228 H   0  0  0  0  0  0  0  0  0  0  0  0
    1.7806   -2.1249    6.1613 H   0  0  0  0  0  0  0  0  0  0  0  0
    2.5726   -0.8864    5.2192 H   0  0  0  0  0  0  0  0  0  0  0  0
    0.9732   -2.6714    2.7820 H   0  0  0  0  0  0  0  0  0  0  0  0
  1  2  1  0
  1 34  1  0
  1 35  1  0
  1 36  1  0
  2  7  1  0
  2  3  1  0
  2 37  1  6
  3  4  1  0
  3 38  1  0
  3 39  1  0
  4  5  2  0
  4  6  1  0
  6 31  1  0
  6  7  1  6
  6  8  1  0
  8  9  2  0
  8 10  1  0
 10 30  1  0
 10 11  1  0
 10 40  1  1
 11 12  2  0
 11 41  1  0
 12 28  1  0
 12 13  1  0
 13 14  1  0
 13 30  1  0
 13 42  1  6
 14 15  1  0
 15 25  1  0
 15 16  1  0
 15 43  1  1
 16 17  1  0
 16 44  1  0
 16 45  1  0
 17 18  1  0
 17 19  1  0
 17 46  1  1
 18 47  1  0
 18 48  1  0
 18 49  1  0
 19 28  1  0
 19 20  1  0
 19 50  1  1
 20 21  1  0
 20 22  1  0
 20 51  1  6
 21 52  1  0
 22 23  1  0
 23 25  1  0
 23 24  1  0
 23 53  1  6
 25 24  1  6
 25 26  1  0
 26 27  1  0
 26 28  1  0
 26 54  1  6
 27 55  1  0
 28 29  1  6
 29 56  1  0
 29 57  1  0
 29 58  1  0
 30 31  1  0
 30 59  1  1
 31 32  1  0
 31 33  1  6
 32 60  1  0
 32 61  1  0
 32 62  1  0
 33 63  1  0
M  END
>  <i_m_ct_stereo_status>  (253) 
1

>  <s_m_source_file>  (253) 
/var/tmp/pbs.5076255.sched01/tmp1t990xkq/82z3oanzij.sdf

>  <i_m_source_file_index>  (253) 
24

>  <i_lp_mmshare_version>  (253) 
48012

>  <i_f3d_flags>  (253) 
0

>  <s_epik_input>  (253) 
W0NIM11bQ0BASF0oTzEpW0NIMl1DKD1PKVtDQEBdMTJDKD1PKVtDQEhdM1tDQEBIXShbQ0BdMihbQ0gzXSlbT0hdKVtDQEhdNEMoPVtDSF0zKVtDQEBdNShbQ0gzXSlbQ0BIXTZbQ0BIXShbQ0gzXSlbQ0gyXVtDQEBIXShPNClbQ0BAXTcoW0NASF01W09IXSlbQ0BIXShPNylPW0NAQEhdNltPSF0=

>  <s_epik_cmdline>  (253) 
J2VwaWtfcHl0aG9uJywgJy1waHQnLCAnMi4wJywgJy1waCcsICc3LjAnLCAnLXRuJywgJzgnLCAnLW1hJywgJzIwMCcsICctaW1hZScsICc8aW5maWxlLm1hZT4nLCAnLW9tYWUnLCAnPG91dGZpbGUubWFlPic=

>  <r_lp_tautomer_probability>  (253) 
1

>  <r_epik_Ionization_Penalty>  (253) 
1.853e-06

>  <r_epik_Ionization_Penalty_Charging>  (253) 
0

>  <r_epik_Ionization_Penalty_Neutral>  (253) 
1.853e-06

>  <r_epik_State_Penalty>  (253) 
-0

>  <r_epik_Charging_Adjusted_Penalty>  (253) 
0

>  <i_epik_Tot_Q>  (253) 
0

>  <i_epik_Tot_abs_Q>  (253) 
0

>  <s_epik_Chemistry_Notes>  (253) 
This compound contains an acetal/aminal-like group ( X-CH(R)-Y where X, Y are N, S, or O) that may be acid/base labile, releasing an aldehyde.

>  <s_lp_Force_Field>  (253) 
OPLS3e

>  <r_lp_Energy>  (253) 
61.1092

>  <b_lp_Chiralities_Consistent>  (253) 
1

>  <s_lp_Variant>  (253) 
73:0-1

>  <s_i_glide_gridfile>  (253) 
pfpi4k_grid

>  <i_i_glide_lignum>  (253) 
24

>  <i_i_glide_rotatable_bonds>  (253) 
3

>  <r_i_docking_score>  (253) 
-2.9116

>  <r_i_glide_ligand_efficiency>  (253) 
-0.0882304

>  <r_i_glide_ligand_efficiency_sa>  (253) 
-0.283002

>  <r_i_glide_ligand_efficiency_ln>  (253) 
-0.647525

>  <r_i_glide_gscore>  (253) 
-2.9116

>  <r_i_glide_lipo>  (253) 
-0.000373634

>  <r_i_glide_hbond>  (253) 
0

>  <r_i_glide_metal>  (253) 
-0

>  <r_i_glide_rewards>  (253) 
-0.347325

>  <r_i_glide_evdw>  (253) 
-29.4769

>  <r_i_glide_ecoul>  (253) 
-7.22696

>  <r_i_glide_erotb>  (253) 
0

>  <r_i_glide_esite>  (253) 
-0.00601321

>  <r_i_glide_emodel>  (253) 
-42.7452

>  <r_i_glide_energy>  (253) 
-36.7039

>  <r_i_glide_einternal>  (253) 
0.635484

>  <r_i_glide_intrahb_reward>  (253) 
-0

>  <i_i_glide_confnum>  (253) 
2

>  <i_i_glide_posenum>  (253) 
29

>  <r_i_glide_eff_state_penalty>  (253) 
0

>  <ligand_id>  (253) 
73

>  <original_smiles>  (253) 
CC1CC(=O)C2(O1)C(=O)C1C=C3C(OC4CC(C)C5C(O)OC6OC46C(O)C35C)C1C2(C)O

>  <smiles>  (253) 
[H]OC1([H])OC2([H])OC23C2([H])OC4([H])C(=C([H])C5([H])C(=O)C6(OC([H])(C([H])([H])[H])C([H])([H])C6=O)C(O[H])(C([H])([H])[H])C45[H])C(C([H])([H])[H])(C3([H])O[H])C1([H])C([H])(C([H])([H])[H])C2([H])[H]

$$$$
73:0:2
     RDKit          3D

 63 69  0  0  1  0  0  0  0  0999 V2000
    4.5051   -0.8166    0.1665 C   0  0  0  0  0  0  0  0  0  0  0  0
    5.4431   -2.0059   -0.1491 C   0  0  2  0  0  0  0  0  0  0  0  0
    4.7324   -3.1288   -0.9202 C   0  0  0  0  0  0  0  0  0  0  0  0
    4.3820   -4.0945    0.1857 C   0  0  0  0  0  0  0  0  0  0  0  0
    3.6934   -5.1111    0.0490 O   0  0  0  0  0  0  0  0  0  0  0  0
    5.0689   -3.6648    1.4791 C   0  0  2  0  0  0  0  0  0  0  0  0
    5.9558   -2.6124    1.0539 O   0  0  0  0  0  0  0  0  0  0  0  0
    5.8316   -4.8630    2.0541 C   0  0  0  0  0  0  0  0  0  0  0  0
    6.9167   -5.2439    1.6429 O   0  0  0  0  0  0  0  0  0  0  0  0
    5.0858   -5.4810    3.2378 C   0  0  2  0  0  0  0  0  0  0  0  0
    4.4406   -6.8346    2.9553 C   0  0  0  0  0  0  0  0  0  0  0  0
    3.1104   -6.7989    2.8909 C   0  0  0  0  0  0  0  0  0  0  0  0
    2.6191   -5.3627    3.0026 C   0  0  1  0  0  0  0  0  0  0  0  0
    1.5107   -5.0782    3.8467 O   0  0  0  0  0  0  0  0  0  0  0  0
    0.5401   -6.0553    4.2427 C   0  0  2  0  0  0  0  0  0  0  0  0
    0.9911   -6.6541    5.5798 C   0  0  0  0  0  0  0  0  0  0  0  0
    2.0812   -7.7288    5.4478 C   0  0  1  0  0  0  0  0  0  0  0  0
    2.3008   -8.4505    6.7903 C   0  0  0  0  0  0  0  0  0  0  0  0
    1.9274   -8.6738    4.1958 C   0  0  1  0  0  0  0  0  0  0  0  0
    0.5995   -9.5369    4.3008 C   0  0  1  0  0  0  0  0  0  0  0  0
    0.7441  -10.5304    5.2788 O   0  0  0  0  0  0  0  0  0  0  0  0
   -0.5264   -8.7428    4.6168 O   0  0  0  0  0  0  0  0  0  0  0  0
   -1.0494   -8.2121    3.4241 C   0  0  1  0  0  0  0  0  0  0  0  0
   -1.5490   -6.9018    3.2611 O   0  0  0  0  0  0  0  0  0  0  0  0
   -0.1060   -6.9971    3.1865 C   0  0  1  0  0  0  0  0  0  0  0  0
    0.7978   -7.5213    2.0944 C   0  0  1  0  0  0  0  0  0  0  0  0
    0.8950   -6.6283    0.9956 O   0  0  0  0  0  0  0  0  0  0  0  0
    2.1384   -7.9948    2.7554 C   0  0  1  0  0  0  0  0  0  0  0  0
    2.7825   -9.0546    1.8302 C   0  0  0  0  0  0  0  0  0  0  0  0
    3.8642   -4.5528    3.4631 C   0  0  2  0  0  0  0  0  0  0  0  0
    4.1589   -3.2532    2.6949 C   0  0  1  0  0  0  0  0  0  0  0  0
    4.8893   -2.2585    3.6351 C   0  0  0  0  0  0  0  0  0  0  0  0
    2.9510   -2.6069    2.3387 O   0  0  0  0  0  0  0  0  0  0  0  0
    4.1733   -0.3519   -0.7514 H   0  0  0  0  0  0  0  0  0  0  0  0
    5.0157   -0.0373    0.7250 H   0  0  0  0  0  0  0  0  0  0  0  0
    3.6163   -1.0950    0.7286 H   0  0  0  0  0  0  0  0  0  0  0  0
    6.2931   -1.6429   -0.7408 H   0  0  0  0  0  0  0  0  0  0  0  0
    3.8300   -2.7833   -1.4155 H   0  0  0  0  0  0  0  0  0  0  0  0
    5.3870   -3.6012   -1.6495 H   0  0  0  0  0  0  0  0  0  0  0  0
    5.7149   -5.5406    4.1259 H   0  0  0  0  0  0  0  0  0  0  0  0
    5.0432   -7.7414    2.9086 H   0  0  0  0  0  0  0  0  0  0  0  0
    2.3209   -5.0371    2.0153 H   0  0  0  0  0  0  0  0  0  0  0  0
   -0.2639   -5.3928    4.5339 H   0  0  0  0  0  0  0  0  0  0  0  0
    1.3516   -5.8569    6.2378 H   0  0  0  0  0  0  0  0  0  0  0  0
    0.1255   -7.0487    6.1051 H   0  0  0  0  0  0  0  0  0  0  0  0
    3.0186   -7.1822    5.3321 H   0  0  0  0  0  0  0  0  0  0  0  0
    1.3857   -8.9157    7.1577 H   0  0  0  0  0  0  0  0  0  0  0  0
    2.6252   -7.7446    7.5562 H   0  0  0  0  0  0  0  0  0  0  0  0
    3.0638   -9.2230    6.7062 H   0  0  0  0  0  0  0  0  0  0  0  0
    2.7482   -9.3916    4.2947 H   0  0  0  0  0  0  0  0  0  0  0  0
    0.4078  -10.0856    3.3681 H   0  0  0  0  0  0  0  0  0  0  0  0
   -0.0689  -11.0038    5.2979 H   0  0  0  0  0  0  0  0  0  0  0  0
   -1.3844   -8.9090    2.6730 H   0  0  0  0  0  0  0  0  0  0  0  0
    0.3591   -8.3979    1.6197 H   0  0  0  0  0  0  0  0  0  0  0  0
    1.5345   -6.9837    0.3958 H   0  0  0  0  0  0  0  0  0  0  0  0
    2.1078   -9.9002    1.6758 H   0  0  0  0  0  0  0  0  0  0  0  0
    3.7078   -9.4641    2.2327 H   0  0  0  0  0  0  0  0  0  0  0  0
    3.0110   -8.6350    0.8560 H   0  0  0  0  0  0  0  0  0  0  0  0
    3.7624   -4.3587    4.5331 H   0  0  0  0  0  0  0  0  0  0  0  0
    5.8077   -2.6711    4.0312 H   0  0  0  0  0  0  0  0  0  0  0  0
    4.2516   -2.0014    4.4790 H   0  0  0  0  0  0  0  0  0  0  0  0
    5.1368   -1.3290    3.1178 H   0  0  0  0  0  0  0  0  0  0  0  0
    2.5940   -3.0285    1.5722 H   0  0  0  0  0  0  0  0  0  0  0  0
  1  2  1  0
  1 34  1  0
  1 35  1  0
  1 36  1  0
  2  7  1  0
  2  3  1  0
  2 37  1  6
  3  4  1  0
  3 38  1  0
  3 39  1  0
  4  5  2  0
  4  6  1  0
  6 31  1  0
  6  7  1  6
  6  8  1  0
  8  9  2  0
  8 10  1  0
 10 30  1  0
 10 11  1  0
 10 40  1  1
 11 12  2  0
 11 41  1  0
 12 28  1  0
 12 13  1  0
 13 14  1  0
 13 30  1  0
 13 42  1  6
 14 15  1  0
 15 25  1  0
 15 16  1  0
 15 43  1  1
 16 17  1  0
 16 44  1  0
 16 45  1  0
 17 18  1  0
 17 19  1  0
 17 46  1  6
 18 47  1  0
 18 48  1  0
 18 49  1  0
 19 28  1  0
 19 20  1  0
 19 50  1  1
 20 21  1  0
 20 22  1  0
 20 51  1  6
 21 52  1  0
 22 23  1  0
 23 25  1  0
 23 24  1  0
 23 53  1  6
 25 24  1  6
 25 26  1  0
 26 27  1  0
 26 28  1  0
 26 54  1  6
 27 55  1  0
 28 29  1  6
 29 56  1  0
 29 57  1  0
 29 58  1  0
 30 31  1  0
 30 59  1  1
 31 32  1  0
 31 33  1  6
 32 60  1  0
 32 61  1  0
 32 62  1  0
 33 63  1  0
M  END
>  <i_m_ct_stereo_status>  (254) 
1

>  <s_m_source_file>  (254) 
/var/tmp/pbs.5076255.sched01/tmp1t990xkq/82z3oanzij.sdf

>  <i_m_source_file_index>  (254) 
24

>  <i_lp_mmshare_version>  (254) 
48012

>  <i_f3d_flags>  (254) 
0

>  <s_epik_input>  (254) 
W0NIM11bQ0BASF0oTzEpW0NIMl1DKD1PKVtDQEBdMTJDKD1PKVtDQEhdM1tDQEBIXShbQ0BdMihbQ0gzXSlbT0hdKVtDQEhdNEMoPVtDSF0zKVtDQEBdNShbQ0gzXSlbQ0BIXTZbQ0BIXShbQ0gzXSlbQ0gyXVtDQEBIXShPNClbQ0BAXTcoW0NASF01W09IXSlbQ0BIXShPNylPW0NAQEhdNltPSF0=

>  <s_epik_cmdline>  (254) 
J2VwaWtfcHl0aG9uJywgJy1waHQnLCAnMi4wJywgJy1waCcsICc3LjAnLCAnLXRuJywgJzgnLCAnLW1hJywgJzIwMCcsICctaW1hZScsICc8aW5maWxlLm1hZT4nLCAnLW9tYWUnLCAnPG91dGZpbGUubWFlPic=

>  <r_lp_tautomer_probability>  (254) 
1

>  <r_epik_Ionization_Penalty>  (254) 
1.853e-06

>  <r_epik_Ionization_Penalty_Charging>  (254) 
0

>  <r_epik_Ionization_Penalty_Neutral>  (254) 
1.853e-06

>  <r_epik_State_Penalty>  (254) 
-0

>  <r_epik_Charging_Adjusted_Penalty>  (254) 
0

>  <i_epik_Tot_Q>  (254) 
0

>  <i_epik_Tot_abs_Q>  (254) 
0

>  <s_epik_Chemistry_Notes>  (254) 
This compound contains an acetal/aminal-like group ( X-CH(R)-Y where X, Y are N, S, or O) that may be acid/base labile, releasing an aldehyde.

>  <s_lp_Force_Field>  (254) 
OPLS3e

>  <r_lp_Energy>  (254) 
61.1092

>  <b_lp_Chiralities_Consistent>  (254) 
1

>  <s_lp_Variant>  (254) 
73:0-1

>  <s_i_glide_gridfile>  (254) 
pfpi4k_grid

>  <i_i_glide_lignum>  (254) 
24

>  <i_i_glide_rotatable_bonds>  (254) 
3

>  <r_i_docking_score>  (254) 
-2.86528

>  <r_i_glide_ligand_efficiency>  (254) 
-0.0868267

>  <r_i_glide_ligand_efficiency_sa>  (254) 
-0.2785

>  <r_i_glide_ligand_efficiency_ln>  (254) 
-0.637224

>  <r_i_glide_gscore>  (254) 
-2.86528

>  <r_i_glide_lipo>  (254) 
-0.140266

>  <r_i_glide_hbond>  (254) 
-0.133938

>  <r_i_glide_metal>  (254) 
-0

>  <r_i_glide_rewards>  (254) 
-0.335486

>  <r_i_glide_evdw>  (254) 
-32.0784

>  <r_i_glide_ecoul>  (254) 
-3.62359

>  <r_i_glide_erotb>  (254) 
0

>  <r_i_glide_esite>  (254) 
-0.108133

>  <r_i_glide_emodel>  (254) 
-41.3631

>  <r_i_glide_energy>  (254) 
-35.702

>  <r_i_glide_einternal>  (254) 
1.11069

>  <r_i_glide_intrahb_reward>  (254) 
-0

>  <i_i_glide_confnum>  (254) 
2

>  <i_i_glide_posenum>  (254) 
13

>  <r_i_glide_eff_state_penalty>  (254) 
0

>  <ligand_id>  (254) 
73

>  <original_smiles>  (254) 
CC1CC(=O)C2(O1)C(=O)C1C=C3C(OC4CC(C)C5C(O)OC6OC46C(O)C35C)C1C2(C)O

>  <smiles>  (254) 
[H]OC1([H])OC2([H])OC23C2([H])OC4([H])C(=C([H])C5([H])C(=O)C6(OC([H])(C([H])([H])[H])C([H])([H])C6=O)C(O[H])(C([H])([H])[H])C45[H])C(C([H])([H])[H])(C3([H])O[H])C1([H])C([H])(C([H])([H])[H])C2([H])[H]

$$$$
75:0:0
     RDKit          3D

 37 41  0  0  1  0  0  0  0  0999 V2000
   -0.0692   -7.4726    2.2126 C   0  0  0  0  0  0  0  0  0  0  0  0
   -0.5676   -7.3608    3.4509 N   0  0  0  0  0  0  0  0  0  0  0  0
    0.1121   -6.3394    4.1205 N   0  0  0  0  0  0  0  0  0  0  0  0
    0.9923   -5.8433    3.2537 C   0  0  0  0  0  0  0  0  0  0  0  0
    1.8799   -4.8205    3.3104 N   0  0  0  0  0  0  0  0  0  0  0  0
    2.5955   -4.5414    2.2154 N   0  0  0  0  0  0  0  0  0  0  0  0
    2.4371   -5.2580    1.0734 C   0  0  0  0  0  0  0  0  0  0  0  0
    3.2121   -4.9227   -0.0418 N   0  0  0  0  0  0  0  0  0  0  0  0
    4.1486   -3.7878   -0.0828 C   0  0  1  0  0  0  0  0  0  0  0  0
    3.4169   -2.4219    0.1238 C   0  0  0  0  0  0  0  0  0  0  0  0
    4.4173   -1.2606    0.0673 C   0  0  2  0  0  0  0  0  0  0  0  0
    5.0619   -1.2174   -1.3245 C   0  0  0  0  0  0  0  0  0  0  0  0
    5.8254   -2.5369   -1.5628 C   0  0  1  0  0  0  0  0  0  0  0  0
    6.9276   -2.7107   -0.4964 C   0  0  0  0  0  0  0  0  0  0  0  0
    6.2649   -2.7635    0.8866 C   0  0  1  0  0  0  0  0  0  0  0  0
    5.4942   -1.4548    1.1536 C   0  0  0  0  0  0  0  0  0  0  0  0
    5.3053   -3.9580    0.9536 C   0  0  0  0  0  0  0  0  0  0  0  0
    4.8264   -3.7235   -1.4869 C   0  0  0  0  0  0  0  0  0  0  0  0
    1.5534   -6.2790    0.9164 N   0  0  0  0  0  0  0  0  0  0  0  0
    0.8781   -6.5146    2.0487 N   0  0  0  0  0  0  0  0  0  0  0  0
   -0.3977   -8.1799    1.4633 H   0  0  0  0  0  0  0  0  0  0  0  0
    2.6365   -2.2863   -0.6332 H   0  0  0  0  0  0  0  0  0  0  0  0
    2.9085   -2.3418    1.0815 H   0  0  0  0  0  0  0  0  0  0  0  0
    3.8853   -0.3283    0.2494 H   0  0  0  0  0  0  0  0  0  0  0  0
    4.2929   -1.0837   -2.0855 H   0  0  0  0  0  0  0  0  0  0  0  0
    5.7273   -0.3633   -1.3956 H   0  0  0  0  0  0  0  0  0  0  0  0
    6.2880   -2.5206   -2.5510 H   0  0  0  0  0  0  0  0  0  0  0  0
    7.4880   -3.6291   -0.6767 H   0  0  0  0  0  0  0  0  0  0  0  0
    7.6456   -1.8944   -0.5303 H   0  0  0  0  0  0  0  0  0  0  0  0
    7.0221   -2.8949    1.6537 H   0  0  0  0  0  0  0  0  0  0  0  0
    6.1812   -0.6116    1.1754 H   0  0  0  0  0  0  0  0  0  0  0  0
    5.0272   -1.4928    2.1388 H   0  0  0  0  0  0  0  0  0  0  0  0
    4.9706   -3.9991    1.9848 H   0  0  0  0  0  0  0  0  0  0  0  0
    5.8365   -4.8955    0.7732 H   0  0  0  0  0  0  0  0  0  0  0  0
    5.3582   -4.6572   -1.7059 H   0  0  0  0  0  0  0  0  0  0  0  0
    4.0774   -3.6139   -2.2820 H   0  0  0  0  0  0  0  0  0  0  0  0
    3.0770   -5.4517   -0.9083 H   0  0  0  0  0  0  0  0  0  0  0  0
  1 20  1  0
  1  2  2  0
  1 21  1  0
  2  3  1  0
  3  4  2  0
  4 20  1  0
  4  5  1  0
  5  6  2  0
  6  7  1  0
  7  8  1  0
  7 19  2  0
  9  8  1  6
  8 37  1  0
  9 17  1  0
  9 18  1  0
  9 10  1  0
 10 11  1  0
 10 22  1  0
 10 23  1  0
 11 16  1  0
 11 12  1  0
 11 24  1  1
 12 13  1  0
 12 25  1  0
 12 26  1  0
 13 14  1  0
 13 18  1  0
 13 27  1  6
 14 15  1  0
 14 28  1  0
 14 29  1  0
 15 16  1  0
 15 17  1  0
 15 30  1  1
 16 31  1  0
 16 32  1  0
 17 33  1  0
 17 34  1  0
 18 35  1  0
 18 36  1  0
 19 20  1  0
M  END
>  <i_m_ct_stereo_status>  (255) 
1

>  <s_m_source_file>  (255) 
/var/tmp/pbs.5076255.sched01/tmp1t990xkq/82z3oanzij.sdf

>  <i_m_source_file_index>  (255) 
27

>  <i_lp_mmshare_version>  (255) 
48012

>  <i_f3d_flags>  (255) 
0

>  <s_epik_input>  (255) 
bjFuW2NIXW4oYzEyKVtuSF1jKFxubjIpPU5cQzM0W0NIMl1bQ0BASF01W0NIMl1bQ0BIXShbQ0gyXTQpW0NIMl1bQ0BASF0oW0NIMl01KVtDSDJdMw==

>  <s_epik_cmdline>  (255) 
J2VwaWtfcHl0aG9uJywgJy1waHQnLCAnMi4wJywgJy1waCcsICc3LjAnLCAnLXRuJywgJzgnLCAnLW1hJywgJzIwMCcsICctaW1hZScsICc8aW5maWxlLm1hZT4nLCAnLW9tYWUnLCAnPG91dGZpbGUubWFlPic=

>  <r_lp_tautomer_probability>  (255) 
1

>  <r_epik_Ionization_Penalty>  (255) 
1.10619e-05

>  <r_epik_Ionization_Penalty_Charging>  (255) 
0

>  <r_epik_Ionization_Penalty_Neutral>  (255) 
1.10619e-05

>  <r_epik_State_Penalty>  (255) 
-0

>  <r_epik_Charging_Adjusted_Penalty>  (255) 
0

>  <i_epik_Tot_Q>  (255) 
0

>  <i_epik_Tot_abs_Q>  (255) 
0

>  <s_lp_Force_Field>  (255) 
OPLS3e

>  <r_lp_Energy>  (255) 
18.8139

>  <b_lp_Chiralities_Consistent>  (255) 
1

>  <s_lp_Variant>  (255) 
75:0-1

>  <s_i_glide_gridfile>  (255) 
pfpi4k_grid

>  <i_i_glide_lignum>  (255) 
27

>  <i_i_glide_rotatable_bonds>  (255) 
2

>  <r_i_docking_score>  (255) 
-3.96068

>  <r_i_glide_ligand_efficiency>  (255) 
-0.198034

>  <r_i_glide_ligand_efficiency_sa>  (255) 
-0.537546

>  <r_i_glide_ligand_efficiency_ln>  (255) 
-0.991226

>  <r_i_glide_gscore>  (255) 
-3.96068

>  <r_i_glide_lipo>  (255) 
-0.259945

>  <r_i_glide_hbond>  (255) 
-0.368512

>  <r_i_glide_metal>  (255) 
-0

>  <r_i_glide_rewards>  (255) 
-1.55918

>  <r_i_glide_evdw>  (255) 
-25.7706

>  <r_i_glide_ecoul>  (255) 
-4.10655

>  <r_i_glide_erotb>  (255) 
0.486366

>  <r_i_glide_esite>  (255) 
-0.354899

>  <r_i_glide_emodel>  (255) 
-36.0869

>  <r_i_glide_energy>  (255) 
-29.8771

>  <r_i_glide_einternal>  (255) 
1.083

>  <r_i_glide_intrahb_reward>  (255) 
-0

>  <i_i_glide_confnum>  (255) 
6

>  <i_i_glide_posenum>  (255) 
1

>  <r_i_glide_eff_state_penalty>  (255) 
0

>  <ligand_id>  (255) 
75

>  <original_smiles>  (255) 
c1nnc2nnc(=NC34CC5CC(CC(C5)C3)C4)[nH]n12

>  <smiles>  (255) 
[H]c1nnc2nnc(N([H])C34C([H])([H])C5([H])C([H])([H])C([H])(C([H])([H])C([H])(C5([H])[H])C3([H])[H])C4([H])[H])nn12

$$$$
75:0:1
     RDKit          3D

 37 41  0  0  1  0  0  0  0  0999 V2000
    1.9911   -4.3475    4.4619 C   0  0  0  0  0  0  0  0  0  0  0  0
    1.0997   -5.0355    5.1862 N   0  0  0  0  0  0  0  0  0  0  0  0
    0.5469   -6.0376    4.3816 N   0  0  0  0  0  0  0  0  0  0  0  0
    1.1270   -5.9274    3.1851 C   0  0  0  0  0  0  0  0  0  0  0  0
    0.9798   -6.5910    2.0096 N   0  0  0  0  0  0  0  0  0  0  0  0
    1.7134   -6.2020    0.9554 N   0  0  0  0  0  0  0  0  0  0  0  0
    2.5842   -5.1602    1.0853 C   0  0  0  0  0  0  0  0  0  0  0  0
    3.2720   -4.8382   -0.0917 N   0  0  0  0  0  0  0  0  0  0  0  0
    4.2358   -3.7506   -0.2718 C   0  0  1  0  0  0  0  0  0  0  0  0
    5.4774   -3.9382    0.6451 C   0  0  0  0  0  0  0  0  0  0  0  0
    6.4844   -2.8023    0.4109 C   0  0  2  0  0  0  0  0  0  0  0  0
    5.8022   -1.4485    0.7057 C   0  0  0  0  0  0  0  0  0  0  0  0
    4.6138   -1.2460   -0.2594 C   0  0  1  0  0  0  0  0  0  0  0  0
    5.1052   -1.2854   -1.7163 C   0  0  0  0  0  0  0  0  0  0  0  0
    5.7713   -2.6501   -1.9886 C   0  0  1  0  0  0  0  0  0  0  0  0
    6.9754   -2.8508   -1.0460 C   0  0  0  0  0  0  0  0  0  0  0  0
    4.7381   -3.7723   -1.7485 C   0  0  0  0  0  0  0  0  0  0  0  0
    3.5802   -2.3617   -0.0358 C   0  0  0  0  0  0  0  0  0  0  0  0
    2.7843   -4.4350    2.2149 N   0  0  0  0  0  0  0  0  0  0  0  0
    2.0253   -4.8729    3.2155 N   0  0  0  0  0  0  0  0  0  0  0  0
    2.5749   -3.5094    4.8129 H   0  0  0  0  0  0  0  0  0  0  0  0
    5.2139   -3.9314    1.7008 H   0  0  0  0  0  0  0  0  0  0  0  0
    5.9425   -4.9071    0.4514 H   0  0  0  0  0  0  0  0  0  0  0  0
    7.3287   -2.9398    1.0846 H   0  0  0  0  0  0  0  0  0  0  0  0
    5.4445   -1.4319    1.7358 H   0  0  0  0  0  0  0  0  0  0  0  0
    6.5169   -0.6321    0.6127 H   0  0  0  0  0  0  0  0  0  0  0  0
    4.1416   -0.2845   -0.0604 H   0  0  0  0  0  0  0  0  0  0  0  0
    4.2710   -1.1233   -2.4007 H   0  0  0  0  0  0  0  0  0  0  0  0
    5.8098   -0.4762   -1.8922 H   0  0  0  0  0  0  0  0  0  0  0  0
    6.1163   -2.6854   -3.0220 H   0  0  0  0  0  0  0  0  0  0  0  0
    7.7386   -2.0969   -1.2191 H   0  0  0  0  0  0  0  0  0  0  0  0
    7.4521   -3.8112   -1.2426 H   0  0  0  0  0  0  0  0  0  0  0  0
    5.1865   -4.7377   -1.9890 H   0  0  0  0  0  0  0  0  0  0  0  0
    3.9033   -3.6539   -2.4447 H   0  0  0  0  0  0  0  0  0  0  0  0
    2.7281   -2.2363   -0.7081 H   0  0  0  0  0  0  0  0  0  0  0  0
    3.1893   -2.2479    0.9733 H   0  0  0  0  0  0  0  0  0  0  0  0
    3.0774   -5.4053   -0.9123 H   0  0  0  0  0  0  0  0  0  0  0  0
  1 20  1  0
  1  2  2  0
  1 21  1  0
  2  3  1  0
  3  4  2  0
  4 20  1  0
  4  5  1  0
  5  6  2  0
  6  7  1  0
  7  8  1  0
  7 19  2  0
  9  8  1  6
  8 37  1  0
  9 17  1  0
  9 18  1  0
  9 10  1  0
 10 11  1  0
 10 22  1  0
 10 23  1  0
 11 16  1  0
 11 12  1  0
 11 24  1  1
 12 13  1  0
 12 25  1  0
 12 26  1  0
 13 14  1  0
 13 18  1  0
 13 27  1  1
 14 15  1  0
 14 28  1  0
 14 29  1  0
 15 16  1  0
 15 17  1  0
 15 30  1  6
 16 31  1  0
 16 32  1  0
 17 33  1  0
 17 34  1  0
 18 35  1  0
 18 36  1  0
 19 20  1  0
M  END
>  <i_m_ct_stereo_status>  (256) 
1

>  <s_m_source_file>  (256) 
/var/tmp/pbs.5076255.sched01/tmp1t990xkq/82z3oanzij.sdf

>  <i_m_source_file_index>  (256) 
27

>  <i_lp_mmshare_version>  (256) 
48012

>  <i_f3d_flags>  (256) 
0

>  <s_epik_input>  (256) 
bjFuW2NIXW4oYzEyKVtuSF1jKFxubjIpPU5cQzM0W0NIMl1bQ0BASF01W0NIMl1bQ0BIXShbQ0gyXTQpW0NIMl1bQ0BASF0oW0NIMl01KVtDSDJdMw==

>  <s_epik_cmdline>  (256) 
J2VwaWtfcHl0aG9uJywgJy1waHQnLCAnMi4wJywgJy1waCcsICc3LjAnLCAnLXRuJywgJzgnLCAnLW1hJywgJzIwMCcsICctaW1hZScsICc8aW5maWxlLm1hZT4nLCAnLW9tYWUnLCAnPG91dGZpbGUubWFlPic=

>  <r_lp_tautomer_probability>  (256) 
1

>  <r_epik_Ionization_Penalty>  (256) 
1.10619e-05

>  <r_epik_Ionization_Penalty_Charging>  (256) 
0

>  <r_epik_Ionization_Penalty_Neutral>  (256) 
1.10619e-05

>  <r_epik_State_Penalty>  (256) 
-0

>  <r_epik_Charging_Adjusted_Penalty>  (256) 
0

>  <i_epik_Tot_Q>  (256) 
0

>  <i_epik_Tot_abs_Q>  (256) 
0

>  <s_lp_Force_Field>  (256) 
OPLS3e

>  <r_lp_Energy>  (256) 
18.8139

>  <b_lp_Chiralities_Consistent>  (256) 
1

>  <s_lp_Variant>  (256) 
75:0-1

>  <s_i_glide_gridfile>  (256) 
pfpi4k_grid

>  <i_i_glide_lignum>  (256) 
27

>  <i_i_glide_rotatable_bonds>  (256) 
2

>  <r_i_docking_score>  (256) 
-3.63999

>  <r_i_glide_ligand_efficiency>  (256) 
-0.182

>  <r_i_glide_ligand_efficiency_sa>  (256) 
-0.494023

>  <r_i_glide_ligand_efficiency_ln>  (256) 
-0.910971

>  <r_i_glide_gscore>  (256) 
-3.63999

>  <r_i_glide_lipo>  (256) 
-0.27782

>  <r_i_glide_hbond>  (256) 
-0.32

>  <r_i_glide_metal>  (256) 
-0

>  <r_i_glide_rewards>  (256) 
-1.56011

>  <r_i_glide_evdw>  (256) 
-23.8597

>  <r_i_glide_ecoul>  (256) 
-3.59078

>  <r_i_glide_erotb>  (256) 
0.486366

>  <r_i_glide_esite>  (256) 
-0.236829

>  <r_i_glide_emodel>  (256) 
-33.9379

>  <r_i_glide_energy>  (256) 
-27.4505

>  <r_i_glide_einternal>  (256) 
0.0175313

>  <r_i_glide_intrahb_reward>  (256) 
-0

>  <i_i_glide_confnum>  (256) 
1

>  <i_i_glide_posenum>  (256) 
23

>  <r_i_glide_eff_state_penalty>  (256) 
0

>  <ligand_id>  (256) 
75

>  <original_smiles>  (256) 
c1nnc2nnc(=NC34CC5CC(CC(C5)C3)C4)[nH]n12

>  <smiles>  (256) 
[H]c1nnc2nnc(N([H])C34C([H])([H])C5([H])C([H])([H])C([H])(C([H])([H])C([H])(C5([H])[H])C3([H])[H])C4([H])[H])nn12

$$$$
75:0:2
     RDKit          3D

 37 41  0  0  1  0  0  0  0  0999 V2000
    3.1749   -7.3721    3.6047 C   0  0  0  0  0  0  0  0  0  0  0  0
    2.3853   -8.3020    4.1534 N   0  0  0  0  0  0  0  0  0  0  0  0
    1.2275   -8.4216    3.3760 N   0  0  0  0  0  0  0  0  0  0  0  0
    1.3537   -7.5551    2.3717 C   0  0  0  0  0  0  0  0  0  0  0  0
    0.5623   -7.2069    1.3240 N   0  0  0  0  0  0  0  0  0  0  0  0
    0.9880   -6.2566    0.4801 N   0  0  0  0  0  0  0  0  0  0  0  0
    2.1892   -5.6559    0.6903 C   0  0  0  0  0  0  0  0  0  0  0  0
    2.4876   -4.6579   -0.2539 N   0  0  0  0  0  0  0  0  0  0  0  0
    3.6699   -3.7984   -0.2588 C   0  0  1  0  0  0  0  0  0  0  0  0
    4.9981   -4.6118   -0.3108 C   0  0  0  0  0  0  0  0  0  0  0  0
    6.1988   -3.6539   -0.3194 C   0  0  2  0  0  0  0  0  0  0  0  0
    6.1566   -2.7727    0.9497 C   0  0  0  0  0  0  0  0  0  0  0  0
    4.8667   -1.9278    0.9480 C   0  0  1  0  0  0  0  0  0  0  0  0
    4.8209   -1.0504   -0.3162 C   0  0  0  0  0  0  0  0  0  0  0  0
    4.8467   -1.9511   -1.5664 C   0  0  1  0  0  0  0  0  0  0  0  0
    6.1447   -2.7826   -1.5874 C   0  0  0  0  0  0  0  0  0  0  0  0
    3.6253   -2.9019   -1.5356 C   0  0  0  0  0  0  0  0  0  0  0  0
    3.6458   -2.8599    0.9740 C   0  0  0  0  0  0  0  0  0  0  0  0
    3.0389   -5.9261    1.7139 N   0  0  0  0  0  0  0  0  0  0  0  0
    2.5568   -6.8805    2.5022 N   0  0  0  0  0  0  0  0  0  0  0  0
    4.1354   -7.0595    3.9835 H   0  0  0  0  0  0  0  0  0  0  0  0
    5.1304   -5.2644    0.5469 H   0  0  0  0  0  0  0  0  0  0  0  0
    5.0140   -5.2565   -1.1912 H   0  0  0  0  0  0  0  0  0  0  0  0
    7.1165   -4.2381   -0.3193 H   0  0  0  0  0  0  0  0  0  0  0  0
    6.1817   -3.4007    1.8401 H   0  0  0  0  0  0  0  0  0  0  0  0
    7.0316   -2.1266    1.0002 H   0  0  0  0  0  0  0  0  0  0  0  0
    4.8387   -1.2935    1.8329 H   0  0  0  0  0  0  0  0  0  0  0  0
    3.9175   -0.4407   -0.3131 H   0  0  0  0  0  0  0  0  0  0  0  0
    5.6613   -0.3586   -0.3226 H   0  0  0  0  0  0  0  0  0  0  0  0
    4.8013   -1.3274   -2.4593 H   0  0  0  0  0  0  0  0  0  0  0  0
    7.0195   -2.1385   -1.6410 H   0  0  0  0  0  0  0  0  0  0  0  0
    6.1704   -3.4159   -2.4745 H   0  0  0  0  0  0  0  0  0  0  0  0
    3.6183   -3.5167   -2.4395 H   0  0  0  0  0  0  0  0  0  0  0  0
    2.7043   -2.3130   -1.5655 H   0  0  0  0  0  0  0  0  0  0  0  0
    2.7212   -2.2776    0.9813 H   0  0  0  0  0  0  0  0  0  0  0  0
    3.6603   -3.4233    1.9047 H   0  0  0  0  0  0  0  0  0  0  0  0
    1.9022   -4.6115   -1.0769 H   0  0  0  0  0  0  0  0  0  0  0  0
  1 20  1  0
  1  2  2  0
  1 21  1  0
  2  3  1  0
  3  4  2  0
  4 20  1  0
  4  5  1  0
  5  6  2  0
  6  7  1  0
  7  8  1  0
  7 19  2  0
  9  8  1  1
  8 37  1  0
  9 17  1  0
  9 18  1  0
  9 10  1  0
 10 11  1  0
 10 22  1  0
 10 23  1  0
 11 16  1  0
 11 12  1  0
 11 24  1  6
 12 13  1  0
 12 25  1  0
 12 26  1  0
 13 14  1  0
 13 18  1  0
 13 27  1  1
 14 15  1  0
 14 28  1  0
 14 29  1  0
 15 16  1  0
 15 17  1  0
 15 30  1  6
 16 31  1  0
 16 32  1  0
 17 33  1  0
 17 34  1  0
 18 35  1  0
 18 36  1  0
 19 20  1  0
M  END
>  <i_m_ct_stereo_status>  (257) 
1

>  <s_m_source_file>  (257) 
/var/tmp/pbs.5076255.sched01/tmp1t990xkq/82z3oanzij.sdf

>  <i_m_source_file_index>  (257) 
27

>  <i_lp_mmshare_version>  (257) 
48012

>  <i_f3d_flags>  (257) 
0

>  <s_epik_input>  (257) 
bjFuW2NIXW4oYzEyKVtuSF1jKFxubjIpPU5cQzM0W0NIMl1bQ0BASF01W0NIMl1bQ0BIXShbQ0gyXTQpW0NIMl1bQ0BASF0oW0NIMl01KVtDSDJdMw==

>  <s_epik_cmdline>  (257) 
J2VwaWtfcHl0aG9uJywgJy1waHQnLCAnMi4wJywgJy1waCcsICc3LjAnLCAnLXRuJywgJzgnLCAnLW1hJywgJzIwMCcsICctaW1hZScsICc8aW5maWxlLm1hZT4nLCAnLW9tYWUnLCAnPG91dGZpbGUubWFlPic=

>  <r_lp_tautomer_probability>  (257) 
1

>  <r_epik_Ionization_Penalty>  (257) 
1.10619e-05

>  <r_epik_Ionization_Penalty_Charging>  (257) 
0

>  <r_epik_Ionization_Penalty_Neutral>  (257) 
1.10619e-05

>  <r_epik_State_Penalty>  (257) 
-0

>  <r_epik_Charging_Adjusted_Penalty>  (257) 
0

>  <i_epik_Tot_Q>  (257) 
0

>  <i_epik_Tot_abs_Q>  (257) 
0

>  <s_lp_Force_Field>  (257) 
OPLS3e

>  <r_lp_Energy>  (257) 
18.8139

>  <b_lp_Chiralities_Consistent>  (257) 
1

>  <s_lp_Variant>  (257) 
75:0-1

>  <s_i_glide_gridfile>  (257) 
pfpi4k_grid

>  <i_i_glide_lignum>  (257) 
27

>  <i_i_glide_rotatable_bonds>  (257) 
2

>  <r_i_docking_score>  (257) 
-3.05251

>  <r_i_glide_ligand_efficiency>  (257) 
-0.152626

>  <r_i_glide_ligand_efficiency_sa>  (257) 
-0.41429

>  <r_i_glide_ligand_efficiency_ln>  (257) 
-0.763943

>  <r_i_glide_gscore>  (257) 
-3.05251

>  <r_i_glide_lipo>  (257) 
-0.223182

>  <r_i_glide_hbond>  (257) 
-0.00408613

>  <r_i_glide_metal>  (257) 
-0

>  <r_i_glide_rewards>  (257) 
-1.55918

>  <r_i_glide_evdw>  (257) 
-24.7511

>  <r_i_glide_ecoul>  (257) 
-1.14946

>  <r_i_glide_erotb>  (257) 
0.486366

>  <r_i_glide_esite>  (257) 
-0.342459

>  <r_i_glide_emodel>  (257) 
-31.1553

>  <r_i_glide_energy>  (257) 
-25.9006

>  <r_i_glide_einternal>  (257) 
0.119595

>  <r_i_glide_intrahb_reward>  (257) 
-0

>  <i_i_glide_confnum>  (257) 
1

>  <i_i_glide_posenum>  (257) 
37

>  <r_i_glide_eff_state_penalty>  (257) 
0

>  <ligand_id>  (257) 
75

>  <original_smiles>  (257) 
c1nnc2nnc(=NC34CC5CC(CC(C5)C3)C4)[nH]n12

>  <smiles>  (257) 
[H]c1nnc2nnc(N([H])C34C([H])([H])C5([H])C([H])([H])C([H])(C([H])([H])C([H])(C5([H])[H])C3([H])[H])C4([H])[H])nn12

$$$$
77:0:0
     RDKit          3D

 63 68  0  0  1  0  0  0  0  0999 V2000
    2.9749   -1.4658   -2.5466 C   0  0  0  0  0  0  0  0  0  0  0  0
    4.3589   -1.7304   -2.6086 O   0  0  0  0  0  0  0  0  0  0  0  0
    5.1532   -2.1655   -1.5600 C   0  0  0  0  0  0  0  0  0  0  0  0
    6.3616   -2.2965   -1.6453 O   0  0  0  0  0  0  0  0  0  0  0  0
    4.3877   -2.4094   -0.2050 C   0  0  2  0  0  0  0  0  0  0  0  0
    4.0471   -0.9381    0.3091 C   0  0  0  0  0  0  0  0  0  0  0  0
    2.7885   -0.4936    1.1071 C   0  0  0  0  0  0  0  0  0  0  0  0
    2.7857   -0.5545    2.6635 C   0  0  0  0  0  0  0  0  0  0  0  0
    2.3140   -1.8070    3.3896 N   0  0  1  0  0  0  0  0  0  0  0  0
    0.8640   -1.6115    3.8112 C   0  0  0  0  0  0  0  0  0  0  0  0
    2.2899   -2.9349    2.4294 C   0  0  0  0  0  0  0  0  0  0  0  0
    3.5800   -3.6955    2.6687 C   0  0  1  0  0  0  0  0  0  0  0  0
    4.9692   -3.1758    2.2701 C   0  0  2  0  0  0  0  0  0  0  0  0
    5.4629   -2.0039    3.0891 C   0  0  0  0  0  0  0  0  0  0  0  0
    4.7788   -2.0035    4.4478 C   0  0  0  0  0  0  0  0  0  0  0  0
    3.2575   -2.4855    4.4151 C   0  0  1  0  0  0  0  0  0  0  0  0
    2.7617   -2.2707    5.8839 C   0  0  0  0  0  0  0  0  0  0  0  0
    2.5052   -3.2519    6.5964 O   0  0  0  0  0  0  0  0  0  0  0  0
    2.6755   -0.9433    6.3057 O   0  0  0  0  0  0  0  0  0  0  0  0
    2.8816    0.2008    5.5227 C   0  0  0  0  0  0  0  0  0  0  0  0
    3.3181   -4.0419    4.0543 C   0  0  1  0  0  0  0  0  0  0  0  0
    3.5013   -5.1047    2.7750 C   0  0  1  0  0  0  0  0  0  0  0  0
    2.9425   -5.5014    1.3626 C   0  0  1  0  0  0  0  0  0  0  0  0
    1.5376   -5.4118    1.1689 O   0  0  0  0  0  0  0  0  0  0  0  0
    0.7671   -6.3184    1.9361 C   0  0  0  0  0  0  0  0  0  0  0  0
    3.7112   -4.8936    0.1179 C   0  0  2  0  0  0  0  0  0  0  0  0
    5.2130   -4.6686    0.2990 C   0  0  0  0  0  0  0  0  0  0  0  0
    5.3229   -3.1988    0.7644 C   0  0  1  0  0  0  0  0  0  0  0  0
    3.2918   -3.5196   -0.4923 C   0  0  0  0  0  0  0  0  0  0  0  0
    2.6005   -1.1422   -3.4937 H   0  0  0  0  0  0  0  0  0  0  0  0
    2.7117   -0.6994   -1.8288 H   0  0  0  0  0  0  0  0  0  0  0  0
    2.3776   -2.3257   -2.2744 H   0  0  0  0  0  0  0  0  0  0  0  0
    4.9295   -0.4679    0.7284 H   0  0  0  0  0  0  0  0  0  0  0  0
    3.9955   -0.2668   -0.5640 H   0  0  0  0  0  0  0  0  0  0  0  0
    2.6811    0.5721    0.9035 H   0  0  0  0  0  0  0  0  0  0  0  0
    1.8345   -0.8622    0.8072 H   0  0  0  0  0  0  0  0  0  0  0  0
    3.7092   -0.1114    3.0402 H   0  0  0  0  0  0  0  0  0  0  0  0
    2.0516    0.2379    2.8543 H   0  0  0  0  0  0  0  0  0  0  0  0
    0.4353   -2.4827    4.3316 H   0  0  0  0  0  0  0  0  0  0  0  0
    0.2265   -1.3882    2.9452 H   0  0  0  0  0  0  0  0  0  0  0  0
    0.6603   -0.7719    4.4988 H   0  0  0  0  0  0  0  0  0  0  0  0
    1.4656   -3.5771    2.7359 H   0  0  0  0  0  0  0  0  0  0  0  0
    1.9907   -2.7187    1.4485 H   0  0  0  0  0  0  0  0  0  0  0  0
    5.6517   -3.9324    2.6631 H   0  0  0  0  0  0  0  0  0  0  0  0
    6.5225   -2.1006    3.1782 H   0  0  0  0  0  0  0  0  0  0  0  0
    5.4067   -1.0525    2.5917 H   0  0  0  0  0  0  0  0  0  0  0  0
    5.3356   -2.6274    5.1476 H   0  0  0  0  0  0  0  0  0  0  0  0
    5.0250   -1.0390    4.8724 H   0  0  0  0  0  0  0  0  0  0  0  0
    2.6601    1.1234    5.9936 H   0  0  0  0  0  0  0  0  0  0  0  0
    2.1971    0.1782    4.7163 H   0  0  0  0  0  0  0  0  0  0  0  0
    3.8413    0.2929    5.0671 H   0  0  0  0  0  0  0  0  0  0  0  0
    4.0197   -4.4922    4.7514 H   0  0  0  0  0  0  0  0  0  0  0  0
    4.4025   -5.6960    2.9482 H   0  0  0  0  0  0  0  0  0  0  0  0
    3.1603   -6.5686    1.2847 H   0  0  0  0  0  0  0  0  0  0  0  0
   -0.2902   -6.1702    1.7193 H   0  0  0  0  0  0  0  0  0  0  0  0
    0.9173   -6.1696    3.0064 H   0  0  0  0  0  0  0  0  0  0  0  0
    1.0154   -7.3450    1.6692 H   0  0  0  0  0  0  0  0  0  0  0  0
    3.5948   -5.6349   -0.6718 H   0  0  0  0  0  0  0  0  0  0  0  0
    5.6730   -5.3934    0.9759 H   0  0  0  0  0  0  0  0  0  0  0  0
    5.7258   -4.7794   -0.6561 H   0  0  0  0  0  0  0  0  0  0  0  0
    6.3568   -2.8624    0.7050 H   0  0  0  0  0  0  0  0  0  0  0  0
    2.2533   -3.2412   -0.3818 H   0  0  0  0  0  0  0  0  0  0  0  0
    3.3074   -3.7997   -1.5461 H   0  0  0  0  0  0  0  0  0  0  0  0
  1  2  1  0
  1 30  1  0
  1 31  1  0
  1 32  1  0
  2  3  1  0
  3  4  2  0
  5  3  1  6
  5 28  1  0
  5 29  1  0
  5  6  1  0
  6  7  1  0
  6 33  1  0
  6 34  1  0
  7  8  1  0
  7 35  1  0
  7 36  1  0
  8  9  1  0
  8 37  1  0
  8 38  1  0
  9 16  1  0
  9 10  1  1
  9 11  1  0
 10 39  1  0
 10 40  1  0
 10 41  1  0
 12 11  1  6
 11 42  1  0
 11 43  1  0
 12 21  1  0
 12 22  1  0
 12 13  1  0
 13 28  1  0
 13 14  1  0
 13 44  1  1
 14 15  1  0
 14 45  1  0
 14 46  1  0
 15 16  1  0
 15 47  1  0
 15 48  1  0
 16 17  1  1
 16 21  1  0
 17 18  2  0
 17 19  1  0
 19 20  1  0
 20 49  1  0
 20 50  1  0
 20 51  1  0
 21 22  1  0
 21 52  1  1
 22 23  1  0
 22 53  1  1
 23 24  1  0
 23 26  1  0
 23 54  1  6
 24 25  1  0
 25 55  1  0
 25 56  1  0
 25 57  1  0
 26 27  1  0
 26 29  1  0
 26 58  1  6
 27 28  1  0
 27 59  1  0
 27 60  1  0
 28 61  1  1
 29 62  1  0
 29 63  1  0
M  CHG  1   9   1
M  END
>  <i_m_ct_stereo_status>  (258) 
1

>  <s_m_source_file>  (258) 
/var/tmp/pbs.5076255.sched01/tmp1t990xkq/82z3oanzij.sdf

>  <i_m_source_file_index>  (258) 
29

>  <i_lp_mmshare_version>  (258) 
48012

>  <i_f3d_flags>  (258) 
0

>  <s_epik_input>  (258) 
W0NIM11PQyg9TylbQ0BAXTEoW0NASF0yW0NAQEhdM1tDQF00NTYpW0NIMl1bQ0gyXVtDSDJdW05AQCtdKFtDSDNdKShbQ0gyXTQpW0NAQF0oW0NIMl1bQ0gyXTMpKEMoPU8pT1tDSDNdKVtDQEhdNVtDQEhdNltDQEBIXShPW0NIM10pW0NASF0oW0NIMl0yKVtDSDJdMQ==

>  <s_epik_cmdline>  (258) 
J2VwaWtfcHl0aG9uJywgJy1waHQnLCAnMi4wJywgJy1waCcsICc3LjAnLCAnLXRuJywgJzgnLCAnLW1hJywgJzIwMCcsICctaW1hZScsICc8aW5maWxlLm1hZT4nLCAnLW9tYWUnLCAnPG91dGZpbGUubWFlPic=

>  <r_lp_tautomer_probability>  (258) 
1

>  <r_epik_Ionization_Penalty>  (258) 
3.88597e-12

>  <r_epik_Ionization_Penalty_Charging>  (258) 
0

>  <r_epik_Ionization_Penalty_Neutral>  (258) 
3.88597e-12

>  <r_epik_State_Penalty>  (258) 
-0

>  <r_epik_Charging_Adjusted_Penalty>  (258) 
0

>  <i_epik_Tot_Q>  (258) 
1

>  <i_epik_Tot_abs_Q>  (258) 
1

>  <s_epik_Chemistry_Notes>  (258) 
This compound has an ester and may undergo hydrolysis at high or low pH.

>  <s_lp_Force_Field>  (258) 
OPLS3e

>  <r_lp_Energy>  (258) 
191.655

>  <b_lp_Chiralities_Consistent>  (258) 
1

>  <s_lp_Variant>  (258) 
77:0-1

>  <s_i_glide_gridfile>  (258) 
pfpi4k_grid

>  <i_i_glide_lignum>  (258) 
29

>  <i_i_glide_rotatable_bonds>  (258) 
5

>  <r_i_docking_score>  (258) 
-2.61799

>  <r_i_glide_ligand_efficiency>  (258) 
-0.0902754

>  <r_i_glide_ligand_efficiency_sa>  (258) 
-0.277355

>  <r_i_glide_ligand_efficiency_ln>  (258) 
-0.599453

>  <r_i_glide_gscore>  (258) 
-2.61799

>  <r_i_glide_lipo>  (258) 
-0.270655

>  <r_i_glide_hbond>  (258) 
-0.205653

>  <r_i_glide_metal>  (258) 
-0

>  <r_i_glide_rewards>  (258) 
-0.651002

>  <r_i_glide_evdw>  (258) 
-11.1303

>  <r_i_glide_ecoul>  (258) 
-7.64274

>  <r_i_glide_erotb>  (258) 
0.240092

>  <r_i_glide_esite>  (258) 
-0.0278422

>  <r_i_glide_emodel>  (258) 
-12.3315

>  <r_i_glide_energy>  (258) 
-18.7731

>  <r_i_glide_einternal>  (258) 
9.57145

>  <r_i_glide_intrahb_reward>  (258) 
-0

>  <i_i_glide_confnum>  (258) 
1

>  <i_i_glide_posenum>  (258) 
2

>  <r_i_glide_eff_state_penalty>  (258) 
0

>  <ligand_id>  (258) 
77

>  <original_smiles>  (258) 
COC(=O)C12CCC[N+]3(C)CC45C6CCC3(C(=O)OC)C4C5C(OC)C(CC61)C2

>  <smiles>  (258) 
[H]C([H])([H])OC(=O)C12C([H])([H])C([H])([H])C([H])([H])[N+]3(C([H])([H])[H])C([H])([H])C45C6([H])C([H])([H])C([H])([H])C3(C(=O)OC([H])([H])[H])C4([H])C5([H])C([H])(OC([H])([H])[H])C([H])(C([H])([H])C61[H])C2([H])[H]

$$$$
79:0:0
     RDKit          3D

 46 52  0  0  1  0  0  0  0  0999 V2000
    5.1384   -4.6148    4.1895 C   0  0  0  0  0  0  0  0  0  0  0  0
    4.8445   -4.7708    2.8123 O   0  0  0  0  0  0  0  0  0  0  0  0
    5.2718   -3.6595    2.0432 C   0  0  2  0  0  0  0  0  0  0  0  0
    4.2900   -2.3065    2.1937 C   0  0  0  0  0  0  0  0  0  0  0  0
    3.5798   -1.7019    0.7679 C   0  0  0  0  0  0  0  0  0  0  0  0
    4.2721   -2.7669   -0.5617 C   0  0  1  0  0  0  0  0  0  0  0  0
    3.0056   -3.4631   -0.9736 C   0  0  0  0  0  0  0  0  0  0  0  0
    3.1789   -4.1501    0.4109 C   0  0  1  0  0  0  0  0  0  0  0  0
    2.8374   -5.6622    0.4874 C   0  0  0  0  0  0  0  0  0  0  0  0
    1.4266   -5.8515    0.5210 O   0  0  0  0  0  0  0  0  0  0  0  0
    0.8344   -6.7447    1.3368 C   0  0  0  0  0  0  0  0  0  0  0  0
    1.7143   -7.8740    1.8588 C   0  0  0  0  0  0  0  0  0  0  0  0
   -0.3591   -6.6731    1.6322 O   0  0  0  0  0  0  0  0  0  0  0  0
    4.7505   -3.7019    0.7107 C   0  0  1  0  0  0  0  0  0  0  0  0
    5.7868   -2.2766    0.2025 C   0  0  1  0  0  0  0  0  0  0  0  0
    7.1426   -2.7184    0.4839 C   0  0  2  0  0  0  0  0  0  0  0  0
    7.4426   -3.5248   -0.7399 C   0  0  2  0  0  0  0  0  0  0  0  0
    6.7151   -2.7813   -1.8994 C   0  0  0  0  0  0  0  0  0  0  0  0
    5.4501   -2.0690   -1.2473 C   0  0  1  0  0  0  0  0  0  0  0  0
    6.5864   -4.5527   -0.0075 C   0  0  1  0  0  0  0  0  0  0  0  0
    6.7324   -3.8473    1.3896 C   0  0  2  0  0  0  0  0  0  0  0  0
    5.1440   -4.2598   -0.4302 C   0  0  2  0  0  0  0  0  0  0  0  0
    4.7694   -5.4791    4.7422 H   0  0  0  0  0  0  0  0  0  0  0  0
    4.6608   -3.7269    4.6061 H   0  0  0  0  0  0  0  0  0  0  0  0
    6.2127   -4.5385    4.3542 H   0  0  0  0  0  0  0  0  0  0  0  0
    3.4734   -2.5503    2.8763 H   0  0  0  0  0  0  0  0  0  0  0  0
    4.8383   -1.5148    2.7044 H   0  0  0  0  0  0  0  0  0  0  0  0
    2.4938   -1.7103    0.8373 H   0  0  0  0  0  0  0  0  0  0  0  0
    3.8164   -0.6496    0.6063 H   0  0  0  0  0  0  0  0  0  0  0  0
    2.1264   -2.8330   -1.0626 H   0  0  0  0  0  0  0  0  0  0  0  0
    3.1182   -4.0968   -1.8463 H   0  0  0  0  0  0  0  0  0  0  0  0
    2.4777   -3.7723    1.1560 H   0  0  0  0  0  0  0  0  0  0  0  0
    3.2402   -6.2554   -0.3261 H   0  0  0  0  0  0  0  0  0  0  0  0
    3.3116   -6.0225    1.3916 H   0  0  0  0  0  0  0  0  0  0  0  0
    2.1812   -8.3911    1.0196 H   0  0  0  0  0  0  0  0  0  0  0  0
    1.1228   -8.6000    2.4143 H   0  0  0  0  0  0  0  0  0  0  0  0
    2.4936   -7.4950    2.5229 H   0  0  0  0  0  0  0  0  0  0  0  0
    5.8368   -1.2963    0.6990 H   0  0  0  0  0  0  0  0  0  0  0  0
    7.8908   -1.9997    0.8272 H   0  0  0  0  0  0  0  0  0  0  0  0
    8.4845   -3.8147   -0.8696 H   0  0  0  0  0  0  0  0  0  0  0  0
    7.3843   -2.0343   -2.3176 H   0  0  0  0  0  0  0  0  0  0  0  0
    6.4335   -3.4491   -2.7193 H   0  0  0  0  0  0  0  0  0  0  0  0
    5.2928   -1.0220   -1.5123 H   0  0  0  0  0  0  0  0  0  0  0  0
    6.9209   -5.5933   -0.0088 H   0  0  0  0  0  0  0  0  0  0  0  0
    7.5405   -4.2576    1.9992 H   0  0  0  0  0  0  0  0  0  0  0  0
    4.7421   -5.1442   -0.9178 H   0  0  0  0  0  0  0  0  0  0  0  0
  1  2  1  0
  1 23  1  0
  1 24  1  0
  1 25  1  0
  3  2  1  1
 14  3  1  1
  3 21  1  0
  3  4  1  0
  4  5  1  0
  4 26  1  0
  4 27  1  0
  6  5  1  1
  5 28  1  0
  5 29  1  0
  6 19  1  0
  6 22  1  0
  6  7  1  0
  7  8  1  0
  7 30  1  0
  7 31  1  0
  8  9  1  0
  8 14  1  0
  8 32  1  1
  9 10  1  0
  9 33  1  0
  9 34  1  0
 10 11  1  0
 11 12  1  0
 11 13  2  0
 12 35  1  0
 12 36  1  0
 12 37  1  0
 14 22  1  0
 14 15  1  0
 15 19  1  0
 15 16  1  0
 15 38  1  1
 16 21  1  0
 16 17  1  0
 16 39  1  1
 17 18  1  0
 17 20  1  0
 17 40  1  6
 18 19  1  0
 18 41  1  0
 18 42  1  0
 19 43  1  1
 20 21  1  0
 20 22  1  0
 20 44  1  1
 21 45  1  1
 22 46  1  6
M  END
>  <i_m_ct_stereo_status>  (259) 
1

>  <s_m_source_file>  (259) 
/var/tmp/pbs.5076255.sched01/tmp1t990xkq/82z3oanzij.sdf

>  <i_m_source_file_index>  (259) 
31

>  <i_lp_mmshare_version>  (259) 
48012

>  <i_f3d_flags>  (259) 
0

>  <s_epik_input>  (259) 
W0NAQEhdMTJbQ0BIXTNbQ0BASF0oW0NIMl00KVtDQEBIXTVbQ0BIXTNbQ0BAXShPW0NIM10pKFtDSDJdW0NIMl02KVtDQF0yKFtDQEBIXTVbQ0BASF00W0NAQF0xNjcpW0NAQEhdKFtDSDJdNylbQ0gyXU9DKD1PKVtDSDNd

>  <s_epik_cmdline>  (259) 
J2VwaWtfcHl0aG9uJywgJy1waHQnLCAnMi4wJywgJy1waCcsICc3LjAnLCAnLXRuJywgJzgnLCAnLW1hJywgJzIwMCcsICctaW1hZScsICc8aW5maWxlLm1hZT4nLCAnLW9tYWUnLCAnPG91dGZpbGUubWFlPic=

>  <r_lp_tautomer_probability>  (259) 
1

>  <r_epik_Ionization_Penalty>  (259) 
9.12845e-11

>  <r_epik_Ionization_Penalty_Charging>  (259) 
0

>  <r_epik_Ionization_Penalty_Neutral>  (259) 
9.12845e-11

>  <r_epik_State_Penalty>  (259) 
-0

>  <r_epik_Charging_Adjusted_Penalty>  (259) 
0

>  <i_epik_Tot_Q>  (259) 
0

>  <i_epik_Tot_abs_Q>  (259) 
0

>  <s_epik_Chemistry_Notes>  (259) 
This compound has an ester and may undergo hydrolysis at high or low pH.

>  <s_lp_Force_Field>  (259) 
OPLS3e

>  <r_lp_Energy>  (259) 
490.167

>  <b_lp_Chiralities_Consistent>  (259) 
1

>  <s_lp_Variant>  (259) 
79:0-1

>  <s_i_glide_gridfile>  (259) 
pfpi4k_grid

>  <i_i_glide_lignum>  (259) 
31

>  <i_i_glide_rotatable_bonds>  (259) 
4

>  <r_i_docking_score>  (259) 
-3.65409

>  <r_i_glide_ligand_efficiency>  (259) 
-0.166095

>  <r_i_glide_ligand_efficiency_sa>  (259) 
-0.465405

>  <r_i_glide_ligand_efficiency_ln>  (259) 
-0.893193

>  <r_i_glide_gscore>  (259) 
-3.65409

>  <r_i_glide_lipo>  (259) 
-0.650593

>  <r_i_glide_hbond>  (259) 
-0.390392

>  <r_i_glide_metal>  (259) 
-0

>  <r_i_glide_rewards>  (259) 
-1.36096

>  <r_i_glide_evdw>  (259) 
-18.0858

>  <r_i_glide_ecoul>  (259) 
-4.45184

>  <r_i_glide_erotb>  (259) 
0.407401

>  <r_i_glide_esite>  (259) 
-0.0874753

>  <r_i_glide_emodel>  (259) 
-23.9621

>  <r_i_glide_energy>  (259) 
-22.5377

>  <r_i_glide_einternal>  (259) 
7.45267

>  <r_i_glide_intrahb_reward>  (259) 
-0

>  <i_i_glide_confnum>  (259) 
4

>  <i_i_glide_posenum>  (259) 
16

>  <r_i_glide_eff_state_penalty>  (259) 
0

>  <ligand_id>  (259) 
79

>  <original_smiles>  (259) 
COC12CCC34CC(COC(C)=O)C15C1C6C(CC13)C(C62)C45

>  <smiles>  (259) 
[H]C([H])([H])OC12C([H])([H])C([H])([H])C34C([H])([H])C([H])(C([H])([H])OC(=O)C([H])([H])[H])C15C1([H])C6([H])C([H])(C([H])([H])C13[H])C([H])(C62[H])C45[H]

$$$$
79:0:1
     RDKit          3D

 46 52  0  0  1  0  0  0  0  0999 V2000
    7.0200   -5.9974    2.3879 C   0  0  0  0  0  0  0  0  0  0  0  0
    5.8858   -5.5372    1.6730 O   0  0  0  0  0  0  0  0  0  0  0  0
    5.9260   -4.1398    1.4517 C   0  0  2  0  0  0  0  0  0  0  0  0
    5.3360   -3.2352    2.7413 C   0  0  0  0  0  0  0  0  0  0  0  0
    4.0194   -2.2010    2.4311 C   0  0  0  0  0  0  0  0  0  0  0  0
    3.7321   -2.3698    0.6264 C   0  0  1  0  0  0  0  0  0  0  0  0
    2.3988   -3.0539    0.6655 C   0  0  0  0  0  0  0  0  0  0  0  0
    3.2481   -4.2483    1.1956 C   0  0  1  0  0  0  0  0  0  0  0  0
    2.8661   -5.6736    0.6975 C   0  0  0  0  0  0  0  0  0  0  0  0
    1.4567   -5.8533    0.8406 O   0  0  0  0  0  0  0  0  0  0  0  0
    0.9175   -6.6745    1.7689 C   0  0  0  0  0  0  0  0  0  0  0  0
    1.8805   -7.6336    2.4533 C   0  0  0  0  0  0  0  0  0  0  0  0
   -0.2850   -6.6584    2.0430 O   0  0  0  0  0  0  0  0  0  0  0  0
    4.7489   -3.6697    0.7921 C   0  0  1  0  0  0  0  0  0  0  0  0
    5.4628   -1.9969    0.5835 C   0  0  1  0  0  0  0  0  0  0  0  0
    6.6876   -2.2409   -0.1679 C   0  0  2  0  0  0  0  0  0  0  0  0
    6.1535   -2.3148   -1.5664 C   0  0  2  0  0  0  0  0  0  0  0  0
    4.9880   -1.2793   -1.6159 C   0  0  0  0  0  0  0  0  0  0  0  0
    4.3934   -1.2198   -0.1414 C   0  0  1  0  0  0  0  0  0  0  0  0
    5.7352   -3.7080   -1.1140 C   0  0  1  0  0  0  0  0  0  0  0  0
    6.7302   -3.7186    0.1170 C   0  0  2  0  0  0  0  0  0  0  0  0
    4.3589   -3.5416   -0.4787 C   0  0  2  0  0  0  0  0  0  0  0  0
    6.9374   -7.0723    2.5556 H   0  0  0  0  0  0  0  0  0  0  0  0
    7.1072   -5.5112    3.3609 H   0  0  0  0  0  0  0  0  0  0  0  0
    7.9358   -5.8110    1.8264 H   0  0  0  0  0  0  0  0  0  0  0  0
    5.0338   -3.9232    3.5381 H   0  0  0  0  0  0  0  0  0  0  0  0
    6.1448   -2.6531    3.1789 H   0  0  0  0  0  0  0  0  0  0  0  0
    3.1584   -2.4581    3.0566 H   0  0  0  0  0  0  0  0  0  0  0  0
    4.2379   -1.1638    2.7048 H   0  0  0  0  0  0  0  0  0  0  0  0
    1.7116   -2.6243    1.3894 H   0  0  0  0  0  0  0  0  0  0  0  0
    1.9208   -3.1893   -0.3047 H   0  0  0  0  0  0  0  0  0  0  0  0
    3.0910   -4.3946    2.2631 H   0  0  0  0  0  0  0  0  0  0  0  0
    3.0982   -5.8652   -0.3470 H   0  0  0  0  0  0  0  0  0  0  0  0
    3.4747   -6.3897    1.2437 H   0  0  0  0  0  0  0  0  0  0  0  0
    2.4104   -8.2212    1.6987 H   0  0  0  0  0  0  0  0  0  0  0  0
    1.3748   -8.3193    3.1185 H   0  0  0  0  0  0  0  0  0  0  0  0
    2.6150   -7.0658    3.0308 H   0  0  0  0  0  0  0  0  0  0  0  0
    5.8831   -1.3623    1.3752 H   0  0  0  0  0  0  0  0  0  0  0  0
    7.5710   -1.6226    0.0350 H   0  0  0  0  0  0  0  0  0  0  0  0
    6.9099   -2.3152   -2.3471 H   0  0  0  0  0  0  0  0  0  0  0  0
    5.3615   -0.2926   -1.8959 H   0  0  0  0  0  0  0  0  0  0  0  0
    4.2237   -1.5485   -2.3482 H   0  0  0  0  0  0  0  0  0  0  0  0
    4.2204   -0.2233    0.2660 H   0  0  0  0  0  0  0  0  0  0  0  0
    5.8158   -4.5210   -1.8430 H   0  0  0  0  0  0  0  0  0  0  0  0
    7.7041   -4.1732   -0.0736 H   0  0  0  0  0  0  0  0  0  0  0  0
    3.6612   -4.1591   -1.0422 H   0  0  0  0  0  0  0  0  0  0  0  0
  1  2  1  0
  1 23  1  0
  1 24  1  0
  1 25  1  0
  3  2  1  1
 14  3  1  6
  3 21  1  0
  3  4  1  0
  4  5  1  0
  4 26  1  0
  4 27  1  0
  6  5  1  1
  5 28  1  0
  5 29  1  0
  6 19  1  0
  6 22  1  0
  6  7  1  0
  7  8  1  0
  7 30  1  0
  7 31  1  0
  8  9  1  0
  8 14  1  0
  8 32  1  1
  9 10  1  0
  9 33  1  0
  9 34  1  0
 10 11  1  0
 11 12  1  0
 11 13  2  0
 12 35  1  0
 12 36  1  0
 12 37  1  0
 14 22  1  0
 14 15  1  0
 15 19  1  0
 15 16  1  0
 15 38  1  1
 16 21  1  0
 16 17  1  0
 16 39  1  6
 17 18  1  0
 17 20  1  0
 17 40  1  6
 18 19  1  0
 18 41  1  0
 18 42  1  0
 19 43  1  1
 20 21  1  0
 20 22  1  0
 20 44  1  6
 21 45  1  6
 22 46  1  6
M  END
>  <i_m_ct_stereo_status>  (260) 
1

>  <s_m_source_file>  (260) 
/var/tmp/pbs.5076255.sched01/tmp1t990xkq/82z3oanzij.sdf

>  <i_m_source_file_index>  (260) 
31

>  <i_lp_mmshare_version>  (260) 
48012

>  <i_f3d_flags>  (260) 
0

>  <s_epik_input>  (260) 
W0NAQEhdMTJbQ0BIXTNbQ0BASF0oW0NIMl00KVtDQEBIXTVbQ0BIXTNbQ0BAXShPW0NIM10pKFtDSDJdW0NIMl02KVtDQF0yKFtDQEBIXTVbQ0BASF00W0NAQF0xNjcpW0NAQEhdKFtDSDJdNylbQ0gyXU9DKD1PKVtDSDNd

>  <s_epik_cmdline>  (260) 
J2VwaWtfcHl0aG9uJywgJy1waHQnLCAnMi4wJywgJy1waCcsICc3LjAnLCAnLXRuJywgJzgnLCAnLW1hJywgJzIwMCcsICctaW1hZScsICc8aW5maWxlLm1hZT4nLCAnLW9tYWUnLCAnPG91dGZpbGUubWFlPic=

>  <r_lp_tautomer_probability>  (260) 
1

>  <r_epik_Ionization_Penalty>  (260) 
9.12845e-11

>  <r_epik_Ionization_Penalty_Charging>  (260) 
0

>  <r_epik_Ionization_Penalty_Neutral>  (260) 
9.12845e-11

>  <r_epik_State_Penalty>  (260) 
-0

>  <r_epik_Charging_Adjusted_Penalty>  (260) 
0

>  <i_epik_Tot_Q>  (260) 
0

>  <i_epik_Tot_abs_Q>  (260) 
0

>  <s_epik_Chemistry_Notes>  (260) 
This compound has an ester and may undergo hydrolysis at high or low pH.

>  <s_lp_Force_Field>  (260) 
OPLS3e

>  <r_lp_Energy>  (260) 
490.167

>  <b_lp_Chiralities_Consistent>  (260) 
1

>  <s_lp_Variant>  (260) 
79:0-1

>  <s_i_glide_gridfile>  (260) 
pfpi4k_grid

>  <i_i_glide_lignum>  (260) 
31

>  <i_i_glide_rotatable_bonds>  (260) 
4

>  <r_i_docking_score>  (260) 
-3.35476

>  <r_i_glide_ligand_efficiency>  (260) 
-0.152489

>  <r_i_glide_ligand_efficiency_sa>  (260) 
-0.42728

>  <r_i_glide_ligand_efficiency_ln>  (260) 
-0.820025

>  <r_i_glide_gscore>  (260) 
-3.35476

>  <r_i_glide_lipo>  (260) 
-0.432405

>  <r_i_glide_hbond>  (260) 
-0.324574

>  <r_i_glide_metal>  (260) 
-0

>  <r_i_glide_rewards>  (260) 
-1.36096

>  <r_i_glide_evdw>  (260) 
-17.8697

>  <r_i_glide_ecoul>  (260) 
-4.52187

>  <r_i_glide_erotb>  (260) 
0.407401

>  <r_i_glide_esite>  (260) 
-0.0724483

>  <r_i_glide_emodel>  (260) 
-23.4864

>  <r_i_glide_energy>  (260) 
-22.3916

>  <r_i_glide_einternal>  (260) 
7.26675

>  <r_i_glide_intrahb_reward>  (260) 
-0

>  <i_i_glide_confnum>  (260) 
4

>  <i_i_glide_posenum>  (260) 
19

>  <r_i_glide_eff_state_penalty>  (260) 
0

>  <ligand_id>  (260) 
79

>  <original_smiles>  (260) 
COC12CCC34CC(COC(C)=O)C15C1C6C(CC13)C(C62)C45

>  <smiles>  (260) 
[H]C([H])([H])OC12C([H])([H])C([H])([H])C34C([H])([H])C([H])(C([H])([H])OC(=O)C([H])([H])[H])C15C1([H])C6([H])C([H])(C([H])([H])C13[H])C([H])(C62[H])C45[H]

$$$$
79:0:2
     RDKit          3D

 46 52  0  0  1  0  0  0  0  0999 V2000
    6.9424   -5.6767    2.3916 C   0  0  0  0  0  0  0  0  0  0  0  0
    5.7551   -4.8988    2.3413 O   0  0  0  0  0  0  0  0  0  0  0  0
    5.8856   -3.6838    1.6209 C   0  0  2  0  0  0  0  0  0  0  0  0
    5.4599   -2.3258    2.5267 C   0  0  0  0  0  0  0  0  0  0  0  0
    4.1787   -1.3624    1.9497 C   0  0  0  0  0  0  0  0  0  0  0  0
    3.7131   -2.1500    0.3629 C   0  0  1  0  0  0  0  0  0  0  0  0
    2.3563   -2.6589    0.7373 C   0  0  0  0  0  0  0  0  0  0  0  0
    3.1804   -3.6492    1.6097 C   0  0  1  0  0  0  0  0  0  0  0  0
    2.6419   -5.1137    1.6830 C   0  0  0  0  0  0  0  0  0  0  0  0
    1.4426   -5.1730    2.4564 O   0  0  0  0  0  0  0  0  0  0  0  0
    1.4408   -5.3829    3.7915 C   0  0  0  0  0  0  0  0  0  0  0  0
    2.8064   -5.6465    4.4220 C   0  0  0  0  0  0  0  0  0  0  0  0
    0.4151   -5.3726    4.4750 O   0  0  0  0  0  0  0  0  0  0  0  0
    4.6674   -3.3856    0.9201 C   0  0  1  0  0  0  0  0  0  0  0  0
    5.4505   -1.9740    0.0557 C   0  0  1  0  0  0  0  0  0  0  0  0
    6.5756   -2.5718   -0.6422 C   0  0  2  0  0  0  0  0  0  0  0  0
    5.9111   -3.1113   -1.8716 C   0  0  2  0  0  0  0  0  0  0  0  0
    4.8035   -2.0661   -2.2114 C   0  0  0  0  0  0  0  0  0  0  0  0
    4.3553   -1.4218   -0.8249 C   0  0  1  0  0  0  0  0  0  0  0  0
    5.4669   -4.1986   -0.9004 C   0  0  1  0  0  0  0  0  0  0  0  0
    6.5748   -3.8317    0.1593 C   0  0  2  0  0  0  0  0  0  0  0  0
    4.1674   -3.6942   -0.2791 C   0  0  2  0  0  0  0  0  0  0  0  0
    6.7937   -6.5527    3.0231 H   0  0  0  0  0  0  0  0  0  0  0  0
    7.7789   -5.1023    2.7870 H   0  0  0  0  0  0  0  0  0  0  0  0
    7.2097   -6.0352    1.3979 H   0  0  0  0  0  0  0  0  0  0  0  0
    5.1919   -2.6520    3.5379 H   0  0  0  0  0  0  0  0  0  0  0  0
    6.3304   -1.6885    2.6765 H   0  0  0  0  0  0  0  0  0  0  0  0
    3.3635   -1.2907    2.6793 H   0  0  0  0  0  0  0  0  0  0  0  0
    4.4826   -0.3149    1.8017 H   0  0  0  0  0  0  0  0  0  0  0  0
    1.7322   -1.9552    1.2910 H   0  0  0  0  0  0  0  0  0  0  0  0
    1.8161   -3.0904   -0.1054 H   0  0  0  0  0  0  0  0  0  0  0  0
    3.1339   -3.3680    2.6600 H   0  0  0  0  0  0  0  0  0  0  0  0
    2.3976   -5.5512    0.7153 H   0  0  0  0  0  0  0  0  0  0  0  0
    3.4221   -5.7524    2.0912 H   0  0  0  0  0  0  0  0  0  0  0  0
    3.2826   -6.4969    3.9348 H   0  0  0  0  0  0  0  0  0  0  0  0
    2.7238   -5.8653    5.4840 H   0  0  0  0  0  0  0  0  0  0  0  0
    3.4509   -4.7769    4.3060 H   0  0  0  0  0  0  0  0  0  0  0  0
    5.9797   -1.1337    0.5332 H   0  0  0  0  0  0  0  0  0  0  0  0
    7.5126   -2.0044   -0.7387 H   0  0  0  0  0  0  0  0  0  0  0  0
    6.5820   -3.4473   -2.6545 H   0  0  0  0  0  0  0  0  0  0  0  0
    5.2125   -1.2825   -2.8516 H   0  0  0  0  0  0  0  0  0  0  0  0
    3.9626   -2.5174   -2.7427 H   0  0  0  0  0  0  0  0  0  0  0  0
    4.2891   -0.3344   -0.8018 H   0  0  0  0  0  0  0  0  0  0  0  0
    5.4394   -5.2385   -1.2545 H   0  0  0  0  0  0  0  0  0  0  0  0
    7.5233   -4.3609    0.0701 H   0  0  0  0  0  0  0  0  0  0  0  0
    3.3943   -4.4271   -0.5165 H   0  0  0  0  0  0  0  0  0  0  0  0
  1  2  1  0
  1 23  1  0
  1 24  1  0
  1 25  1  0
  3  2  1  1
 14  3  1  1
  3 21  1  0
  3  4  1  0
  4  5  1  0
  4 26  1  0
  4 27  1  0
  6  5  1  1
  5 28  1  0
  5 29  1  0
  6 19  1  0
  6 22  1  0
  6  7  1  0
  7  8  1  0
  7 30  1  0
  7 31  1  0
  8  9  1  0
  8 14  1  0
  8 32  1  1
  9 10  1  0
  9 33  1  0
  9 34  1  0
 10 11  1  0
 11 12  1  0
 11 13  2  0
 12 35  1  0
 12 36  1  0
 12 37  1  0
 14 22  1  0
 14 15  1  0
 15 19  1  0
 15 16  1  0
 15 38  1  1
 16 21  1  0
 16 17  1  0
 16 39  1  6
 17 18  1  0
 17 20  1  0
 17 40  1  6
 18 19  1  0
 18 41  1  0
 18 42  1  0
 19 43  1  6
 20 21  1  0
 20 22  1  0
 20 44  1  6
 21 45  1  1
 22 46  1  1
M  END
>  <i_m_ct_stereo_status>  (261) 
1

>  <s_m_source_file>  (261) 
/var/tmp/pbs.5076255.sched01/tmp1t990xkq/82z3oanzij.sdf

>  <i_m_source_file_index>  (261) 
31

>  <i_lp_mmshare_version>  (261) 
48012

>  <i_f3d_flags>  (261) 
0

>  <s_epik_input>  (261) 
W0NAQEhdMTJbQ0BIXTNbQ0BASF0oW0NIMl00KVtDQEBIXTVbQ0BIXTNbQ0BAXShPW0NIM10pKFtDSDJdW0NIMl02KVtDQF0yKFtDQEBIXTVbQ0BASF00W0NAQF0xNjcpW0NAQEhdKFtDSDJdNylbQ0gyXU9DKD1PKVtDSDNd

>  <s_epik_cmdline>  (261) 
J2VwaWtfcHl0aG9uJywgJy1waHQnLCAnMi4wJywgJy1waCcsICc3LjAnLCAnLXRuJywgJzgnLCAnLW1hJywgJzIwMCcsICctaW1hZScsICc8aW5maWxlLm1hZT4nLCAnLW9tYWUnLCAnPG91dGZpbGUubWFlPic=

>  <r_lp_tautomer_probability>  (261) 
1

>  <r_epik_Ionization_Penalty>  (261) 
9.12845e-11

>  <r_epik_Ionization_Penalty_Charging>  (261) 
0

>  <r_epik_Ionization_Penalty_Neutral>  (261) 
9.12845e-11

>  <r_epik_State_Penalty>  (261) 
-0

>  <r_epik_Charging_Adjusted_Penalty>  (261) 
0

>  <i_epik_Tot_Q>  (261) 
0

>  <i_epik_Tot_abs_Q>  (261) 
0

>  <s_epik_Chemistry_Notes>  (261) 
This compound has an ester and may undergo hydrolysis at high or low pH.

>  <s_lp_Force_Field>  (261) 
OPLS3e

>  <r_lp_Energy>  (261) 
490.167

>  <b_lp_Chiralities_Consistent>  (261) 
1

>  <s_lp_Variant>  (261) 
79:0-1

>  <s_i_glide_gridfile>  (261) 
pfpi4k_grid

>  <i_i_glide_lignum>  (261) 
31

>  <i_i_glide_rotatable_bonds>  (261) 
4

>  <r_i_docking_score>  (261) 
-2.24818

>  <r_i_glide_ligand_efficiency>  (261) 
-0.10219

>  <r_i_glide_ligand_efficiency_sa>  (261) 
-0.28634

>  <r_i_glide_ligand_efficiency_ln>  (261) 
-0.549536

>  <r_i_glide_gscore>  (261) 
-2.24818

>  <r_i_glide_lipo>  (261) 
-0.430249

>  <r_i_glide_hbond>  (261) 
-0.0109809

>  <r_i_glide_metal>  (261) 
-0

>  <r_i_glide_rewards>  (261) 
-1.36096

>  <r_i_glide_evdw>  (261) 
-15.7373

>  <r_i_glide_ecoul>  (261) 
-0.368286

>  <r_i_glide_erotb>  (261) 
0.407401

>  <r_i_glide_esite>  (261) 
-0.0112777

>  <r_i_glide_emodel>  (261) 
-14.1085

>  <r_i_glide_energy>  (261) 
-16.1056

>  <r_i_glide_einternal>  (261) 
9.97089

>  <r_i_glide_intrahb_reward>  (261) 
-0

>  <i_i_glide_confnum>  (261) 
4

>  <i_i_glide_posenum>  (261) 
40

>  <r_i_glide_eff_state_penalty>  (261) 
0

>  <ligand_id>  (261) 
79

>  <original_smiles>  (261) 
COC12CCC34CC(COC(C)=O)C15C1C6C(CC13)C(C62)C45

>  <smiles>  (261) 
[H]C([H])([H])OC12C([H])([H])C([H])([H])C34C([H])([H])C([H])(C([H])([H])OC(=O)C([H])([H])[H])C15C1([H])C6([H])C([H])(C([H])([H])C13[H])C([H])(C62[H])C45[H]

$$$$
80:0:0
     RDKit          3D

 68 74  0  0  1  0  0  0  0  0999 V2000
    0.6065    6.2937    5.8997 C   0  0  0  0  0  0  0  0  0  0  0  0
    0.9329    4.9900    5.8093 C   0  0  0  0  0  0  0  0  0  0  0  0
    2.2824    4.5757    6.6761 C   0  0  2  0  0  0  0  0  0  0  0  0
    3.0547    3.3736    7.6328 C   0  0  1  0  0  0  0  0  0  0  0  0
    2.3725    2.3015    8.5744 C   0  0  0  0  0  0  0  0  0  0  0  0
    1.0989    1.6744    7.9318 C   0  0  1  0  0  0  0  0  0  0  0  0
    0.6762    2.8082    7.1134 C   0  0  1  0  0  0  0  0  0  0  0  0
    2.0506    3.2574    6.2181 C   0  0  2  0  0  0  0  0  0  0  0  0
    3.4857    2.7189    6.3099 C   0  0  1  0  0  0  0  0  0  0  0  0
    4.7033    3.4516    5.6701 C   0  0  0  0  0  0  0  0  0  0  0  0
    3.7020    1.1778    5.8527 C   0  0  1  0  0  0  0  0  0  0  0  0
    4.2307    0.4148    6.9217 O   0  0  0  0  0  0  0  0  0  0  0  0
    2.6494    0.3440    4.9186 C   0  0  2  0  0  0  0  0  0  0  0  0
    2.9124   -1.0461    5.1186 O   0  0  0  0  0  0  0  0  0  0  0  0
    3.0529    0.5290    3.3934 C   0  0  1  0  0  0  0  0  0  0  0  0
    4.1408   -0.2928    3.0064 O   0  0  0  0  0  0  0  0  0  0  0  0
    1.9195    0.4707    2.3382 C   0  0  1  0  0  0  0  0  0  0  0  0
    1.3006   -0.7987    2.3054 O   0  0  0  0  0  0  0  0  0  0  0  0
    0.9067    1.5852    2.6567 C   0  0  1  0  0  0  0  0  0  0  0  0
   -0.3308    1.6431    1.7384 C   0  0  0  0  0  0  0  0  0  0  0  0
    0.7638    1.7549    4.2486 C   0  0  1  0  0  0  0  0  0  0  0  0
   -0.4430    2.4737    5.0166 C   0  0  1  0  0  0  0  0  0  0  0  0
    0.1260    4.0254    4.6727 C   0  0  1  0  0  0  0  0  0  0  0  0
   -0.9410    4.7159    4.0471 O   0  0  0  0  0  0  0  0  0  0  0  0
   -0.3629    0.8097    4.8552 C   0  0  1  0  0  0  0  0  0  0  0  0
   -1.0369   -0.0021    3.8917 O   0  0  0  0  0  0  0  0  0  0  0  0
    1.1438    0.6414    5.3433 C   0  0  1  0  0  0  0  0  0  0  0  0
    1.1432    0.4711    6.9617 C   0  0  1  0  0  0  0  0  0  0  0  0
    1.8445   -0.5860    7.5900 O   0  0  0  0  0  0  0  0  0  0  0  0
   -0.7508    2.7226    6.5279 C   0  0  0  0  0  0  0  0  0  0  0  0
   -1.7597    1.7627    7.2897 C   0  0  0  0  0  0  0  0  0  0  0  0
   -1.6689    3.9772    6.8220 C   0  0  0  0  0  0  0  0  0  0  0  0
   -0.1940    6.7087    5.3048 H   0  0  0  0  0  0  0  0  0  0  0  0
    1.1560    6.9589    6.5611 H   0  0  0  0  0  0  0  0  0  0  0  0
    3.0433    5.1825    6.1989 H   0  0  0  0  0  0  0  0  0  0  0  0
    3.9198    3.8231    8.1293 H   0  0  0  0  0  0  0  0  0  0  0  0
    3.0816    1.5271    8.8488 H   0  0  0  0  0  0  0  0  0  0  0  0
    2.0899    2.7737    9.5140 H   0  0  0  0  0  0  0  0  0  0  0  0
    0.4085    1.4368    8.7380 H   0  0  0  0  0  0  0  0  0  0  0  0
    0.4846    3.5564    7.8895 H   0  0  0  0  0  0  0  0  0  0  0  0
    2.2910    3.5227    5.2031 H   0  0  0  0  0  0  0  0  0  0  0  0
    4.5795    3.5622    4.5896 H   0  0  0  0  0  0  0  0  0  0  0  0
    5.6327    2.9091    5.8709 H   0  0  0  0  0  0  0  0  0  0  0  0
    4.9156    4.4358    6.0889 H   0  0  0  0  0  0  0  0  0  0  0  0
    4.6028    1.1522    5.2348 H   0  0  0  0  0  0  0  0  0  0  0  0
    4.5885   -0.3818    6.5582 H   0  0  0  0  0  0  0  0  0  0  0  0
    3.6867   -1.2470    4.6032 H   0  0  0  0  0  0  0  0  0  0  0  0
    3.4576    1.5409    3.2898 H   0  0  0  0  0  0  0  0  0  0  0  0
    4.2745   -0.1755    2.0801 H   0  0  0  0  0  0  0  0  0  0  0  0
    2.3305    0.6328    1.3411 H   0  0  0  0  0  0  0  0  0  0  0  0
    1.0183   -0.9721    1.4157 H   0  0  0  0  0  0  0  0  0  0  0  0
    1.4403    2.4799    2.3063 H   0  0  0  0  0  0  0  0  0  0  0  0
   -0.8159    0.6863    1.5597 H   0  0  0  0  0  0  0  0  0  0  0  0
   -0.0361    1.9895    0.7533 H   0  0  0  0  0  0  0  0  0  0  0  0
   -1.0761    2.3375    2.1168 H   0  0  0  0  0  0  0  0  0  0  0  0
    1.6476    2.2591    4.1769 H   0  0  0  0  0  0  0  0  0  0  0  0
    0.8001    4.0610    3.8209 H   0  0  0  0  0  0  0  0  0  0  0  0
   -0.8418    4.5425    3.1150 H   0  0  0  0  0  0  0  0  0  0  0  0
   -0.9074    0.3829    5.6567 H   0  0  0  0  0  0  0  0  0  0  0  0
   -0.6196    0.2051    3.0676 H   0  0  0  0  0  0  0  0  0  0  0  0
    0.2532   -0.0940    7.1675 H   0  0  0  0  0  0  0  0  0  0  0  0
    2.7698   -0.3965    7.4640 H   0  0  0  0  0  0  0  0  0  0  0  0
   -2.6976    1.6671    6.7327 H   0  0  0  0  0  0  0  0  0  0  0  0
   -2.0028    2.1362    8.2880 H   0  0  0  0  0  0  0  0  0  0  0  0
   -1.4652    0.7528    7.5310 H   0  0  0  0  0  0  0  0  0  0  0  0
   -2.6739    3.8250    6.4158 H   0  0  0  0  0  0  0  0  0  0  0  0
   -1.3702    4.9389    6.4641 H   0  0  0  0  0  0  0  0  0  0  0  0
   -1.7597    4.1539    7.8955 H   0  0  0  0  0  0  0  0  0  0  0  0
  1  2  2  0
  1 33  1  0
  1 34  1  0
  2 23  1  0
  2  3  1  0
  3  8  1  0
  3  4  1  0
  3 35  1  6
  4  9  1  0
  4  5  1  0
  4 36  1  1
  5  6  1  0
  5 37  1  0
  5 38  1  0
  6 28  1  0
  6  7  1  0
  6 39  1  1
  7 30  1  0
  7  8  1  0
  7 40  1  1
  8  9  1  0
  8 41  1  6
  9 10  1  6
  9 11  1  0
 10 42  1  0
 10 43  1  0
 10 44  1  0
 11 12  1  0
 11 13  1  0
 11 45  1  6
 12 46  1  0
 27 13  1  6
 13 14  1  1
 13 15  1  0
 14 47  1  0
 15 16  1  0
 15 17  1  0
 15 48  1  1
 16 49  1  0
 17 18  1  0
 17 19  1  0
 17 50  1  6
 18 51  1  0
 19 20  1  0
 19 21  1  0
 19 52  1  6
 20 53  1  0
 20 54  1  0
 20 55  1  0
 21 27  1  0
 21 22  1  0
 21 56  1  1
 22 23  1  0
 22 25  1  0
 22 30  1  1
 23 24  1  0
 23 57  1  6
 24 58  1  0
 25 26  1  0
 25 27  1  0
 25 59  1  1
 26 60  1  0
 27 28  1  0
 28 29  1  0
 28 61  1  6
 29 62  1  0
 30 31  1  0
 30 32  1  0
 31 63  1  0
 31 64  1  0
 31 65  1  0
 32 66  1  0
 32 67  1  0
 32 68  1  0
M  END
>  <i_m_ct_stereo_status>  (262) 
1

>  <s_m_source_file>  (262) 
/var/tmp/pbs.5076255.sched01/tmp1t990xkq/82z3oanzij.sdf

>  <i_m_source_file_index>  (262) 
32

>  <i_lp_mmshare_version>  (262) 
48012

>  <i_f3d_flags>  (262) 
2

>  <s_epik_input>  (262) 
W09IXVtDQEhdMVtDQEBIXShbQ0gyXTIpW0NASF0oQzMoW0NIM10pW0NIM10pW0NAQEhdNFtDQEhdKEMoPVtDSDJdKVtDQEBIXTVbT0hdKVtDQEBIXTJbQ0BAXTQoW0NIM10pW0NAQEhdKFtPSF0pW0NAQF0oW09IXSkoW0NAQF0xKFtDQEhdNkMzNTcpW0NAQEhdN1tPSF0pW0NAQEhdKFtPSF0pW0NAQEhdKFtPSF0pW0NASF02W0NIM10=

>  <s_epik_cmdline>  (262) 
J2VwaWtfcHl0aG9uJywgJy1waHQnLCAnMi4wJywgJy1waCcsICc3LjAnLCAnLXRuJywgJzgnLCAnLW1hJywgJzIwMCcsICctaW1hZScsICc8aW5maWxlLm1hZT4nLCAnLW9tYWUnLCAnPG91dGZpbGUubWFlPic=

>  <r_lp_tautomer_probability>  (262) 
1

>  <r_epik_Ionization_Penalty>  (262) 
1.73249e-06

>  <r_epik_Ionization_Penalty_Charging>  (262) 
0

>  <r_epik_Ionization_Penalty_Neutral>  (262) 
1.73249e-06

>  <r_epik_State_Penalty>  (262) 
-0

>  <r_epik_Charging_Adjusted_Penalty>  (262) 
0

>  <i_epik_Tot_Q>  (262) 
0

>  <i_epik_Tot_abs_Q>  (262) 
0

>  <s_lp_Force_Field>  (262) 
OPLS3e

>  <r_lp_Energy>  (262) 
572.076

>  <b_lp_Chiralities_Consistent>  (262) 
0

>  <s_lp_Variant>  (262) 
80:0-1

>  <s_i_glide_gridfile>  (262) 
pfpi4k_grid

>  <i_i_glide_lignum>  (262) 
32

>  <i_i_glide_rotatable_bonds>  (262) 
7

>  <r_i_docking_score>  (262) 
-2.45891

>  <r_i_glide_ligand_efficiency>  (262) 
-0.0768409

>  <r_i_glide_ligand_efficiency_sa>  (262) 
-0.243955

>  <r_i_glide_ligand_efficiency_ln>  (262) 
-0.550616

>  <r_i_glide_gscore>  (262) 
-2.45891

>  <r_i_glide_lipo>  (262) 
-0.0302757

>  <r_i_glide_hbond>  (262) 
-0.0687683

>  <r_i_glide_metal>  (262) 
-0

>  <r_i_glide_rewards>  (262) 
-0.850801

>  <r_i_glide_evdw>  (262) 
-16.9101

>  <r_i_glide_ecoul>  (262) 
-4.42372

>  <r_i_glide_erotb>  (262) 
0

>  <r_i_glide_esite>  (262) 
0

>  <r_i_glide_emodel>  (262) 
-28.7358

>  <r_i_glide_energy>  (262) 
-21.3338

>  <r_i_glide_einternal>  (262) 
2.36152

>  <r_i_glide_intrahb_reward>  (262) 
-0.5

>  <i_i_glide_confnum>  (262) 
1

>  <i_i_glide_posenum>  (262) 
38

>  <r_i_glide_eff_state_penalty>  (262) 
0

>  <ligand_id>  (262) 
80

>  <original_smiles>  (262) 
C=C1C2C3CC4C5C2C3(C)C(O)C2(O)C(O)C(O)C(C)C3C(C1O)(C(O)C32C4O)C5(C)C

>  <smiles>  (262) 
[H]OC1([H])C(=C([H])[H])C2([H])C3([H])C([H])([H])C4([H])C([H])(O[H])C56C([H])(O[H])C17C5([H])C([H])(C([H])([H])[H])C([H])(O[H])C([H])(O[H])C6(O[H])C([H])(O[H])C3(C([H])([H])[H])C2([H])C4([H])C7(C([H])([H])[H])C([H])([H])[H]

$$$$
80:0:1
     RDKit          3D

 68 74  0  0  1  0  0  0  0  0999 V2000
    0.5955    6.2980    5.8135 C   0  0  0  0  0  0  0  0  0  0  0  0
    0.9277    4.9934    5.7588 C   0  0  0  0  0  0  0  0  0  0  0  0
    2.2803    4.6185    6.6503 C   0  0  2  0  0  0  0  0  0  0  0  0
    3.0552    3.4374    7.6307 C   0  0  1  0  0  0  0  0  0  0  0  0
    2.3891    2.3817    8.5991 C   0  0  0  0  0  0  0  0  0  0  0  0
    1.1238    1.7312    7.9628 C   0  0  1  0  0  0  0  0  0  0  0  0
    0.6927    2.8365    7.1138 C   0  0  1  0  0  0  0  0  0  0  0  0
    2.0637    3.2838    6.2185 C   0  0  2  0  0  0  0  0  0  0  0  0
    3.5059    2.7584    6.3277 C   0  0  1  0  0  0  0  0  0  0  0  0
    4.7135    3.4900    5.6722 C   0  0  0  0  0  0  0  0  0  0  0  0
    3.7321    1.2019    5.9095 C   0  0  1  0  0  0  0  0  0  0  0  0
    4.2647    0.4835    7.0086 O   0  0  0  0  0  0  0  0  0  0  0  0
    2.6837    0.3445    4.9840 C   0  0  2  0  0  0  0  0  0  0  0  0
    2.9015   -1.0445    5.2046 O   0  0  0  0  0  0  0  0  0  0  0  0
    3.0927    0.4913    3.4539 C   0  0  1  0  0  0  0  0  0  0  0  0
    4.1905   -0.3248    3.0749 O   0  0  0  0  0  0  0  0  0  0  0  0
    1.9578    0.3968    2.4032 C   0  0  1  0  0  0  0  0  0  0  0  0
    1.3473   -0.8768    2.4076 O   0  0  0  0  0  0  0  0  0  0  0  0
    0.9362    1.5113    2.6935 C   0  0  1  0  0  0  0  0  0  0  0  0
   -0.3018    1.5369    1.7670 C   0  0  0  0  0  0  0  0  0  0  0  0
    0.7846    1.7194    4.2798 C   0  0  1  0  0  0  0  0  0  0  0  0
   -0.4304    2.4454    5.0211 C   0  0  1  0  0  0  0  0  0  0  0  0
    0.1327    3.9959    4.6438 C   0  0  1  0  0  0  0  0  0  0  0  0
   -0.9417    4.6673    4.0040 O   0  0  0  0  0  0  0  0  0  0  0  0
   -0.3356    0.7781    4.9005 C   0  0  1  0  0  0  0  0  0  0  0  0
   -1.0012   -0.0616    3.9571 O   0  0  0  0  0  0  0  0  0  0  0  0
    1.1734    0.6378    5.3983 C   0  0  1  0  0  0  0  0  0  0  0  0
    1.1746    0.4998    7.0242 C   0  0  1  0  0  0  0  0  0  0  0  0
    1.8906   -0.5318    7.6787 O   0  0  0  0  0  0  0  0  0  0  0  0
   -0.7395    2.7273    6.5267 C   0  0  0  0  0  0  0  0  0  0  0  0
   -1.7419    1.7765    7.3147 C   0  0  0  0  0  0  0  0  0  0  0  0
   -1.6641    3.9832    6.7948 C   0  0  0  0  0  0  0  0  0  0  0  0
   -0.1919    6.7014    5.1975 H   0  0  0  0  0  0  0  0  0  0  0  0
    1.1332    6.9803    6.4614 H   0  0  0  0  0  0  0  0  0  0  0  0
    3.0396    5.2298    6.1764 H   0  0  0  0  0  0  0  0  0  0  0  0
    3.9082    3.9073    8.1283 H   0  0  0  0  0  0  0  0  0  0  0  0
    3.1029    1.6182    8.8997 H   0  0  0  0  0  0  0  0  0  0  0  0
    2.1063    2.8720    9.5301 H   0  0  0  0  0  0  0  0  0  0  0  0
    0.4315    1.5205    8.7758 H   0  0  0  0  0  0  0  0  0  0  0  0
    0.4964    3.6047    7.8699 H   0  0  0  0  0  0  0  0  0  0  0  0
    2.2999    3.5216    5.1952 H   0  0  0  0  0  0  0  0  0  0  0  0
    4.5880    3.5731    4.5915 H   0  0  0  0  0  0  0  0  0  0  0  0
    5.6533    2.9711    5.8702 H   0  0  0  0  0  0  0  0  0  0  0  0
    4.9099    4.4917    6.0577 H   0  0  0  0  0  0  0  0  0  0  0  0
    4.6295    1.1692    5.2849 H   0  0  0  0  0  0  0  0  0  0  0  0
    5.0633    0.9059    7.2855 H   0  0  0  0  0  0  0  0  0  0  0  0
    3.7621   -1.2439    4.8654 H   0  0  0  0  0  0  0  0  0  0  0  0
    3.4934    1.4991    3.3270 H   0  0  0  0  0  0  0  0  0  0  0  0
    4.3162   -0.2239    2.1446 H   0  0  0  0  0  0  0  0  0  0  0  0
    2.3659    0.5360    1.4009 H   0  0  0  0  0  0  0  0  0  0  0  0
    1.0274   -1.0503    1.5319 H   0  0  0  0  0  0  0  0  0  0  0  0
    1.4558    2.4008    2.3163 H   0  0  0  0  0  0  0  0  0  0  0  0
   -0.7725    0.5694    1.6127 H   0  0  0  0  0  0  0  0  0  0  0  0
   -0.0058    1.8604    0.7740 H   0  0  0  0  0  0  0  0  0  0  0  0
   -1.0548    2.2352    2.1237 H   0  0  0  0  0  0  0  0  0  0  0  0
    1.6644    2.2353    4.2002 H   0  0  0  0  0  0  0  0  0  0  0  0
    0.8007    4.0150    3.7848 H   0  0  0  0  0  0  0  0  0  0  0  0
   -0.8362    4.5202    3.0707 H   0  0  0  0  0  0  0  0  0  0  0  0
   -0.8864    0.3685    5.7102 H   0  0  0  0  0  0  0  0  0  0  0  0
   -0.5901    0.1257    3.1253 H   0  0  0  0  0  0  0  0  0  0  0  0
    0.2842   -0.0580    7.2442 H   0  0  0  0  0  0  0  0  0  0  0  0
    2.8192   -0.3669    7.5245 H   0  0  0  0  0  0  0  0  0  0  0  0
   -2.6784    1.6611    6.7624 H   0  0  0  0  0  0  0  0  0  0  0  0
   -1.9955    2.1697    8.3014 H   0  0  0  0  0  0  0  0  0  0  0  0
   -1.4467    0.7746    7.5814 H   0  0  0  0  0  0  0  0  0  0  0  0
   -2.6661    3.8200    6.3877 H   0  0  0  0  0  0  0  0  0  0  0  0
   -1.3819    4.9429    6.4114 H   0  0  0  0  0  0  0  0  0  0  0  0
   -1.7627    4.1854    7.8635 H   0  0  0  0  0  0  0  0  0  0  0  0
  1  2  2  0
  1 33  1  0
  1 34  1  0
  2 23  1  0
  2  3  1  0
  3  8  1  0
  3  4  1  0
  3 35  1  6
  4  9  1  0
  4  5  1  0
  4 36  1  1
  5  6  1  0
  5 37  1  0
  5 38  1  0
  6 28  1  0
  6  7  1  0
  6 39  1  1
  7 30  1  0
  7  8  1  0
  7 40  1  1
  8  9  1  0
  8 41  1  6
  9 10  1  6
  9 11  1  0
 10 42  1  0
 10 43  1  0
 10 44  1  0
 11 12  1  0
 11 13  1  0
 11 45  1  6
 12 46  1  0
 27 13  1  6
 13 14  1  1
 13 15  1  0
 14 47  1  0
 15 16  1  0
 15 17  1  0
 15 48  1  1
 16 49  1  0
 17 18  1  0
 17 19  1  0
 17 50  1  6
 18 51  1  0
 19 20  1  0
 19 21  1  0
 19 52  1  6
 20 53  1  0
 20 54  1  0
 20 55  1  0
 21 27  1  0
 21 22  1  0
 21 56  1  1
 22 23  1  0
 22 25  1  0
 22 30  1  1
 23 24  1  0
 23 57  1  6
 24 58  1  0
 25 26  1  0
 25 27  1  0
 25 59  1  1
 26 60  1  0
 27 28  1  0
 28 29  1  0
 28 61  1  6
 29 62  1  0
 30 31  1  0
 30 32  1  0
 31 63  1  0
 31 64  1  0
 31 65  1  0
 32 66  1  0
 32 67  1  0
 32 68  1  0
M  END
>  <i_m_ct_stereo_status>  (263) 
1

>  <s_m_source_file>  (263) 
/var/tmp/pbs.5076255.sched01/tmp1t990xkq/82z3oanzij.sdf

>  <i_m_source_file_index>  (263) 
32

>  <i_lp_mmshare_version>  (263) 
48012

>  <i_f3d_flags>  (263) 
2

>  <s_epik_input>  (263) 
W09IXVtDQEhdMVtDQEBIXShbQ0gyXTIpW0NASF0oQzMoW0NIM10pW0NIM10pW0NAQEhdNFtDQEhdKEMoPVtDSDJdKVtDQEBIXTVbT0hdKVtDQEBIXTJbQ0BAXTQoW0NIM10pW0NAQEhdKFtPSF0pW0NAQF0oW09IXSkoW0NAQF0xKFtDQEhdNkMzNTcpW0NAQEhdN1tPSF0pW0NAQEhdKFtPSF0pW0NAQEhdKFtPSF0pW0NASF02W0NIM10=

>  <s_epik_cmdline>  (263) 
J2VwaWtfcHl0aG9uJywgJy1waHQnLCAnMi4wJywgJy1waCcsICc3LjAnLCAnLXRuJywgJzgnLCAnLW1hJywgJzIwMCcsICctaW1hZScsICc8aW5maWxlLm1hZT4nLCAnLW9tYWUnLCAnPG91dGZpbGUubWFlPic=

>  <r_lp_tautomer_probability>  (263) 
1

>  <r_epik_Ionization_Penalty>  (263) 
1.73249e-06

>  <r_epik_Ionization_Penalty_Charging>  (263) 
0

>  <r_epik_Ionization_Penalty_Neutral>  (263) 
1.73249e-06

>  <r_epik_State_Penalty>  (263) 
-0

>  <r_epik_Charging_Adjusted_Penalty>  (263) 
0

>  <i_epik_Tot_Q>  (263) 
0

>  <i_epik_Tot_abs_Q>  (263) 
0

>  <s_lp_Force_Field>  (263) 
OPLS3e

>  <r_lp_Energy>  (263) 
572.076

>  <b_lp_Chiralities_Consistent>  (263) 
0

>  <s_lp_Variant>  (263) 
80:0-1

>  <s_i_glide_gridfile>  (263) 
pfpi4k_grid

>  <i_i_glide_lignum>  (263) 
32

>  <i_i_glide_rotatable_bonds>  (263) 
7

>  <r_i_docking_score>  (263) 
-2.43771

>  <r_i_glide_ligand_efficiency>  (263) 
-0.0761785

>  <r_i_glide_ligand_efficiency_sa>  (263) 
-0.241852

>  <r_i_glide_ligand_efficiency_ln>  (263) 
-0.54587

>  <r_i_glide_gscore>  (263) 
-2.43771

>  <r_i_glide_lipo>  (263) 
-0.0298629

>  <r_i_glide_hbond>  (263) 
-0.0607616

>  <r_i_glide_metal>  (263) 
-0

>  <r_i_glide_rewards>  (263) 
-0.850801

>  <r_i_glide_evdw>  (263) 
-17.3319

>  <r_i_glide_ecoul>  (263) 
-4.19795

>  <r_i_glide_erotb>  (263) 
0

>  <r_i_glide_esite>  (263) 
0

>  <r_i_glide_emodel>  (263) 
-29.006

>  <r_i_glide_energy>  (263) 
-21.5298

>  <r_i_glide_einternal>  (263) 
2.25521

>  <r_i_glide_intrahb_reward>  (263) 
-0.5

>  <i_i_glide_confnum>  (263) 
1

>  <i_i_glide_posenum>  (263) 
19

>  <r_i_glide_eff_state_penalty>  (263) 
0

>  <ligand_id>  (263) 
80

>  <original_smiles>  (263) 
C=C1C2C3CC4C5C2C3(C)C(O)C2(O)C(O)C(O)C(C)C3C(C1O)(C(O)C32C4O)C5(C)C

>  <smiles>  (263) 
[H]OC1([H])C(=C([H])[H])C2([H])C3([H])C([H])([H])C4([H])C([H])(O[H])C56C([H])(O[H])C17C5([H])C([H])(C([H])([H])[H])C([H])(O[H])C([H])(O[H])C6(O[H])C([H])(O[H])C3(C([H])([H])[H])C2([H])C4([H])C7(C([H])([H])[H])C([H])([H])[H]

$$$$
80:0:2
     RDKit          3D

 68 74  0  0  1  0  0  0  0  0999 V2000
   -0.0046    5.5617    3.9388 C   0  0  0  0  0  0  0  0  0  0  0  0
    0.5307    4.4853    4.5461 C   0  0  0  0  0  0  0  0  0  0  0  0
    1.6768    4.8762    5.6926 C   0  0  2  0  0  0  0  0  0  0  0  0
    2.3703    4.4541    7.2086 C   0  0  1  0  0  0  0  0  0  0  0  0
    1.6713    3.7757    8.4537 C   0  0  0  0  0  0  0  0  0  0  0  0
    0.7112    2.6255    8.0191 C   0  0  1  0  0  0  0  0  0  0  0  0
    0.3276    3.1235    6.7022 C   0  0  1  0  0  0  0  0  0  0  0  0
    1.7849    3.4767    5.9059 C   0  0  2  0  0  0  0  0  0  0  0  0
    3.2255    3.4235    6.4517 C   0  0  1  0  0  0  0  0  0  0  0  0
    4.4288    4.0820    5.7075 C   0  0  0  0  0  0  0  0  0  0  0  0
    3.7810    1.9440    6.8415 C   0  0  1  0  0  0  0  0  0  0  0  0
    4.1527    1.8801    8.2057 O   0  0  0  0  0  0  0  0  0  0  0  0
    3.1385    0.5503    6.2712 C   0  0  2  0  0  0  0  0  0  0  0  0
    3.5069   -0.5192    7.1307 O   0  0  0  0  0  0  0  0  0  0  0  0
    3.8752    0.1386    4.9181 C   0  0  1  0  0  0  0  0  0  0  0  0
    5.1310   -0.5009    5.0934 O   0  0  0  0  0  0  0  0  0  0  0  0
    3.0456   -0.6756    3.9014 C   0  0  1  0  0  0  0  0  0  0  0  0
    2.6771   -1.9177    4.4676 O   0  0  0  0  0  0  0  0  0  0  0  0
    1.8216    0.1605    3.4895 C   0  0  1  0  0  0  0  0  0  0  0  0
    0.8594   -0.5123    2.4800 C   0  0  0  0  0  0  0  0  0  0  0  0
    1.2628    0.9734    4.7578 C   0  0  1  0  0  0  0  0  0  0  0  0
   -0.1908    1.6155    4.8970 C   0  0  1  0  0  0  0  0  0  0  0  0
    0.1962    2.9449    3.9230 C   0  0  1  0  0  0  0  0  0  0  0  0
   -0.7921    2.9789    2.9056 O   0  0  0  0  0  0  0  0  0  0  0  0
    0.1891    0.1322    5.5711 C   0  0  1  0  0  0  0  0  0  0  0  0
   -0.0937   -1.1667    5.0355 O   0  0  0  0  0  0  0  0  0  0  0  0
    1.5401    0.5972    6.2881 C   0  0  1  0  0  0  0  0  0  0  0  0
    1.1702    1.1643    7.7754 C   0  0  1  0  0  0  0  0  0  0  0  0
    1.8583    0.7059    8.9230 O   0  0  0  0  0  0  0  0  0  0  0  0
   -0.8912    2.4259    6.0358 C   0  0  0  0  0  0  0  0  0  0  0  0
   -1.8877    1.6797    7.0286 C   0  0  0  0  0  0  0  0  0  0  0  0
   -2.0444    3.4044    5.5545 C   0  0  0  0  0  0  0  0  0  0  0  0
   -0.6737    5.4589    3.0965 H   0  0  0  0  0  0  0  0  0  0  0  0
    0.2505    6.5689    4.2519 H   0  0  0  0  0  0  0  0  0  0  0  0
    2.4198    5.4046    5.1057 H   0  0  0  0  0  0  0  0  0  0  0  0
    2.9932    5.2864    7.5492 H   0  0  0  0  0  0  0  0  0  0  0  0
    2.4078    3.4156    9.1697 H   0  0  0  0  0  0  0  0  0  0  0  0
    1.1037    4.5292    9.0005 H   0  0  0  0  0  0  0  0  0  0  0  0
   -0.1136    2.6209    8.7287 H   0  0  0  0  0  0  0  0  0  0  0  0
   -0.1612    4.0643    6.9780 H   0  0  0  0  0  0  0  0  0  0  0  0
    2.2160    3.3127    4.9333 H   0  0  0  0  0  0  0  0  0  0  0  0
    4.5640    3.6613    4.7103 H   0  0  0  0  0  0  0  0  0  0  0  0
    5.3650    3.9570    6.2575 H   0  0  0  0  0  0  0  0  0  0  0  0
    4.3621    5.1649    5.5993 H   0  0  0  0  0  0  0  0  0  0  0  0
    4.7963    1.8758    6.4448 H   0  0  0  0  0  0  0  0  0  0  0  0
    4.6733    1.0924    8.3135 H   0  0  0  0  0  0  0  0  0  0  0  0
    3.1560   -1.3101    6.7478 H   0  0  0  0  0  0  0  0  0  0  0  0
    4.1351    1.0657    4.4050 H   0  0  0  0  0  0  0  0  0  0  0  0
    5.5480   -0.5855    4.2505 H   0  0  0  0  0  0  0  0  0  0  0  0
    3.6413   -0.8876    3.0115 H   0  0  0  0  0  0  0  0  0  0  0  0
    3.4703   -2.4128    4.6205 H   0  0  0  0  0  0  0  0  0  0  0  0
    2.2672    0.9064    2.8217 H   0  0  0  0  0  0  0  0  0  0  0  0
    0.6160   -1.5449    2.7223 H   0  0  0  0  0  0  0  0  0  0  0  0
    1.3229   -0.5591    1.4969 H   0  0  0  0  0  0  0  0  0  0  0  0
   -0.0639    0.0538    2.3725 H   0  0  0  0  0  0  0  0  0  0  0  0
    2.0407    1.6122    4.5756 H   0  0  0  0  0  0  0  0  0  0  0  0
    1.0333    2.7632    3.2523 H   0  0  0  0  0  0  0  0  0  0  0  0
   -0.4495    3.4923    2.1712 H   0  0  0  0  0  0  0  0  0  0  0  0
   -0.4713   -0.0193    6.3901 H   0  0  0  0  0  0  0  0  0  0  0  0
    0.4993   -1.2792    4.3041 H   0  0  0  0  0  0  0  0  0  0  0  0
    0.3475    0.5563    8.1011 H   0  0  0  0  0  0  0  0  0  0  0  0
    2.7251    1.1007    8.9006 H   0  0  0  0  0  0  0  0  0  0  0  0
   -2.6303    1.1092    6.4691 H   0  0  0  0  0  0  0  0  0  0  0  0
   -2.4335    2.3739    7.6699 H   0  0  0  0  0  0  0  0  0  0  0  0
   -1.5187    0.9902    7.7713 H   0  0  0  0  0  0  0  0  0  0  0  0
   -2.8851    2.8477    5.1363 H   0  0  0  0  0  0  0  0  0  0  0  0
   -1.8561    4.1454    4.8012 H   0  0  0  0  0  0  0  0  0  0  0  0
   -2.4236    4.0056    6.3812 H   0  0  0  0  0  0  0  0  0  0  0  0
  1  2  2  0
  1 33  1  0
  1 34  1  0
  2 23  1  0
  2  3  1  0
  3  8  1  0
  3  4  1  0
  3 35  1  6
  4  9  1  0
  4  5  1  0
  4 36  1  1
  5  6  1  0
  5 37  1  0
  5 38  1  0
  6 28  1  0
  6  7  1  0
  6 39  1  1
  7 30  1  0
  7  8  1  0
  7 40  1  1
  8  9  1  0
  8 41  1  6
  9 10  1  6
  9 11  1  0
 10 42  1  0
 10 43  1  0
 10 44  1  0
 11 12  1  0
 11 13  1  0
 11 45  1  6
 12 46  1  0
 27 13  1  6
 13 14  1  1
 13 15  1  0
 14 47  1  0
 15 16  1  0
 15 17  1  0
 15 48  1  6
 16 49  1  0
 17 18  1  0
 17 19  1  0
 17 50  1  6
 18 51  1  0
 19 20  1  0
 19 21  1  0
 19 52  1  6
 20 53  1  0
 20 54  1  0
 20 55  1  0
 21 27  1  0
 21 22  1  0
 21 56  1  6
 22 23  1  0
 22 25  1  0
 22 30  1  1
 23 24  1  0
 23 57  1  6
 24 58  1  0
 25 26  1  0
 25 27  1  0
 25 59  1  1
 26 60  1  0
 27 28  1  0
 28 29  1  0
 28 61  1  1
 29 62  1  0
 30 31  1  0
 30 32  1  0
 31 63  1  0
 31 64  1  0
 31 65  1  0
 32 66  1  0
 32 67  1  0
 32 68  1  0
M  END
>  <i_m_ct_stereo_status>  (264) 
1

>  <s_m_source_file>  (264) 
/var/tmp/pbs.5076255.sched01/tmp1t990xkq/82z3oanzij.sdf

>  <i_m_source_file_index>  (264) 
32

>  <i_lp_mmshare_version>  (264) 
48012

>  <i_f3d_flags>  (264) 
2

>  <s_epik_input>  (264) 
W09IXVtDQEhdMVtDQEBIXShbQ0gyXTIpW0NASF0oQzMoW0NIM10pW0NIM10pW0NAQEhdNFtDQEhdKEMoPVtDSDJdKVtDQEBIXTVbT0hdKVtDQEBIXTJbQ0BAXTQoW0NIM10pW0NAQEhdKFtPSF0pW0NAQF0oW09IXSkoW0NAQF0xKFtDQEhdNkMzNTcpW0NAQEhdN1tPSF0pW0NAQEhdKFtPSF0pW0NAQEhdKFtPSF0pW0NASF02W0NIM10=

>  <s_epik_cmdline>  (264) 
J2VwaWtfcHl0aG9uJywgJy1waHQnLCAnMi4wJywgJy1waCcsICc3LjAnLCAnLXRuJywgJzgnLCAnLW1hJywgJzIwMCcsICctaW1hZScsICc8aW5maWxlLm1hZT4nLCAnLW9tYWUnLCAnPG91dGZpbGUubWFlPic=

>  <r_lp_tautomer_probability>  (264) 
1

>  <r_epik_Ionization_Penalty>  (264) 
1.73249e-06

>  <r_epik_Ionization_Penalty_Charging>  (264) 
0

>  <r_epik_Ionization_Penalty_Neutral>  (264) 
1.73249e-06

>  <r_epik_State_Penalty>  (264) 
-0

>  <r_epik_Charging_Adjusted_Penalty>  (264) 
0

>  <i_epik_Tot_Q>  (264) 
0

>  <i_epik_Tot_abs_Q>  (264) 
0

>  <s_lp_Force_Field>  (264) 
OPLS3e

>  <r_lp_Energy>  (264) 
572.076

>  <b_lp_Chiralities_Consistent>  (264) 
0

>  <s_lp_Variant>  (264) 
80:0-1

>  <s_i_glide_gridfile>  (264) 
pfpi4k_grid

>  <i_i_glide_lignum>  (264) 
32

>  <i_i_glide_rotatable_bonds>  (264) 
7

>  <r_i_docking_score>  (264) 
-2.4199

>  <r_i_glide_ligand_efficiency>  (264) 
-0.075622

>  <r_i_glide_ligand_efficiency_sa>  (264) 
-0.240085

>  <r_i_glide_ligand_efficiency_ln>  (264) 
-0.541882

>  <r_i_glide_gscore>  (264) 
-2.4199

>  <r_i_glide_lipo>  (264) 
-0.00200999

>  <r_i_glide_hbond>  (264) 
-0.16

>  <r_i_glide_metal>  (264) 
-0

>  <r_i_glide_rewards>  (264) 
-0.850801

>  <r_i_glide_evdw>  (264) 
-15.2272

>  <r_i_glide_ecoul>  (264) 
-4.30487

>  <r_i_glide_erotb>  (264) 
0

>  <r_i_glide_esite>  (264) 
0

>  <r_i_glide_emodel>  (264) 
-27.587

>  <r_i_glide_energy>  (264) 
-19.5321

>  <r_i_glide_einternal>  (264) 
1.53622

>  <r_i_glide_intrahb_reward>  (264) 
-0.5

>  <i_i_glide_confnum>  (264) 
1

>  <i_i_glide_posenum>  (264) 
2

>  <r_i_glide_eff_state_penalty>  (264) 
0

>  <ligand_id>  (264) 
80

>  <original_smiles>  (264) 
C=C1C2C3CC4C5C2C3(C)C(O)C2(O)C(O)C(O)C(C)C3C(C1O)(C(O)C32C4O)C5(C)C

>  <smiles>  (264) 
[H]OC1([H])C(=C([H])[H])C2([H])C3([H])C([H])([H])C4([H])C([H])(O[H])C56C([H])(O[H])C17C5([H])C([H])(C([H])([H])[H])C([H])(O[H])C([H])(O[H])C6(O[H])C([H])(O[H])C3(C([H])([H])[H])C2([H])C4([H])C7(C([H])([H])[H])C([H])([H])[H]

$$$$
81:0:0
     RDKit          3D

 39 42  0  0  1  0  0  0  0  0999 V2000
    5.4962   -5.0761    0.9030 C   0  0  0  0  0  0  0  0  0  0  0  0
    5.0037   -4.4399   -0.3324 N   0  0  2  0  0  0  0  0  0  0  0  0
    6.0738   -3.6770   -1.0328 C   0  0  0  0  0  0  0  0  0  0  0  0
    6.2655   -2.2404   -0.5033 C   0  0  0  0  0  0  0  0  0  0  0  0
    4.9263   -1.5071   -0.3843 C   0  0  2  0  0  0  0  0  0  0  0  0
    5.0067   -0.1926    0.4430 C   0  0  0  0  0  0  0  0  0  0  0  0
    4.5478   -0.5358    1.8768 C   0  0  0  0  0  0  0  0  0  0  0  0
    3.8773   -1.8679    1.7088 C   0  0  0  0  0  0  0  0  0  0  0  0
    4.1103   -2.3587    0.5034 C   0  0  0  0  0  0  0  0  0  0  0  0
    3.7487   -3.6819   -0.0959 C   0  0  1  0  0  0  0  0  0  0  0  0
    3.0380   -3.4907   -1.3534 N   0  0  0  0  0  0  0  0  0  0  0  0
    1.7145   -4.0631   -1.4402 C   0  0  0  0  0  0  0  0  0  0  0  0
    3.3475   -2.3958   -2.1969 C   0  0  0  0  0  0  0  0  0  0  0  0
    2.7418   -2.2525   -3.4738 C   0  0  0  0  0  0  0  0  0  0  0  0
    3.0492   -1.1291   -4.2716 C   0  0  0  0  0  0  0  0  0  0  0  0
    3.9702   -0.1779   -3.8593 C   0  0  0  0  0  0  0  0  0  0  0  0
    4.6033   -0.3449   -2.6150 C   0  0  0  0  0  0  0  0  0  0  0  0
    4.2704   -1.4027   -1.7686 C   0  0  0  0  0  0  0  0  0  0  0  0
    5.7804   -4.3265    1.6394 H   0  0  0  0  0  0  0  0  0  0  0  0
    6.3621   -5.7133    0.7292 H   0  0  0  0  0  0  0  0  0  0  0  0
    4.7205   -5.6894    1.3524 H   0  0  0  0  0  0  0  0  0  0  0  0
    7.0209   -4.1884   -0.9062 H   0  0  0  0  0  0  0  0  0  0  0  0
    5.8714   -3.6478   -2.1086 H   0  0  0  0  0  0  0  0  0  0  0  0
    6.7316   -2.2846    0.4810 H   0  0  0  0  0  0  0  0  0  0  0  0
    6.9500   -1.7233   -1.1572 H   0  0  0  0  0  0  0  0  0  0  0  0
    5.9923    0.2708    0.4182 H   0  0  0  0  0  0  0  0  0  0  0  0
    4.2630    0.5147    0.0825 H   0  0  0  0  0  0  0  0  0  0  0  0
    5.4056   -0.6633    2.5332 H   0  0  0  0  0  0  0  0  0  0  0  0
    3.8693    0.2132    2.2871 H   0  0  0  0  0  0  0  0  0  0  0  0
    3.3311   -2.3633    2.4938 H   0  0  0  0  0  0  0  0  0  0  0  0
    3.1111   -4.2206    0.6070 H   0  0  0  0  0  0  0  0  0  0  0  0
    1.1885   -3.9565   -2.3739 H   0  0  0  0  0  0  0  0  0  0  0  0
    1.0896   -3.4873   -0.7930 H   0  0  0  0  0  0  0  0  0  0  0  0
    1.7072   -5.1028   -1.0890 H   0  0  0  0  0  0  0  0  0  0  0  0
    2.0225   -2.9539   -3.8652 H   0  0  0  0  0  0  0  0  0  0  0  0
    2.5989   -0.9260   -5.2072 H   0  0  0  0  0  0  0  0  0  0  0  0
    4.1960    0.6601   -4.4954 H   0  0  0  0  0  0  0  0  0  0  0  0
    5.3346    0.3787   -2.3158 H   0  0  0  0  0  0  0  0  0  0  0  0
    4.7514   -5.1928   -0.9730 H   0  0  0  0  0  0  0  0  0  0  0  0
  1  2  1  0
  1 19  1  0
  1 20  1  0
  1 21  1  0
  2 10  1  0
  2  3  1  0
  2 39  1  6
  3  4  1  0
  3 22  1  0
  3 23  1  0
  5  4  1  6
  4 24  1  0
  4 25  1  0
  5  9  1  0
  5 18  1  0
  5  6  1  0
  6  7  1  0
  6 26  1  0
  6 27  1  0
  7  8  1  0
  7 28  1  0
  7 29  1  0
  8  9  2  0
  8 30  1  0
  9 10  1  0
 10 11  1  0
 10 31  1  1
 11 12  1  0
 11 13  1  0
 12 32  1  0
 12 33  1  0
 12 34  1  0
 13 18  2  0
 13 14  1  0
 14 15  2  0
 14 35  1  0
 15 16  1  0
 15 36  1  0
 16 17  2  0
 16 37  1  0
 17 18  1  0
 17 38  1  0
M  CHG  1   2   1
M  END
>  <i_m_ct_stereo_status>  (265) 
1

>  <s_m_source_file>  (265) 
/var/tmp/pbs.5076255.sched01/tmp1t990xkq/82z3oanzij.sdf

>  <i_m_source_file_index>  (265) 
33

>  <i_lp_mmshare_version>  (265) 
48012

>  <i_f3d_flags>  (265) 
0

>  <s_epik_input>  (265) 
W0NIMl0xW0NIMl1bQ0hdPUMoW0NAQF0xMjMpW0NASF0oTihbQ0gzXSlbQ0gyXVtDSDJdMilOKFtDSDNdKWM0YzNbY0hdW2NIXVtjSF1bY0hdNA==

>  <s_epik_cmdline>  (265) 
J2VwaWtfcHl0aG9uJywgJy1waHQnLCAnMi4wJywgJy1waCcsICc3LjAnLCAnLXRuJywgJzgnLCAnLW1hJywgJzIwMCcsICctaW1hZScsICc8aW5maWxlLm1hZT4nLCAnLW9tYWUnLCAnPG91dGZpbGUubWFlPic=

>  <r_epik_Ionization_Penalty>  (265) 
0.298909

>  <r_epik_Ionization_Penalty_Charging>  (265) 
0.298909

>  <r_epik_Ionization_Penalty_Neutral>  (265) 
6.12141e-13

>  <r_epik_State_Penalty>  (265) 
0.292331

>  <r_epik_Charging_Adjusted_Penalty>  (265) 
0.59124

>  <i_epik_Tot_Q>  (265) 
1

>  <i_epik_Tot_abs_Q>  (265) 
1

>  <s_epik_Chemistry_Notes>  (265) 
This compound contains an acetal/aminal-like group ( X-CH(R)-Y where X, Y are N, S, or O) that may be acid/base labile, releasing an aldehyde.

>  <s_lp_Force_Field>  (265) 
OPLS3e

>  <r_lp_Energy>  (265) 
44.2803

>  <b_lp_Chiralities_Consistent>  (265) 
1

>  <s_lp_Variant>  (265) 
81:0-1

>  <s_i_glide_gridfile>  (265) 
pfpi4k_grid

>  <i_i_glide_lignum>  (265) 
33

>  <i_i_glide_rotatable_bonds>  (265) 
0

>  <r_i_docking_score>  (265) 
-3.69455

>  <r_i_glide_ligand_efficiency>  (265) 
-0.205253

>  <r_i_glide_ligand_efficiency_sa>  (265) 
-0.537915

>  <r_i_glide_ligand_efficiency_ln>  (265) 
-0.949666

>  <r_i_glide_gscore>  (265) 
-3.69455

>  <r_i_glide_lipo>  (265) 
-0.896684

>  <r_i_glide_hbond>  (265) 
0

>  <r_i_glide_metal>  (265) 
-0

>  <r_i_glide_rewards>  (265) 
-1.87926

>  <r_i_glide_evdw>  (265) 
-13.1725

>  <r_i_glide_ecoul>  (265) 
-1.73324

>  <r_i_glide_erotb>  (265) 
0

>  <r_i_glide_esite>  (265) 
0

>  <r_i_glide_emodel>  (265) 
-17.2991

>  <r_i_glide_energy>  (265) 
-14.9057

>  <r_i_glide_einternal>  (265) 
0

>  <r_i_glide_intrahb_reward>  (265) 
-0

>  <i_i_glide_confnum>  (265) 
1

>  <i_i_glide_posenum>  (265) 
1

>  <r_i_glide_eff_state_penalty>  (265) 
0

>  <ligand_id>  (265) 
81

>  <original_smiles>  (265) 
CN1CCC23CCC=C2C1N(C)c1ccccc13

>  <smiles>  (265) 
[H]C1=C2C3(c4c([H])c([H])c([H])c([H])c4N(C([H])([H])[H])C2([H])[N+]([H])(C([H])([H])[H])C([H])([H])C3([H])[H])C([H])([H])C1([H])[H]

$$$$
81:0:1
     RDKit          3D

 39 42  0  0  1  0  0  0  0  0999 V2000
    3.2366   -3.4470    4.7141 C   0  0  0  0  0  0  0  0  0  0  0  0
    3.3417   -2.7994    3.3819 N   0  0  2  0  0  0  0  0  0  0  0  0
    2.3609   -3.3609    2.3961 C   0  0  0  0  0  0  0  0  0  0  0  0
    2.8578   -4.6548    1.7037 C   0  0  0  0  0  0  0  0  0  0  0  0
    4.2917   -4.4959    1.1616 C   0  0  2  0  0  0  0  0  0  0  0  0
    4.9538   -5.8375    0.7348 C   0  0  0  0  0  0  0  0  0  0  0  0
    5.8161   -6.3006    1.9349 C   0  0  0  0  0  0  0  0  0  0  0  0
    5.9219   -5.0663    2.7837 C   0  0  0  0  0  0  0  0  0  0  0  0
    5.0971   -4.1159    2.3517 C   0  0  0  0  0  0  0  0  0  0  0  0
    4.7606   -2.7584    2.9065 C   0  0  1  0  0  0  0  0  0  0  0  0
    4.9279   -1.7160    1.8873 N   0  0  0  0  0  0  0  0  0  0  0  0
    5.8940   -0.6724    2.2107 C   0  0  0  0  0  0  0  0  0  0  0  0
    4.6802   -2.0364    0.5217 C   0  0  0  0  0  0  0  0  0  0  0  0
    4.7351   -1.0428   -0.4901 C   0  0  0  0  0  0  0  0  0  0  0  0
    4.4563   -1.3477   -1.8374 C   0  0  0  0  0  0  0  0  0  0  0  0
    4.1149   -2.6533   -2.2076 C   0  0  0  0  0  0  0  0  0  0  0  0
    4.0766   -3.6522   -1.2207 C   0  0  0  0  0  0  0  0  0  0  0  0
    4.3565   -3.3644    0.1296 C   0  0  0  0  0  0  0  0  0  0  0  0
    3.5231   -4.4990    4.6582 H   0  0  0  0  0  0  0  0  0  0  0  0
    2.2221   -3.3846    5.1125 H   0  0  0  0  0  0  0  0  0  0  0  0
    3.9044   -2.9569    5.4237 H   0  0  0  0  0  0  0  0  0  0  0  0
    1.4119   -3.5534    2.8951 H   0  0  0  0  0  0  0  0  0  0  0  0
    2.1403   -2.6022    1.6445 H   0  0  0  0  0  0  0  0  0  0  0  0
    2.8347   -5.4743    2.4255 H   0  0  0  0  0  0  0  0  0  0  0  0
    2.1787   -4.9300    0.8990 H   0  0  0  0  0  0  0  0  0  0  0  0
    4.2364   -6.5912    0.4043 H   0  0  0  0  0  0  0  0  0  0  0  0
    5.6387   -5.6535   -0.0919 H   0  0  0  0  0  0  0  0  0  0  0  0
    5.3052   -7.0603    2.5247 H   0  0  0  0  0  0  0  0  0  0  0  0
    6.7977   -6.6781    1.6432 H   0  0  0  0  0  0  0  0  0  0  0  0
    6.5609   -5.0094    3.6494 H   0  0  0  0  0  0  0  0  0  0  0  0
    5.4202   -2.5495    3.7539 H   0  0  0  0  0  0  0  0  0  0  0  0
    6.0018    0.1008    1.4557 H   0  0  0  0  0  0  0  0  0  0  0  0
    6.8802   -1.1090    2.3579 H   0  0  0  0  0  0  0  0  0  0  0  0
    5.6177   -0.1896    3.1487 H   0  0  0  0  0  0  0  0  0  0  0  0
    4.9534   -0.0126   -0.2557 H   0  0  0  0  0  0  0  0  0  0  0  0
    4.4673   -0.5724   -2.5902 H   0  0  0  0  0  0  0  0  0  0  0  0
    3.8709   -2.9012   -3.2289 H   0  0  0  0  0  0  0  0  0  0  0  0
    3.8284   -4.6528   -1.5106 H   0  0  0  0  0  0  0  0  0  0  0  0
    3.0640   -1.8362    3.5152 H   0  0  0  0  0  0  0  0  0  0  0  0
  1  2  1  0
  1 19  1  0
  1 20  1  0
  1 21  1  0
  2 10  1  0
  2  3  1  0
  2 39  1  1
  3  4  1  0
  3 22  1  0
  3 23  1  0
  5  4  1  1
  4 24  1  0
  4 25  1  0
  5  9  1  0
  5 18  1  0
  5  6  1  0
  6  7  1  0
  6 26  1  0
  6 27  1  0
  7  8  1  0
  7 28  1  0
  7 29  1  0
  8  9  2  0
  8 30  1  0
  9 10  1  0
 10 11  1  0
 10 31  1  1
 11 12  1  0
 11 13  1  0
 12 32  1  0
 12 33  1  0
 12 34  1  0
 13 18  2  0
 13 14  1  0
 14 15  2  0
 14 35  1  0
 15 16  1  0
 15 36  1  0
 16 17  2  0
 16 37  1  0
 17 18  1  0
 17 38  1  0
M  CHG  1   2   1
M  END
>  <i_m_ct_stereo_status>  (266) 
1

>  <s_m_source_file>  (266) 
/var/tmp/pbs.5076255.sched01/tmp1t990xkq/82z3oanzij.sdf

>  <i_m_source_file_index>  (266) 
33

>  <i_lp_mmshare_version>  (266) 
48012

>  <i_f3d_flags>  (266) 
0

>  <s_epik_input>  (266) 
W0NIMl0xW0NIMl1bQ0hdPUMoW0NAQF0xMjMpW0NASF0oTihbQ0gzXSlbQ0gyXVtDSDJdMilOKFtDSDNdKWM0YzNbY0hdW2NIXVtjSF1bY0hdNA==

>  <s_epik_cmdline>  (266) 
J2VwaWtfcHl0aG9uJywgJy1waHQnLCAnMi4wJywgJy1waCcsICc3LjAnLCAnLXRuJywgJzgnLCAnLW1hJywgJzIwMCcsICctaW1hZScsICc8aW5maWxlLm1hZT4nLCAnLW9tYWUnLCAnPG91dGZpbGUubWFlPic=

>  <r_epik_Ionization_Penalty>  (266) 
0.298909

>  <r_epik_Ionization_Penalty_Charging>  (266) 
0.298909

>  <r_epik_Ionization_Penalty_Neutral>  (266) 
6.12141e-13

>  <r_epik_State_Penalty>  (266) 
0.292331

>  <r_epik_Charging_Adjusted_Penalty>  (266) 
0.59124

>  <i_epik_Tot_Q>  (266) 
1

>  <i_epik_Tot_abs_Q>  (266) 
1

>  <s_epik_Chemistry_Notes>  (266) 
This compound contains an acetal/aminal-like group ( X-CH(R)-Y where X, Y are N, S, or O) that may be acid/base labile, releasing an aldehyde.

>  <s_lp_Force_Field>  (266) 
OPLS3e

>  <r_lp_Energy>  (266) 
44.2803

>  <b_lp_Chiralities_Consistent>  (266) 
1

>  <s_lp_Variant>  (266) 
81:0-1

>  <s_i_glide_gridfile>  (266) 
pfpi4k_grid

>  <i_i_glide_lignum>  (266) 
33

>  <i_i_glide_rotatable_bonds>  (266) 
0

>  <r_i_docking_score>  (266) 
-3.37339

>  <r_i_glide_ligand_efficiency>  (266) 
-0.187411

>  <r_i_glide_ligand_efficiency_sa>  (266) 
-0.491155

>  <r_i_glide_ligand_efficiency_ln>  (266) 
-0.867114

>  <r_i_glide_gscore>  (266) 
-3.37339

>  <r_i_glide_lipo>  (266) 
-0.307992

>  <r_i_glide_hbond>  (266) 
0

>  <r_i_glide_metal>  (266) 
-0

>  <r_i_glide_rewards>  (266) 
-1.90204

>  <r_i_glide_evdw>  (266) 
-14.642

>  <r_i_glide_ecoul>  (266) 
-2.87509

>  <r_i_glide_erotb>  (266) 
0

>  <r_i_glide_esite>  (266) 
0

>  <r_i_glide_emodel>  (266) 
-20.4069

>  <r_i_glide_energy>  (266) 
-17.5171

>  <r_i_glide_einternal>  (266) 
0

>  <r_i_glide_intrahb_reward>  (266) 
-0

>  <i_i_glide_confnum>  (266) 
2

>  <i_i_glide_posenum>  (266) 
13

>  <r_i_glide_eff_state_penalty>  (266) 
0

>  <ligand_id>  (266) 
81

>  <original_smiles>  (266) 
CN1CCC23CCC=C2C1N(C)c1ccccc13

>  <smiles>  (266) 
[H]C1=C2C3(c4c([H])c([H])c([H])c([H])c4N(C([H])([H])[H])C2([H])[N+]([H])(C([H])([H])[H])C([H])([H])C3([H])[H])C([H])([H])C1([H])[H]

$$$$
81:0:2
     RDKit          3D

 39 42  0  0  1  0  0  0  0  0999 V2000
    4.4789   -4.7771    1.9693 C   0  0  0  0  0  0  0  0  0  0  0  0
    3.9359   -3.9960    0.8333 N   0  0  2  0  0  0  0  0  0  0  0  0
    3.9556   -4.7752   -0.4322 C   0  0  0  0  0  0  0  0  0  0  0  0
    5.3188   -4.7081   -1.1502 C   0  0  0  0  0  0  0  0  0  0  0  0
    5.8590   -3.2799   -1.2843 C   0  0  2  0  0  0  0  0  0  0  0  0
    7.3522   -3.1312   -1.7318 C   0  0  0  0  0  0  0  0  0  0  0  0
    8.1833   -3.0229   -0.4370 C   0  0  0  0  0  0  0  0  0  0  0  0
    7.1443   -2.6412    0.5775 C   0  0  0  0  0  0  0  0  0  0  0  0
    5.9139   -2.7937    0.1039 C   0  0  0  0  0  0  0  0  0  0  0  0
    4.5614   -2.6427    0.7472 C   0  0  1  0  0  0  0  0  0  0  0  0
    3.7226   -1.7223   -0.0255 N   0  0  0  0  0  0  0  0  0  0  0  0
    3.2698   -0.5467    0.7039 C   0  0  0  0  0  0  0  0  0  0  0  0
    3.8515   -1.6865   -1.4497 C   0  0  0  0  0  0  0  0  0  0  0  0
    3.0247   -0.9291   -2.3108 C   0  0  0  0  0  0  0  0  0  0  0  0
    3.1468   -0.8806   -3.6786 C   0  0  0  0  0  0  0  0  0  0  0  0
    4.1472   -1.6348   -4.2797 C   0  0  0  0  0  0  0  0  0  0  0  0
    4.9705   -2.4873   -3.4882 C   0  0  0  0  0  0  0  0  0  0  0  0
    4.8676   -2.4561   -2.0903 C   0  0  0  0  0  0  0  0  0  0  0  0
    5.5477   -4.9914    1.8309 H   0  0  0  0  0  0  0  0  0  0  0  0
    3.9540   -5.7318    2.0992 H   0  0  0  0  0  0  0  0  0  0  0  0
    4.3738   -4.2106    2.9007 H   0  0  0  0  0  0  0  0  0  0  0  0
    3.6965   -5.8206   -0.2519 H   0  0  0  0  0  0  0  0  0  0  0  0
    3.1824   -4.3961   -1.1005 H   0  0  0  0  0  0  0  0  0  0  0  0
    6.0208   -5.3320   -0.5913 H   0  0  0  0  0  0  0  0  0  0  0  0
    5.1633   -5.1229   -2.1470 H   0  0  0  0  0  0  0  0  0  0  0  0
    7.7544   -3.8429   -2.4501 H   0  0  0  0  0  0  0  0  0  0  0  0
    7.4852   -2.2115   -2.2916 H   0  0  0  0  0  0  0  0  0  0  0  0
    8.5989   -3.9826   -0.1336 H   0  0  0  0  0  0  0  0  0  0  0  0
    8.9884   -2.2947   -0.5183 H   0  0  0  0  0  0  0  0  0  0  0  0
    7.3601   -2.3313    1.5753 H   0  0  0  0  0  0  0  0  0  0  0  0
    4.6984   -2.2492    1.7564 H   0  0  0  0  0  0  0  0  0  0  0  0
    2.5887    0.0875    0.1608 H   0  0  0  0  0  0  0  0  0  0  0  0
    4.1286    0.0358    1.0328 H   0  0  0  0  0  0  0  0  0  0  0  0
    2.7318   -0.8702    1.5890 H   0  0  0  0  0  0  0  0  0  0  0  0
    2.2158   -0.2901   -1.9508 H   0  0  0  0  0  0  0  0  0  0  0  0
    2.4840   -0.2632   -4.2749 H   0  0  0  0  0  0  0  0  0  0  0  0
    4.2125   -1.4604   -5.3296 H   0  0  0  0  0  0  0  0  0  0  0  0
    5.7323   -3.1151   -3.9252 H   0  0  0  0  0  0  0  0  0  0  0  0
    2.9609   -3.8463    1.0366 H   0  0  0  0  0  0  0  0  0  0  0  0
  1  2  1  0
  1 19  1  0
  1 20  1  0
  1 21  1  0
  2 10  1  0
  2  3  1  0
  2 39  1  1
  3  4  1  0
  3 22  1  0
  3 23  1  0
  5  4  1  1
  4 24  1  0
  4 25  1  0
  5  9  1  0
  5 18  1  0
  5  6  1  0
  6  7  1  0
  6 26  1  0
  6 27  1  0
  7  8  1  0
  7 28  1  0
  7 29  1  0
  8  9  2  0
  8 30  1  0
  9 10  1  0
 10 11  1  0
 10 31  1  1
 11 12  1  0
 11 13  1  0
 12 32  1  0
 12 33  1  0
 12 34  1  0
 13 18  2  0
 13 14  1  0
 14 15  2  0
 14 35  1  0
 15 16  1  0
 15 36  1  0
 16 17  2  0
 16 37  1  0
 17 18  1  0
 17 38  1  0
M  CHG  1   2   1
M  END
>  <i_m_ct_stereo_status>  (267) 
1

>  <s_m_source_file>  (267) 
/var/tmp/pbs.5076255.sched01/tmp1t990xkq/82z3oanzij.sdf

>  <i_m_source_file_index>  (267) 
33

>  <i_lp_mmshare_version>  (267) 
48012

>  <i_f3d_flags>  (267) 
0

>  <s_epik_input>  (267) 
W0NIMl0xW0NIMl1bQ0hdPUMoW0NAQF0xMjMpW0NASF0oTihbQ0gzXSlbQ0gyXVtDSDJdMilOKFtDSDNdKWM0YzNbY0hdW2NIXVtjSF1bY0hdNA==

>  <s_epik_cmdline>  (267) 
J2VwaWtfcHl0aG9uJywgJy1waHQnLCAnMi4wJywgJy1waCcsICc3LjAnLCAnLXRuJywgJzgnLCAnLW1hJywgJzIwMCcsICctaW1hZScsICc8aW5maWxlLm1hZT4nLCAnLW9tYWUnLCAnPG91dGZpbGUubWFlPic=

>  <r_epik_Ionization_Penalty>  (267) 
0.298909

>  <r_epik_Ionization_Penalty_Charging>  (267) 
0.298909

>  <r_epik_Ionization_Penalty_Neutral>  (267) 
6.12141e-13

>  <r_epik_State_Penalty>  (267) 
0.292331

>  <r_epik_Charging_Adjusted_Penalty>  (267) 
0.59124

>  <i_epik_Tot_Q>  (267) 
1

>  <i_epik_Tot_abs_Q>  (267) 
1

>  <s_epik_Chemistry_Notes>  (267) 
This compound contains an acetal/aminal-like group ( X-CH(R)-Y where X, Y are N, S, or O) that may be acid/base labile, releasing an aldehyde.

>  <s_lp_Force_Field>  (267) 
OPLS3e

>  <r_lp_Energy>  (267) 
44.2803

>  <b_lp_Chiralities_Consistent>  (267) 
1

>  <s_lp_Variant>  (267) 
81:0-1

>  <s_i_glide_gridfile>  (267) 
pfpi4k_grid

>  <i_i_glide_lignum>  (267) 
33

>  <i_i_glide_rotatable_bonds>  (267) 
0

>  <r_i_docking_score>  (267) 
-3.05869

>  <r_i_glide_ligand_efficiency>  (267) 
-0.169927

>  <r_i_glide_ligand_efficiency_sa>  (267) 
-0.445336

>  <r_i_glide_ligand_efficiency_ln>  (267) 
-0.786221

>  <r_i_glide_gscore>  (267) 
-3.05869

>  <r_i_glide_lipo>  (267) 
-0.655234

>  <r_i_glide_hbond>  (267) 
0

>  <r_i_glide_metal>  (267) 
-0

>  <r_i_glide_rewards>  (267) 
-1.77566

>  <r_i_glide_evdw>  (267) 
-7.35797

>  <r_i_glide_ecoul>  (267) 
-1.35948

>  <r_i_glide_erotb>  (267) 
0

>  <r_i_glide_esite>  (267) 
-0.0559754

>  <r_i_glide_emodel>  (267) 
-10.5123

>  <r_i_glide_energy>  (267) 
-8.71745

>  <r_i_glide_einternal>  (267) 
0

>  <r_i_glide_intrahb_reward>  (267) 
-0

>  <i_i_glide_confnum>  (267) 
2

>  <i_i_glide_posenum>  (267) 
18

>  <r_i_glide_eff_state_penalty>  (267) 
0

>  <ligand_id>  (267) 
81

>  <original_smiles>  (267) 
CN1CCC23CCC=C2C1N(C)c1ccccc13

>  <smiles>  (267) 
[H]C1=C2C3(c4c([H])c([H])c([H])c([H])c4N(C([H])([H])[H])C2([H])[N+]([H])(C([H])([H])[H])C([H])([H])C3([H])[H])C([H])([H])C1([H])[H]

$$$$
81:1:0
     RDKit          3D

 38 41  0  0  1  0  0  0  0  0999 V2000
    5.1616   -3.0372    3.0567 C   0  0  0  0  0  0  0  0  0  0  0  0
    4.4033   -2.7637    1.8417 N   0  0  0  0  0  0  0  0  0  0  0  0
    4.3296   -3.9768    0.9974 C   0  0  0  0  0  0  0  0  0  0  0  0
    5.6196   -4.2627    0.1785 C   0  0  0  0  0  0  0  0  0  0  0  0
    6.0961   -3.0067   -0.5715 C   0  0  2  0  0  0  0  0  0  0  0  0
    7.5512   -3.0950   -1.1261 C   0  0  0  0  0  0  0  0  0  0  0  0
    8.4318   -2.2614   -0.1732 C   0  0  0  0  0  0  0  0  0  0  0  0
    7.4494   -1.5270    0.6715 C   0  0  0  0  0  0  0  0  0  0  0  0
    6.2234   -1.9661    0.4710 C   0  0  0  0  0  0  0  0  0  0  0  0
    4.9519   -1.5882    1.1436 C   0  0  1  0  0  0  0  0  0  0  0  0
    3.9842   -1.1192    0.1686 N   0  0  0  0  0  0  0  0  0  0  0  0
    2.7802   -0.5689    0.7615 C   0  0  0  0  0  0  0  0  0  0  0  0
    4.0298   -1.6315   -1.1801 C   0  0  0  0  0  0  0  0  0  0  0  0
    3.0948   -1.2512   -2.1782 C   0  0  0  0  0  0  0  0  0  0  0  0
    3.0981   -1.8065   -3.4662 C   0  0  0  0  0  0  0  0  0  0  0  0
    4.0696   -2.7522   -3.8104 C   0  0  0  0  0  0  0  0  0  0  0  0
    5.0600   -3.1052   -2.8805 C   0  0  0  0  0  0  0  0  0  0  0  0
    5.0404   -2.5588   -1.5784 C   0  0  0  0  0  0  0  0  0  0  0  0
    4.7048   -3.8636    3.6132 H   0  0  0  0  0  0  0  0  0  0  0  0
    5.1510   -2.1484    3.6985 H   0  0  0  0  0  0  0  0  0  0  0  0
    6.2010   -3.2923    2.8259 H   0  0  0  0  0  0  0  0  0  0  0  0
    4.0825   -4.8413    1.6149 H   0  0  0  0  0  0  0  0  0  0  0  0
    3.4942   -3.8597    0.3045 H   0  0  0  0  0  0  0  0  0  0  0  0
    6.4068   -4.5859    0.8615 H   0  0  0  0  0  0  0  0  0  0  0  0
    5.4431   -5.0821   -0.5228 H   0  0  0  0  0  0  0  0  0  0  0  0
    7.9473   -4.1056   -1.1469 H   0  0  0  0  0  0  0  0  0  0  0  0
    7.6146   -2.6580   -2.1245 H   0  0  0  0  0  0  0  0  0  0  0  0
    9.0474   -2.9063    0.4592 H   0  0  0  0  0  0  0  0  0  0  0  0
    9.0391   -1.5628   -0.7263 H   0  0  0  0  0  0  0  0  0  0  0  0
    7.7371   -0.7867    1.3931 H   0  0  0  0  0  0  0  0  0  0  0  0
    5.1627   -0.7878    1.8579 H   0  0  0  0  0  0  0  0  0  0  0  0
    2.2224    0.0277    0.0801 H   0  0  0  0  0  0  0  0  0  0  0  0
    3.0353    0.0694    1.6115 H   0  0  0  0  0  0  0  0  0  0  0  0
    2.1230   -1.3617    1.1189 H   0  0  0  0  0  0  0  0  0  0  0  0
    2.3191   -0.5369   -1.9787 H   0  0  0  0  0  0  0  0  0  0  0  0
    2.3275   -1.5283   -4.1685 H   0  0  0  0  0  0  0  0  0  0  0  0
    4.0504   -3.2223   -4.7668 H   0  0  0  0  0  0  0  0  0  0  0  0
    5.8134   -3.8170   -3.1673 H   0  0  0  0  0  0  0  0  0  0  0  0
  1  2  1  0
  1 19  1  0
  1 20  1  0
  1 21  1  0
  2 10  1  0
  2  3  1  0
  3  4  1  0
  3 22  1  0
  3 23  1  0
  5  4  1  1
  4 24  1  0
  4 25  1  0
  5  9  1  0
  5 18  1  0
  5  6  1  0
  6  7  1  0
  6 26  1  0
  6 27  1  0
  7  8  1  0
  7 28  1  0
  7 29  1  0
  8  9  2  0
  8 30  1  0
  9 10  1  0
 10 11  1  0
 10 31  1  1
 11 12  1  0
 11 13  1  0
 12 32  1  0
 12 33  1  0
 12 34  1  0
 13 18  2  0
 13 14  1  0
 14 15  2  0
 14 35  1  0
 15 16  1  0
 15 36  1  0
 16 17  2  0
 16 37  1  0
 17 18  1  0
 17 38  1  0
M  END
>  <i_m_ct_stereo_status>  (268) 
1

>  <s_m_source_file>  (268) 
/var/tmp/pbs.5076255.sched01/tmp1t990xkq/82z3oanzij.sdf

>  <i_m_source_file_index>  (268) 
34

>  <i_lp_mmshare_version>  (268) 
48012

>  <i_f3d_flags>  (268) 
0

>  <s_epik_input>  (268) 
W0NIMl0xW0NIMl1bQ0hdPUMoW0NAQF0xMjMpW0NASF0oTihbQ0gzXSlbQ0gyXVtDSDJdMilOKFtDSDNdKWM0YzNbY0hdW2NIXVtjSF1bY0hdNA==

>  <s_epik_cmdline>  (268) 
J2VwaWtfcHl0aG9uJywgJy1waHQnLCAnMi4wJywgJy1waCcsICc3LjAnLCAnLXRuJywgJzgnLCAnLW1hJywgJzIwMCcsICctaW1hZScsICc8aW5maWxlLm1hZT4nLCAnLW9tYWUnLCAnPG91dGZpbGUubWFlPic=

>  <r_epik_Ionization_Penalty>  (268) 
0.549093

>  <r_epik_Ionization_Penalty_Charging>  (268) 
0

>  <r_epik_Ionization_Penalty_Neutral>  (268) 
0.549093

>  <r_epik_State_Penalty>  (268) 
0.558724

>  <r_epik_Charging_Adjusted_Penalty>  (268) 
0.558724

>  <i_epik_Tot_Q>  (268) 
0

>  <i_epik_Tot_abs_Q>  (268) 
0

>  <s_epik_Chemistry_Notes>  (268) 
This compound contains an acetal/aminal-like group ( X-CH(R)-Y where X, Y are N, S, or O) that may be acid/base labile, releasing an aldehyde.

>  <s_lp_Force_Field>  (268) 
OPLS3e

>  <r_lp_Energy>  (268) 
34.0399

>  <b_lp_Chiralities_Consistent>  (268) 
1

>  <s_lp_Variant>  (268) 
81:0-2

>  <s_i_glide_gridfile>  (268) 
pfpi4k_grid

>  <i_i_glide_lignum>  (268) 
34

>  <i_i_glide_rotatable_bonds>  (268) 
0

>  <r_i_docking_score>  (268) 
-3.34472

>  <r_i_glide_ligand_efficiency>  (268) 
-0.185818

>  <r_i_glide_ligand_efficiency_sa>  (268) 
-0.48698

>  <r_i_glide_ligand_efficiency_ln>  (268) 
-0.859742

>  <r_i_glide_gscore>  (268) 
-3.34472

>  <r_i_glide_lipo>  (268) 
-0.732242

>  <r_i_glide_hbond>  (268) 
0

>  <r_i_glide_metal>  (268) 
-0

>  <r_i_glide_rewards>  (268) 
-1.84576

>  <r_i_glide_evdw>  (268) 
-14.0475

>  <r_i_glide_ecoul>  (268) 
-0.247568

>  <r_i_glide_erotb>  (268) 
0

>  <r_i_glide_esite>  (268) 
-0.027206

>  <r_i_glide_emodel>  (268) 
-16.2191

>  <r_i_glide_energy>  (268) 
-14.295

>  <r_i_glide_einternal>  (268) 
0

>  <r_i_glide_intrahb_reward>  (268) 
-0

>  <i_i_glide_confnum>  (268) 
1

>  <i_i_glide_posenum>  (268) 
31

>  <r_i_glide_eff_state_penalty>  (268) 
0

>  <ligand_id>  (268) 
81

>  <original_smiles>  (268) 
CN1CCC23CCC=C2C1N(C)c1ccccc13

>  <smiles>  (268) 
[H]C1=C2C3([H])N(C([H])([H])[H])c4c([H])c([H])c([H])c([H])c4C2(C([H])([H])C1([H])[H])C([H])([H])C([H])([H])N3C([H])([H])[H]

$$$$
81:1:1
     RDKit          3D

 38 41  0  0  1  0  0  0  0  0999 V2000
    5.0749   -4.1706    2.2396 C   0  0  0  0  0  0  0  0  0  0  0  0
    4.3264   -3.5347    1.1626 N   0  0  0  0  0  0  0  0  0  0  0  0
    4.2560   -4.4179   -0.0114 C   0  0  0  0  0  0  0  0  0  0  0  0
    5.5605   -4.4605   -0.8531 C   0  0  0  0  0  0  0  0  0  0  0  0
    6.0520   -3.0486   -1.1761 C   0  0  2  0  0  0  0  0  0  0  0  0
    7.5164   -2.9593   -1.7384 C   0  0  0  0  0  0  0  0  0  0  0  0
    8.3983   -2.4865   -0.5639 C   0  0  0  0  0  0  0  0  0  0  0  0
    7.4125   -2.0074    0.4458 C   0  0  0  0  0  0  0  0  0  0  0  0
    6.1831   -2.3720    0.1276 C   0  0  0  0  0  0  0  0  0  0  0  0
    4.8902   -2.1941    0.8740 C   0  0  1  0  0  0  0  0  0  0  0  0
    3.9488   -1.4376    0.0574 N   0  0  0  0  0  0  0  0  0  0  0  0
    2.7664   -0.9922    0.7643 C   0  0  0  0  0  0  0  0  0  0  0  0
    3.9747   -1.5651   -1.3728 C   0  0  0  0  0  0  0  0  0  0  0  0
    3.0219   -0.9272   -2.2327 C   0  0  0  0  0  0  0  0  0  0  0  0
    3.0752   -0.9870   -3.6087 C   0  0  0  0  0  0  0  0  0  0  0  0
    4.0789   -1.7510   -4.1857 C   0  0  0  0  0  0  0  0  0  0  0  0
    5.0048   -2.4611   -3.4027 C   0  0  0  0  0  0  0  0  0  0  0  0
    4.9970   -2.3326   -2.0079 C   0  0  0  0  0  0  0  0  0  0  0  0
    4.6074   -5.1214    2.5024 H   0  0  0  0  0  0  0  0  0  0  0  0
    5.0557   -3.5274    3.1202 H   0  0  0  0  0  0  0  0  0  0  0  0
    6.1138   -4.3519    1.9608 H   0  0  0  0  0  0  0  0  0  0  0  0
    4.0019   -5.4335    0.2953 H   0  0  0  0  0  0  0  0  0  0  0  0
    3.4368   -4.0960   -0.6581 H   0  0  0  0  0  0  0  0  0  0  0  0
    6.3326   -4.9802   -0.2971 H   0  0  0  0  0  0  0  0  0  0  0  0
    5.3741   -4.9982   -1.7772 H   0  0  0  0  0  0  0  0  0  0  0  0
    7.9016   -3.8568   -2.1881 H   0  0  0  0  0  0  0  0  0  0  0  0
    7.5845   -2.2048   -2.5096 H   0  0  0  0  0  0  0  0  0  0  0  0
    9.0043   -3.2941   -0.1428 H   0  0  0  0  0  0  0  0  0  0  0  0
    9.0280   -1.6546   -0.8336 H   0  0  0  0  0  0  0  0  0  0  0  0
    7.6800   -1.4214    1.2976 H   0  0  0  0  0  0  0  0  0  0  0  0
    5.0903   -1.6500    1.8046 H   0  0  0  0  0  0  0  0  0  0  0  0
    2.3555   -0.1033    0.3083 H   0  0  0  0  0  0  0  0  0  0  0  0
    3.0043   -0.7182    1.7951 H   0  0  0  0  0  0  0  0  0  0  0  0
    2.0405   -1.8118    0.8234 H   0  0  0  0  0  0  0  0  0  0  0  0
    2.2236   -0.2884   -1.9173 H   0  0  0  0  0  0  0  0  0  0  0  0
    2.3665   -0.4443   -4.2211 H   0  0  0  0  0  0  0  0  0  0  0  0
    4.0810   -1.6891   -5.2407 H   0  0  0  0  0  0  0  0  0  0  0  0
    5.7546   -3.0751   -3.8666 H   0  0  0  0  0  0  0  0  0  0  0  0
  1  2  1  0
  1 19  1  0
  1 20  1  0
  1 21  1  0
  2 10  1  0
  2  3  1  0
  3  4  1  0
  3 22  1  0
  3 23  1  0
  5  4  1  1
  4 24  1  0
  4 25  1  0
  5  9  1  0
  5 18  1  0
  5  6  1  0
  6  7  1  0
  6 26  1  0
  6 27  1  0
  7  8  1  0
  7 28  1  0
  7 29  1  0
  8  9  2  0
  8 30  1  0
  9 10  1  0
 10 11  1  0
 10 31  1  1
 11 12  1  0
 11 13  1  0
 12 32  1  0
 12 33  1  0
 12 34  1  0
 13 18  2  0
 13 14  1  0
 14 15  2  0
 14 35  1  0
 15 16  1  0
 15 36  1  0
 16 17  2  0
 16 37  1  0
 17 18  1  0
 17 38  1  0
M  END
>  <i_m_ct_stereo_status>  (269) 
1

>  <s_m_source_file>  (269) 
/var/tmp/pbs.5076255.sched01/tmp1t990xkq/82z3oanzij.sdf

>  <i_m_source_file_index>  (269) 
34

>  <i_lp_mmshare_version>  (269) 
48012

>  <i_f3d_flags>  (269) 
0

>  <s_epik_input>  (269) 
W0NIMl0xW0NIMl1bQ0hdPUMoW0NAQF0xMjMpW0NASF0oTihbQ0gzXSlbQ0gyXVtDSDJdMilOKFtDSDNdKWM0YzNbY0hdW2NIXVtjSF1bY0hdNA==

>  <s_epik_cmdline>  (269) 
J2VwaWtfcHl0aG9uJywgJy1waHQnLCAnMi4wJywgJy1waCcsICc3LjAnLCAnLXRuJywgJzgnLCAnLW1hJywgJzIwMCcsICctaW1hZScsICc8aW5maWxlLm1hZT4nLCAnLW9tYWUnLCAnPG91dGZpbGUubWFlPic=

>  <r_epik_Ionization_Penalty>  (269) 
0.549093

>  <r_epik_Ionization_Penalty_Charging>  (269) 
0

>  <r_epik_Ionization_Penalty_Neutral>  (269) 
0.549093

>  <r_epik_State_Penalty>  (269) 
0.558724

>  <r_epik_Charging_Adjusted_Penalty>  (269) 
0.558724

>  <i_epik_Tot_Q>  (269) 
0

>  <i_epik_Tot_abs_Q>  (269) 
0

>  <s_epik_Chemistry_Notes>  (269) 
This compound contains an acetal/aminal-like group ( X-CH(R)-Y where X, Y are N, S, or O) that may be acid/base labile, releasing an aldehyde.

>  <s_lp_Force_Field>  (269) 
OPLS3e

>  <r_lp_Energy>  (269) 
34.0399

>  <b_lp_Chiralities_Consistent>  (269) 
1

>  <s_lp_Variant>  (269) 
81:0-2

>  <s_i_glide_gridfile>  (269) 
pfpi4k_grid

>  <i_i_glide_lignum>  (269) 
34

>  <i_i_glide_rotatable_bonds>  (269) 
0

>  <r_i_docking_score>  (269) 
-2.47595

>  <r_i_glide_ligand_efficiency>  (269) 
-0.137553

>  <r_i_glide_ligand_efficiency_sa>  (269) 
-0.36049

>  <r_i_glide_ligand_efficiency_ln>  (269) 
-0.63643

>  <r_i_glide_gscore>  (269) 
-2.47595

>  <r_i_glide_lipo>  (269) 
-0.432177

>  <r_i_glide_hbond>  (269) 
0

>  <r_i_glide_metal>  (269) 
-0

>  <r_i_glide_rewards>  (269) 
-1.80501

>  <r_i_glide_evdw>  (269) 
-7.51353

>  <r_i_glide_ecoul>  (269) 
1.20925

>  <r_i_glide_erotb>  (269) 
0

>  <r_i_glide_esite>  (269) 
-0.0444675

>  <r_i_glide_emodel>  (269) 
-7.3661

>  <r_i_glide_energy>  (269) 
-6.30429

>  <r_i_glide_einternal>  (269) 
0

>  <r_i_glide_intrahb_reward>  (269) 
-0

>  <i_i_glide_confnum>  (269) 
1

>  <i_i_glide_posenum>  (269) 
39

>  <r_i_glide_eff_state_penalty>  (269) 
0

>  <ligand_id>  (269) 
81

>  <original_smiles>  (269) 
CN1CCC23CCC=C2C1N(C)c1ccccc13

>  <smiles>  (269) 
[H]C1=C2C3([H])N(C([H])([H])[H])c4c([H])c([H])c([H])c([H])c4C2(C([H])([H])C1([H])[H])C([H])([H])C([H])([H])N3C([H])([H])[H]

$$$$
82:0:0
     RDKit          3D

 44 49  0  0  1  0  0  0  0  0999 V2000
    0.9336  -12.0106    4.3295 C   0  0  0  0  0  0  0  0  0  0  0  0
    1.7816  -11.0656    3.5689 N   0  0  1  0  0  0  0  0  0  0  0  0
    0.9530  -10.2211    2.6380 C   0  0  0  0  0  0  0  0  0  0  0  0
    0.5412   -8.8393    3.2185 C   0  0  0  0  0  0  0  0  0  0  0  0
    1.7846   -8.1818    3.8702 C   0  0  1  0  0  0  0  0  0  0  0  0
    2.7947   -8.0018    2.8021 C   0  0  0  0  0  0  0  0  0  0  0  0
    3.8251   -8.8922    2.5068 C   0  0  0  0  0  0  0  0  0  0  0  0
    4.5652   -8.5818    1.3500 C   0  0  0  0  0  0  0  0  0  0  0  0
    4.2267   -7.4178    0.6030 C   0  0  0  0  0  0  0  0  0  0  0  0
    3.2117   -6.5116    1.0227 C   0  0  0  0  0  0  0  0  0  0  0  0
    2.9325   -5.3992    0.2893 O   0  0  0  0  0  0  0  0  0  0  0  0
    2.4824   -6.7830    2.2009 C   0  0  0  0  0  0  0  0  0  0  0  0
    1.5696   -6.0315    2.9375 O   0  0  0  0  0  0  0  0  0  0  0  0
    1.7510   -6.7025    4.1906 C   0  0  1  0  0  0  0  0  0  0  0  0
    1.0424   -6.4357    5.4460 C   0  0  0  0  0  0  0  0  0  0  0  0
    0.1044   -5.5127    5.8153 N   0  0  0  0  0  0  0  0  0  0  0  0
   -0.1772   -5.6979    7.1555 C   0  0  0  0  0  0  0  0  0  0  0  0
    0.6120   -6.7286    7.6128 C   0  0  0  0  0  0  0  0  0  0  0  0
    1.4042   -7.1964    6.5213 C   0  0  0  0  0  0  0  0  0  0  0  0
    2.4466   -8.3312    6.3659 C   0  0  0  0  0  0  0  0  0  0  0  0
    2.0907   -9.1044    5.0553 C   0  0  2  0  0  0  0  0  0  0  0  0
    2.7888  -10.3364    4.4288 C   0  0  2  0  0  0  0  0  0  0  0  0
    4.0387   -9.9712    3.5751 C   0  0  0  0  0  0  0  0  0  0  0  0
   -0.2995   -4.8158    5.2084 H   0  0  0  0  0  0  0  0  0  0  0  0
    0.2161  -11.4907    4.9664 H   0  0  0  0  0  0  0  0  0  0  0  0
    1.5529  -12.6565    4.9473 H   0  0  0  0  0  0  0  0  0  0  0  0
    0.3725  -12.6507    3.6467 H   0  0  0  0  0  0  0  0  0  0  0  0
    1.5161  -10.0596    1.7170 H   0  0  0  0  0  0  0  0  0  0  0  0
    0.0594  -10.7591    2.3166 H   0  0  0  0  0  0  0  0  0  0  0  0
    0.1234   -8.2163    2.4265 H   0  0  0  0  0  0  0  0  0  0  0  0
   -0.2676   -8.9603    3.9460 H   0  0  0  0  0  0  0  0  0  0  0  0
    5.3769   -9.2288    1.0412 H   0  0  0  0  0  0  0  0  0  0  0  0
    4.7687   -7.2184   -0.3047 H   0  0  0  0  0  0  0  0  0  0  0  0
    3.3482   -5.4120   -0.5642 H   0  0  0  0  0  0  0  0  0  0  0  0
    2.7605   -6.3858    4.4838 H   0  0  0  0  0  0  0  0  0  0  0  0
   -0.9103   -5.0883    7.6626 H   0  0  0  0  0  0  0  0  0  0  0  0
    0.6127   -7.1103    8.6224 H   0  0  0  0  0  0  0  0  0  0  0  0
    3.4424   -7.8891    6.2824 H   0  0  0  0  0  0  0  0  0  0  0  0
    2.4465   -8.9845    7.2392 H   0  0  0  0  0  0  0  0  0  0  0  0
    1.1474   -9.5065    5.4255 H   0  0  0  0  0  0  0  0  0  0  0  0
    3.1156  -11.0130    5.2186 H   0  0  0  0  0  0  0  0  0  0  0  0
    4.4516  -10.8603    3.0972 H   0  0  0  0  0  0  0  0  0  0  0  0
    4.8134   -9.6021    4.2472 H   0  0  0  0  0  0  0  0  0  0  0  0
    2.3287  -11.6619    2.9610 H   0  0  0  0  0  0  0  0  0  0  0  0
  1  2  1  0
  1 25  1  0
  1 26  1  0
  1 27  1  0
  2 22  1  0
  2  3  1  0
  2 44  1  6
  3  4  1  0
  3 28  1  0
  3 29  1  0
  5  4  1  6
  4 30  1  0
  4 31  1  0
  5 14  1  0
  5 21  1  0
  5  6  1  0
  6 12  2  0
  6  7  1  0
  7 23  1  0
  7  8  2  0
  8  9  1  0
  8 32  1  0
  9 10  2  0
  9 33  1  0
 10 11  1  0
 10 12  1  0
 11 34  1  0
 12 13  1  0
 13 14  1  0
 14 15  1  0
 14 35  1  1
 15 19  2  0
 15 16  1  0
 16 24  1  0
 16 17  1  0
 17 18  2  0
 17 36  1  0
 18 19  1  0
 18 37  1  0
 19 20  1  0
 20 21  1  0
 20 38  1  0
 20 39  1  0
 21 22  1  0
 21 40  1  1
 22 23  1  0
 22 41  1  1
 23 42  1  0
 23 43  1  0
M  CHG  1   2   1
M  END
>  <i_m_ct_stereo_status>  (270) 
1

>  <s_m_source_file>  (270) 
/var/tmp/pbs.5076255.sched01/tmp1t990xkq/82z3oanzij.sdf

>  <i_m_source_file_index>  (270) 
35

>  <i_lp_mmshare_version>  (270) 
48012

>  <i_f3d_flags>  (270) 
0

>  <s_epik_input>  (270) 
W0NIMl0xW0NIMl1OKFtDSDNdKVtDQEBIXShbQ0gyXTIpW0NASF0zW0NIMl1jKFtjSF1bY0hdW25IXTQpYzRbQ0BASF01T2M2YyhbT0hdKVtjSF1bY0hdYzJjNltDQEBdMTM1

>  <s_epik_cmdline>  (270) 
J2VwaWtfcHl0aG9uJywgJy1waHQnLCAnMi4wJywgJy1waCcsICc3LjAnLCAnLXRuJywgJzgnLCAnLW1hJywgJzIwMCcsICctaW1hZScsICc8aW5maWxlLm1hZT4nLCAnLW9tYWUnLCAnPG91dGZpbGUubWFlPic=

>  <r_lp_tautomer_probability>  (270) 
1

>  <r_epik_Ionization_Penalty>  (270) 
0.0546977

>  <r_epik_Ionization_Penalty_Charging>  (270) 
0.0405781

>  <r_epik_Ionization_Penalty_Neutral>  (270) 
0.0141195

>  <r_epik_State_Penalty>  (270) 
0.0445778

>  <r_epik_Charging_Adjusted_Penalty>  (270) 
0.085156

>  <i_epik_Tot_Q>  (270) 
1

>  <i_epik_Tot_abs_Q>  (270) 
1

>  <s_lp_Force_Field>  (270) 
OPLS3e

>  <r_lp_Energy>  (270) 
100.256

>  <b_lp_Chiralities_Consistent>  (270) 
1

>  <s_lp_Variant>  (270) 
82:0-1

>  <s_i_glide_gridfile>  (270) 
pfpi4k_grid

>  <i_i_glide_lignum>  (270) 
35

>  <i_i_glide_rotatable_bonds>  (270) 
1

>  <r_i_docking_score>  (270) 
-3.55651

>  <r_i_glide_ligand_efficiency>  (270) 
-0.154631

>  <r_i_glide_ligand_efficiency_sa>  (270) 
-0.439749

>  <r_i_glide_ligand_efficiency_ln>  (270) 
-0.859996

>  <r_i_glide_gscore>  (270) 
-3.55651

>  <r_i_glide_lipo>  (270) 
-0.354767

>  <r_i_glide_hbond>  (270) 
0

>  <r_i_glide_metal>  (270) 
-0

>  <r_i_glide_rewards>  (270) 
-1.29967

>  <r_i_glide_evdw>  (270) 
-18.7088

>  <r_i_glide_ecoul>  (270) 
-6.40697

>  <r_i_glide_erotb>  (270) 
0

>  <r_i_glide_esite>  (270) 
-0.00559062

>  <r_i_glide_emodel>  (270) 
-33.54

>  <r_i_glide_energy>  (270) 
-25.1157

>  <r_i_glide_einternal>  (270) 
0.177658

>  <r_i_glide_intrahb_reward>  (270) 
-0

>  <i_i_glide_confnum>  (270) 
2

>  <i_i_glide_posenum>  (270) 
22

>  <r_i_glide_eff_state_penalty>  (270) 
0

>  <ligand_id>  (270) 
82

>  <original_smiles>  (270) 
CN1CCC23c4c5ccc(O)c4OC2c2[nH]ccc2CC3C1C5

>  <smiles>  (270) 
[H]Oc1c([H])c([H])c2c3c1OC1([H])c4c(c([H])c([H])n4[H])C([H])([H])C4([H])C31C([H])([H])C([H])([H])[N+]([H])(C([H])([H])[H])C4([H])C2([H])[H]

$$$$
82:0:1
     RDKit          3D

 44 49  0  0  1  0  0  0  0  0999 V2000
    3.6757  -12.3343    5.6497 C   0  0  0  0  0  0  0  0  0  0  0  0
    2.6566  -11.3323    5.2627 N   0  0  1  0  0  0  0  0  0  0  0  0
    2.7100  -10.1245    6.1586 C   0  0  0  0  0  0  0  0  0  0  0  0
    3.5630   -8.9489    5.6035 C   0  0  0  0  0  0  0  0  0  0  0  0
    3.1949   -8.7212    4.1161 C   0  0  1  0  0  0  0  0  0  0  0  0
    1.7583   -8.3689    4.0741 C   0  0  0  0  0  0  0  0  0  0  0  0
    0.7113   -9.2593    3.8542 C   0  0  0  0  0  0  0  0  0  0  0  0
   -0.5767   -8.7131    4.0058 C   0  0  0  0  0  0  0  0  0  0  0  0
   -0.7173   -7.3435    4.3617 C   0  0  0  0  0  0  0  0  0  0  0  0
    0.4065   -6.4796    4.4745 C   0  0  0  0  0  0  0  0  0  0  0  0
    0.2286   -5.1568    4.7464 O   0  0  0  0  0  0  0  0  0  0  0  0
    1.7090   -6.9912    4.2831 C   0  0  0  0  0  0  0  0  0  0  0  0
    2.9528   -6.3765    4.1616 O   0  0  0  0  0  0  0  0  0  0  0  0
    3.6087   -7.4290    3.4442 C   0  0  1  0  0  0  0  0  0  0  0  0
    5.0094   -7.4664    3.0108 C   0  0  0  0  0  0  0  0  0  0  0  0
    6.0470   -6.5797    3.1054 N   0  0  0  0  0  0  0  0  0  0  0  0
    7.1453   -7.1368    2.4781 C   0  0  0  0  0  0  0  0  0  0  0  0
    6.7700   -8.3618    1.9779 C   0  0  0  0  0  0  0  0  0  0  0  0
    5.3981   -8.5733    2.3092 C   0  0  0  0  0  0  0  0  0  0  0  0
    4.4145   -9.7451    2.0791 C   0  0  0  0  0  0  0  0  0  0  0  0
    3.6784  -10.0053    3.4338 C   0  0  2  0  0  0  0  0  0  0  0  0
    2.6026  -11.0691    3.7718 C   0  0  2  0  0  0  0  0  0  0  0  0
    1.1628  -10.6412    3.3652 C   0  0  0  0  0  0  0  0  0  0  0  0
    6.0124   -5.6802    3.5612 H   0  0  0  0  0  0  0  0  0  0  0  0
    4.6847  -11.9319    5.5544 H   0  0  0  0  0  0  0  0  0  0  0  0
    3.5890  -13.2333    5.0412 H   0  0  0  0  0  0  0  0  0  0  0  0
    3.5325  -12.6277    6.6908 H   0  0  0  0  0  0  0  0  0  0  0  0
    1.6927   -9.7757    6.3299 H   0  0  0  0  0  0  0  0  0  0  0  0
    3.0690  -10.4011    7.1505 H   0  0  0  0  0  0  0  0  0  0  0  0
    3.3947   -8.0513    6.2022 H   0  0  0  0  0  0  0  0  0  0  0  0
    4.6298   -9.1664    5.7148 H   0  0  0  0  0  0  0  0  0  0  0  0
   -1.4431   -9.3434    3.8617 H   0  0  0  0  0  0  0  0  0  0  0  0
   -1.7062   -6.9508    4.5179 H   0  0  0  0  0  0  0  0  0  0  0  0
    1.0490   -4.6925    4.8237 H   0  0  0  0  0  0  0  0  0  0  0  0
    3.1221   -7.3793    2.4624 H   0  0  0  0  0  0  0  0  0  0  0  0
    8.0954   -6.6219    2.4466 H   0  0  0  0  0  0  0  0  0  0  0  0
    7.4174   -9.0364    1.4439 H   0  0  0  0  0  0  0  0  0  0  0  0
    3.6946   -9.4615    1.3075 H   0  0  0  0  0  0  0  0  0  0  0  0
    4.9506  -10.6264    1.7265 H   0  0  0  0  0  0  0  0  0  0  0  0
    4.5630  -10.3553    3.9632 H   0  0  0  0  0  0  0  0  0  0  0  0
    2.8295  -11.9976    3.2511 H   0  0  0  0  0  0  0  0  0  0  0  0
    0.4371  -11.3856    3.6902 H   0  0  0  0  0  0  0  0  0  0  0  0
    1.1085  -10.6209    2.2764 H   0  0  0  0  0  0  0  0  0  0  0  0
    1.7885  -11.7848    5.5214 H   0  0  0  0  0  0  0  0  0  0  0  0
  1  2  1  0
  1 25  1  0
  1 26  1  0
  1 27  1  0
  2 22  1  0
  2  3  1  0
  2 44  1  1
  3  4  1  0
  3 28  1  0
  3 29  1  0
  5  4  1  1
  4 30  1  0
  4 31  1  0
  5 14  1  0
  5 21  1  0
  5  6  1  0
  6 12  2  0
  6  7  1  0
  7 23  1  0
  7  8  2  0
  8  9  1  0
  8 32  1  0
  9 10  2  0
  9 33  1  0
 10 11  1  0
 10 12  1  0
 11 34  1  0
 12 13  1  0
 13 14  1  0
 14 15  1  0
 14 35  1  6
 15 19  2  0
 15 16  1  0
 16 24  1  0
 16 17  1  0
 17 18  2  0
 17 36  1  0
 18 19  1  0
 18 37  1  0
 19 20  1  0
 20 21  1  0
 20 38  1  0
 20 39  1  0
 21 22  1  0
 21 40  1  1
 22 23  1  0
 22 41  1  6
 23 42  1  0
 23 43  1  0
M  CHG  1   2   1
M  END
>  <i_m_ct_stereo_status>  (271) 
1

>  <s_m_source_file>  (271) 
/var/tmp/pbs.5076255.sched01/tmp1t990xkq/82z3oanzij.sdf

>  <i_m_source_file_index>  (271) 
35

>  <i_lp_mmshare_version>  (271) 
48012

>  <i_f3d_flags>  (271) 
0

>  <s_epik_input>  (271) 
W0NIMl0xW0NIMl1OKFtDSDNdKVtDQEBIXShbQ0gyXTIpW0NASF0zW0NIMl1jKFtjSF1bY0hdW25IXTQpYzRbQ0BASF01T2M2YyhbT0hdKVtjSF1bY0hdYzJjNltDQEBdMTM1

>  <s_epik_cmdline>  (271) 
J2VwaWtfcHl0aG9uJywgJy1waHQnLCAnMi4wJywgJy1waCcsICc3LjAnLCAnLXRuJywgJzgnLCAnLW1hJywgJzIwMCcsICctaW1hZScsICc8aW5maWxlLm1hZT4nLCAnLW9tYWUnLCAnPG91dGZpbGUubWFlPic=

>  <r_lp_tautomer_probability>  (271) 
1

>  <r_epik_Ionization_Penalty>  (271) 
0.0546977

>  <r_epik_Ionization_Penalty_Charging>  (271) 
0.0405781

>  <r_epik_Ionization_Penalty_Neutral>  (271) 
0.0141195

>  <r_epik_State_Penalty>  (271) 
0.0445778

>  <r_epik_Charging_Adjusted_Penalty>  (271) 
0.085156

>  <i_epik_Tot_Q>  (271) 
1

>  <i_epik_Tot_abs_Q>  (271) 
1

>  <s_lp_Force_Field>  (271) 
OPLS3e

>  <r_lp_Energy>  (271) 
100.256

>  <b_lp_Chiralities_Consistent>  (271) 
1

>  <s_lp_Variant>  (271) 
82:0-1

>  <s_i_glide_gridfile>  (271) 
pfpi4k_grid

>  <i_i_glide_lignum>  (271) 
35

>  <i_i_glide_rotatable_bonds>  (271) 
1

>  <r_i_docking_score>  (271) 
-3.38397

>  <r_i_glide_ligand_efficiency>  (271) 
-0.147129

>  <r_i_glide_ligand_efficiency_sa>  (271) 
-0.418416

>  <r_i_glide_ligand_efficiency_ln>  (271) 
-0.818275

>  <r_i_glide_gscore>  (271) 
-3.38397

>  <r_i_glide_lipo>  (271) 
-0.298658

>  <r_i_glide_hbond>  (271) 
-0.0466903

>  <r_i_glide_metal>  (271) 
-0

>  <r_i_glide_rewards>  (271) 
-1.29967

>  <r_i_glide_evdw>  (271) 
-17.3174

>  <r_i_glide_ecoul>  (271) 
-5.27243

>  <r_i_glide_erotb>  (271) 
0

>  <r_i_glide_esite>  (271) 
-0.0822249

>  <r_i_glide_emodel>  (271) 
-30.6813

>  <r_i_glide_energy>  (271) 
-22.5898

>  <r_i_glide_einternal>  (271) 
0.0069203

>  <r_i_glide_intrahb_reward>  (271) 
-0

>  <i_i_glide_confnum>  (271) 
2

>  <i_i_glide_posenum>  (271) 
37

>  <r_i_glide_eff_state_penalty>  (271) 
0

>  <ligand_id>  (271) 
82

>  <original_smiles>  (271) 
CN1CCC23c4c5ccc(O)c4OC2c2[nH]ccc2CC3C1C5

>  <smiles>  (271) 
[H]Oc1c([H])c([H])c2c3c1OC1([H])c4c(c([H])c([H])n4[H])C([H])([H])C4([H])C31C([H])([H])C([H])([H])[N+]([H])(C([H])([H])[H])C4([H])C2([H])[H]

$$$$
82:0:2
     RDKit          3D

 44 49  0  0  1  0  0  0  0  0999 V2000
    3.2557  -12.3676    4.9694 C   0  0  0  0  0  0  0  0  0  0  0  0
    3.9354  -11.1553    4.4620 N   0  0  1  0  0  0  0  0  0  0  0  0
    3.8908  -11.0913    2.9598 C   0  0  0  0  0  0  0  0  0  0  0  0
    2.7259  -10.2335    2.3910 C   0  0  0  0  0  0  0  0  0  0  0  0
    2.6600   -8.8985    3.1679 C   0  0  1  0  0  0  0  0  0  0  0  0
    3.9529   -8.2083    2.9553 C   0  0  0  0  0  0  0  0  0  0  0  0
    5.0543   -8.2695    3.8051 C   0  0  0  0  0  0  0  0  0  0  0  0
    6.2214   -7.6514    3.3155 C   0  0  0  0  0  0  0  0  0  0  0  0
    6.1898   -7.0243    2.0383 C   0  0  0  0  0  0  0  0  0  0  0  0
    4.9912   -6.9201    1.2764 C   0  0  0  0  0  0  0  0  0  0  0  0
    4.9828   -6.2412    0.0934 O   0  0  0  0  0  0  0  0  0  0  0  0
    3.8001   -7.5012    1.7619 C   0  0  0  0  0  0  0  0  0  0  0  0
    2.4773   -7.4169    1.3392 O   0  0  0  0  0  0  0  0  0  0  0  0
    1.8652   -7.7489    2.5900 C   0  0  1  0  0  0  0  0  0  0  0  0
    0.4361   -7.8778    2.8633 C   0  0  0  0  0  0  0  0  0  0  0  0
   -0.6807   -7.7320    2.0899 N   0  0  0  0  0  0  0  0  0  0  0  0
   -1.7828   -7.9551    2.8895 C   0  0  0  0  0  0  0  0  0  0  0  0
   -1.3376   -8.2352    4.1581 C   0  0  0  0  0  0  0  0  0  0  0  0
    0.0882   -8.1675    4.1520 C   0  0  0  0  0  0  0  0  0  0  0  0
    1.1722   -8.4166    5.2265 C   0  0  0  0  0  0  0  0  0  0  0  0
    2.2579   -9.3352    4.5803 C   0  0  2  0  0  0  0  0  0  0  0  0
    3.5575   -9.8974    5.2067 C   0  0  2  0  0  0  0  0  0  0  0  0
    4.7445   -8.8899    5.1722 C   0  0  0  0  0  0  0  0  0  0  0  0
   -0.6895   -7.5627    1.0939 H   0  0  0  0  0  0  0  0  0  0  0  0
    2.1955  -12.3694    4.7023 H   0  0  0  0  0  0  0  0  0  0  0  0
    3.3443  -12.4446    6.0552 H   0  0  0  0  0  0  0  0  0  0  0  0
    3.7102  -13.2644    4.5393 H   0  0  0  0  0  0  0  0  0  0  0  0
    4.8357  -10.6855    2.5937 H   0  0  0  0  0  0  0  0  0  0  0  0
    3.8453  -12.0936    2.5280 H   0  0  0  0  0  0  0  0  0  0  0  0
    2.8717  -10.0745    1.3197 H   0  0  0  0  0  0  0  0  0  0  0  0
    1.7824  -10.7785    2.4824 H   0  0  0  0  0  0  0  0  0  0  0  0
    7.1249   -7.6505    3.9092 H   0  0  0  0  0  0  0  0  0  0  0  0
    7.0941   -6.5817    1.6596 H   0  0  0  0  0  0  0  0  0  0  0  0
    4.1598   -6.2783   -0.3730 H   0  0  0  0  0  0  0  0  0  0  0  0
    2.0703   -6.8520    3.1881 H   0  0  0  0  0  0  0  0  0  0  0  0
   -2.7786   -7.9273    2.4822 H   0  0  0  0  0  0  0  0  0  0  0  0
   -1.9671   -8.4974    4.9929 H   0  0  0  0  0  0  0  0  0  0  0  0
    1.6111   -7.4573    5.5085 H   0  0  0  0  0  0  0  0  0  0  0  0
    0.7413   -8.8639    6.1237 H   0  0  0  0  0  0  0  0  0  0  0  0
    1.6149  -10.2113    4.4968 H   0  0  0  0  0  0  0  0  0  0  0  0
    3.3769  -10.1597    6.2494 H   0  0  0  0  0  0  0  0  0  0  0  0
    5.6522   -9.3534    5.5596 H   0  0  0  0  0  0  0  0  0  0  0  0
    4.5145   -8.0685    5.8523 H   0  0  0  0  0  0  0  0  0  0  0  0
    4.9079  -11.3155    4.6799 H   0  0  0  0  0  0  0  0  0  0  0  0
  1  2  1  0
  1 25  1  0
  1 26  1  0
  1 27  1  0
  2 22  1  0
  2  3  1  0
  2 44  1  6
  3  4  1  0
  3 28  1  0
  3 29  1  0
  5  4  1  6
  4 30  1  0
  4 31  1  0
  5 14  1  0
  5 21  1  0
  5  6  1  0
  6 12  2  0
  6  7  1  0
  7 23  1  0
  7  8  2  0
  8  9  1  0
  8 32  1  0
  9 10  2  0
  9 33  1  0
 10 11  1  0
 10 12  1  0
 11 34  1  0
 12 13  1  0
 13 14  1  0
 14 15  1  0
 14 35  1  1
 15 19  2  0
 15 16  1  0
 16 24  1  0
 16 17  1  0
 17 18  2  0
 17 36  1  0
 18 19  1  0
 18 37  1  0
 19 20  1  0
 20 21  1  0
 20 38  1  0
 20 39  1  0
 21 22  1  0
 21 40  1  6
 22 23  1  0
 22 41  1  1
 23 42  1  0
 23 43  1  0
M  CHG  1   2   1
M  END
>  <i_m_ct_stereo_status>  (272) 
1

>  <s_m_source_file>  (272) 
/var/tmp/pbs.5076255.sched01/tmp1t990xkq/82z3oanzij.sdf

>  <i_m_source_file_index>  (272) 
35

>  <i_lp_mmshare_version>  (272) 
48012

>  <i_f3d_flags>  (272) 
0

>  <s_epik_input>  (272) 
W0NIMl0xW0NIMl1OKFtDSDNdKVtDQEBIXShbQ0gyXTIpW0NASF0zW0NIMl1jKFtjSF1bY0hdW25IXTQpYzRbQ0BASF01T2M2YyhbT0hdKVtjSF1bY0hdYzJjNltDQEBdMTM1

>  <s_epik_cmdline>  (272) 
J2VwaWtfcHl0aG9uJywgJy1waHQnLCAnMi4wJywgJy1waCcsICc3LjAnLCAnLXRuJywgJzgnLCAnLW1hJywgJzIwMCcsICctaW1hZScsICc8aW5maWxlLm1hZT4nLCAnLW9tYWUnLCAnPG91dGZpbGUubWFlPic=

>  <r_lp_tautomer_probability>  (272) 
1

>  <r_epik_Ionization_Penalty>  (272) 
0.0546977

>  <r_epik_Ionization_Penalty_Charging>  (272) 
0.0405781

>  <r_epik_Ionization_Penalty_Neutral>  (272) 
0.0141195

>  <r_epik_State_Penalty>  (272) 
0.0445778

>  <r_epik_Charging_Adjusted_Penalty>  (272) 
0.085156

>  <i_epik_Tot_Q>  (272) 
1

>  <i_epik_Tot_abs_Q>  (272) 
1

>  <s_lp_Force_Field>  (272) 
OPLS3e

>  <r_lp_Energy>  (272) 
100.256

>  <b_lp_Chiralities_Consistent>  (272) 
1

>  <s_lp_Variant>  (272) 
82:0-1

>  <s_i_glide_gridfile>  (272) 
pfpi4k_grid

>  <i_i_glide_lignum>  (272) 
35

>  <i_i_glide_rotatable_bonds>  (272) 
1

>  <r_i_docking_score>  (272) 
-3.37585

>  <r_i_glide_ligand_efficiency>  (272) 
-0.146776

>  <r_i_glide_ligand_efficiency_sa>  (272) 
-0.417412

>  <r_i_glide_ligand_efficiency_ln>  (272) 
-0.816312

>  <r_i_glide_gscore>  (272) 
-3.37585

>  <r_i_glide_lipo>  (272) 
-0.178279

>  <r_i_glide_hbond>  (272) 
0

>  <r_i_glide_metal>  (272) 
-0

>  <r_i_glide_rewards>  (272) 
-1.29967

>  <r_i_glide_evdw>  (272) 
-20.3985

>  <r_i_glide_ecoul>  (272) 
-5.23792

>  <r_i_glide_erotb>  (272) 
0

>  <r_i_glide_esite>  (272) 
-0.0922972

>  <r_i_glide_emodel>  (272) 
-33.6837

>  <r_i_glide_energy>  (272) 
-25.6364

>  <r_i_glide_einternal>  (272) 
0.0142241

>  <r_i_glide_intrahb_reward>  (272) 
-0

>  <i_i_glide_confnum>  (272) 
2

>  <i_i_glide_posenum>  (272) 
26

>  <r_i_glide_eff_state_penalty>  (272) 
0

>  <ligand_id>  (272) 
82

>  <original_smiles>  (272) 
CN1CCC23c4c5ccc(O)c4OC2c2[nH]ccc2CC3C1C5

>  <smiles>  (272) 
[H]Oc1c([H])c([H])c2c3c1OC1([H])c4c(c([H])c([H])n4[H])C([H])([H])C4([H])C31C([H])([H])C([H])([H])[N+]([H])(C([H])([H])[H])C4([H])C2([H])[H]

$$$$
82:1:0
     RDKit          3D

 43 48  0  0  1  0  0  0  0  0999 V2000
    4.7315   -7.3401    6.3066 C   0  0  0  0  0  0  0  0  0  0  0  0
    4.7831   -6.3800    5.2129 N   0  0  0  0  0  0  0  0  0  0  0  0
    5.1062   -7.0383    3.9209 C   0  0  0  0  0  0  0  0  0  0  0  0
    3.8829   -7.3659    3.0137 C   0  0  0  0  0  0  0  0  0  0  0  0
    2.9432   -6.1438    3.0096 C   0  0  1  0  0  0  0  0  0  0  0  0
    3.6875   -5.0152    2.3952 C   0  0  0  0  0  0  0  0  0  0  0  0
    4.3955   -4.0458    3.1041 C   0  0  0  0  0  0  0  0  0  0  0  0
    5.1020   -3.1230    2.3057 C   0  0  0  0  0  0  0  0  0  0  0  0
    5.0518   -3.2521    0.8886 C   0  0  0  0  0  0  0  0  0  0  0  0
    4.2335   -4.2200    0.2438 C   0  0  0  0  0  0  0  0  0  0  0  0
    4.1758   -4.2491   -1.1211 O   0  0  0  0  0  0  0  0  0  0  0  0
    3.4677   -5.1324    1.0144 C   0  0  0  0  0  0  0  0  0  0  0  0
    2.4372   -6.0167    0.6861 O   0  0  0  0  0  0  0  0  0  0  0  0
    1.8338   -6.0757    1.9775 C   0  0  1  0  0  0  0  0  0  0  0  0
    0.6385   -6.8373    2.3515 C   0  0  0  0  0  0  0  0  0  0  0  0
   -0.1753   -7.7142    1.6801 N   0  0  0  0  0  0  0  0  0  0  0  0
   -1.1550   -8.1409    2.5590 C   0  0  0  0  0  0  0  0  0  0  0  0
   -0.9536   -7.5086    3.7602 C   0  0  0  0  0  0  0  0  0  0  0  0
    0.1903   -6.6600    3.6251 C   0  0  0  0  0  0  0  0  0  0  0  0
    0.9586   -5.7535    4.6189 C   0  0  0  0  0  0  0  0  0  0  0  0
    2.4788   -6.0617    4.4672 C   0  0  2  0  0  0  0  0  0  0  0  0
    3.6536   -5.4187    5.2332 C   0  0  2  0  0  0  0  0  0  0  0  0
    4.1638   -4.0827    4.6196 C   0  0  0  0  0  0  0  0  0  0  0  0
   -0.0359   -8.0747    0.7469 H   0  0  0  0  0  0  0  0  0  0  0  0
    5.6622   -7.9113    6.3547 H   0  0  0  0  0  0  0  0  0  0  0  0
    3.9019   -8.0430    6.2087 H   0  0  0  0  0  0  0  0  0  0  0  0
    4.6353   -6.8127    7.2562 H   0  0  0  0  0  0  0  0  0  0  0  0
    5.7637   -6.3705    3.3597 H   0  0  0  0  0  0  0  0  0  0  0  0
    5.6926   -7.9445    4.0792 H   0  0  0  0  0  0  0  0  0  0  0  0
    4.2178   -7.6223    2.0043 H   0  0  0  0  0  0  0  0  0  0  0  0
    3.3613   -8.2595    3.3678 H   0  0  0  0  0  0  0  0  0  0  0  0
    5.6751   -2.3355    2.7675 H   0  0  0  0  0  0  0  0  0  0  0  0
    5.6248   -2.5659    0.2867 H   0  0  0  0  0  0  0  0  0  0  0  0
    3.6465   -4.9498   -1.4743 H   0  0  0  0  0  0  0  0  0  0  0  0
    1.4005   -5.0689    2.0449 H   0  0  0  0  0  0  0  0  0  0  0  0
   -1.8832   -8.8827    2.2588 H   0  0  0  0  0  0  0  0  0  0  0  0
   -1.5488   -7.6754    4.6469 H   0  0  0  0  0  0  0  0  0  0  0  0
    0.7566   -4.7145    4.3558 H   0  0  0  0  0  0  0  0  0  0  0  0
    0.6139   -5.9145    5.6410 H   0  0  0  0  0  0  0  0  0  0  0  0
    2.4267   -7.0770    4.8527 H   0  0  0  0  0  0  0  0  0  0  0  0
    3.3855   -5.2279    6.2701 H   0  0  0  0  0  0  0  0  0  0  0  0
    5.0837   -3.7726    5.1090 H   0  0  0  0  0  0  0  0  0  0  0  0
    3.4360   -3.3071    4.8447 H   0  0  0  0  0  0  0  0  0  0  0  0
  1  2  1  0
  1 25  1  0
  1 26  1  0
  1 27  1  0
  2 22  1  0
  2  3  1  0
  3  4  1  0
  3 28  1  0
  3 29  1  0
  5  4  1  1
  4 30  1  0
  4 31  1  0
  5 14  1  0
  5 21  1  0
  5  6  1  0
  6 12  2  0
  6  7  1  0
  7 23  1  0
  7  8  2  0
  8  9  1  0
  8 32  1  0
  9 10  2  0
  9 33  1  0
 10 11  1  0
 10 12  1  0
 11 34  1  0
 12 13  1  0
 13 14  1  0
 14 15  1  0
 14 35  1  1
 15 19  2  0
 15 16  1  0
 16 24  1  0
 16 17  1  0
 17 18  2  0
 17 36  1  0
 18 19  1  0
 18 37  1  0
 19 20  1  0
 20 21  1  0
 20 38  1  0
 20 39  1  0
 21 22  1  0
 21 40  1  1
 22 23  1  0
 22 41  1  1
 23 42  1  0
 23 43  1  0
M  END
>  <i_m_ct_stereo_status>  (273) 
1

>  <s_m_source_file>  (273) 
/var/tmp/pbs.5076255.sched01/tmp1t990xkq/82z3oanzij.sdf

>  <i_m_source_file_index>  (273) 
36

>  <i_lp_mmshare_version>  (273) 
48012

>  <i_f3d_flags>  (273) 
0

>  <s_epik_input>  (273) 
W0NIMl0xW0NIMl1OKFtDSDNdKVtDQEBIXShbQ0gyXTIpW0NASF0zW0NIMl1jKFtjSF1bY0hdW25IXTQpYzRbQ0BASF01T2M2YyhbT0hdKVtjSF1bY0hdYzJjNltDQEBdMTM1

>  <s_epik_cmdline>  (273) 
J2VwaWtfcHl0aG9uJywgJy1waHQnLCAnMi4wJywgJy1waCcsICc3LjAnLCAnLXRuJywgJzgnLCAnLW1hJywgJzIwMCcsICctaW1hZScsICc8aW5maWxlLm1hZT4nLCAnLW9tYWUnLCAnPG91dGZpbGUubWFlPic=

>  <r_lp_tautomer_probability>  (273) 
1

>  <r_epik_Ionization_Penalty>  (273) 
1.61104

>  <r_epik_Ionization_Penalty_Charging>  (273) 
0

>  <r_epik_Ionization_Penalty_Neutral>  (273) 
1.61104

>  <r_epik_State_Penalty>  (273) 
1.71787

>  <r_epik_Charging_Adjusted_Penalty>  (273) 
1.71787

>  <i_epik_Tot_Q>  (273) 
0

>  <i_epik_Tot_abs_Q>  (273) 
0

>  <s_lp_Force_Field>  (273) 
OPLS3e

>  <r_lp_Energy>  (273) 
97.9301

>  <b_lp_Chiralities_Consistent>  (273) 
1

>  <s_lp_Variant>  (273) 
82:0-2

>  <s_i_glide_gridfile>  (273) 
pfpi4k_grid

>  <i_i_glide_lignum>  (273) 
36

>  <i_i_glide_rotatable_bonds>  (273) 
1

>  <r_i_docking_score>  (273) 
-3.60104

>  <r_i_glide_ligand_efficiency>  (273) 
-0.156567

>  <r_i_glide_ligand_efficiency_sa>  (273) 
-0.445255

>  <r_i_glide_ligand_efficiency_ln>  (273) 
-0.870764

>  <r_i_glide_gscore>  (273) 
-3.60104

>  <r_i_glide_lipo>  (273) 
-0.109384

>  <r_i_glide_hbond>  (273) 
-0.262266

>  <r_i_glide_metal>  (273) 
-0

>  <r_i_glide_rewards>  (273) 
-1.30654

>  <r_i_glide_evdw>  (273) 
-17.0806

>  <r_i_glide_ecoul>  (273) 
-6.56967

>  <r_i_glide_erotb>  (273) 
0

>  <r_i_glide_esite>  (273) 
-0.0833686

>  <r_i_glide_emodel>  (273) 
-29.4487

>  <r_i_glide_energy>  (273) 
-23.6503

>  <r_i_glide_einternal>  (273) 
0.0155816

>  <r_i_glide_intrahb_reward>  (273) 
-0

>  <i_i_glide_confnum>  (273) 
2

>  <i_i_glide_posenum>  (273) 
32

>  <r_i_glide_eff_state_penalty>  (273) 
0

>  <ligand_id>  (273) 
82

>  <original_smiles>  (273) 
CN1CCC23c4c5ccc(O)c4OC2c2[nH]ccc2CC3C1C5

>  <smiles>  (273) 
[H]Oc1c([H])c([H])c2c3c1OC1([H])c4c(c([H])c([H])n4[H])C([H])([H])C4([H])C([H])(N(C([H])([H])[H])C([H])([H])C([H])([H])C314)C2([H])[H]

$$$$
82:1:1
     RDKit          3D

 43 48  0  0  1  0  0  0  0  0999 V2000
    6.9940   -7.2815    3.8135 C   0  0  0  0  0  0  0  0  0  0  0  0
    5.6506   -7.7356    3.4807 N   0  0  0  0  0  0  0  0  0  0  0  0
    4.6137   -7.0132    4.2639 C   0  0  0  0  0  0  0  0  0  0  0  0
    3.9321   -5.8203    3.5311 C   0  0  0  0  0  0  0  0  0  0  0  0
    3.5987   -6.2596    2.0896 C   0  0  1  0  0  0  0  0  0  0  0  0
    2.6209   -7.3707    2.1799 C   0  0  0  0  0  0  0  0  0  0  0  0
    2.9364   -8.7265    2.1659 C   0  0  0  0  0  0  0  0  0  0  0  0
    1.8457   -9.5908    2.3770 C   0  0  0  0  0  0  0  0  0  0  0  0
    0.5444   -9.0476    2.5758 C   0  0  0  0  0  0  0  0  0  0  0  0
    0.2897   -7.6499    2.4812 C   0  0  0  0  0  0  0  0  0  0  0  0
   -0.9799   -7.1628    2.5897 O   0  0  0  0  0  0  0  0  0  0  0  0
    1.3665   -6.7670    2.2430 C   0  0  0  0  0  0  0  0  0  0  0  0
    1.4067   -5.4132    1.9224 O   0  0  0  0  0  0  0  0  0  0  0  0
    2.6657   -5.4120    1.2489 C   0  0  1  0  0  0  0  0  0  0  0  0
    3.3516   -4.2561    0.6514 C   0  0  0  0  0  0  0  0  0  0  0  0
    3.0426   -2.9269    0.5241 N   0  0  0  0  0  0  0  0  0  0  0  0
    4.0627   -2.3144   -0.1789 C   0  0  0  0  0  0  0  0  0  0  0  0
    4.9917   -3.2748   -0.5025 C   0  0  0  0  0  0  0  0  0  0  0  0
    4.5344   -4.5224    0.0205 C   0  0  0  0  0  0  0  0  0  0  0  0
    5.1225   -5.9510    0.0303 C   0  0  0  0  0  0  0  0  0  0  0  0
    4.9816   -6.5052    1.4792 C   0  0  2  0  0  0  0  0  0  0  0  0
    5.4300   -7.8849    2.0195 C   0  0  2  0  0  0  0  0  0  0  0  0
    4.3953   -9.0299    1.7975 C   0  0  0  0  0  0  0  0  0  0  0  0
    2.2167   -2.4629    0.8727 H   0  0  0  0  0  0  0  0  0  0  0  0
    7.1615   -7.3593    4.8902 H   0  0  0  0  0  0  0  0  0  0  0  0
    7.1743   -6.2485    3.5106 H   0  0  0  0  0  0  0  0  0  0  0  0
    7.7314   -7.9238    3.3294 H   0  0  0  0  0  0  0  0  0  0  0  0
    3.8339   -7.7319    4.5224 H   0  0  0  0  0  0  0  0  0  0  0  0
    5.0133   -6.6768    5.2204 H   0  0  0  0  0  0  0  0  0  0  0  0
    3.0381   -5.5067    4.0739 H   0  0  0  0  0  0  0  0  0  0  0  0
    4.5816   -4.9429    3.5310 H   0  0  0  0  0  0  0  0  0  0  0  0
    2.0012  -10.6587    2.3692 H   0  0  0  0  0  0  0  0  0  0  0  0
   -0.2683   -9.7337    2.7571 H   0  0  0  0  0  0  0  0  0  0  0  0
   -1.5819   -7.8702    2.7783 H   0  0  0  0  0  0  0  0  0  0  0  0
    2.4334   -5.9663    0.3281 H   0  0  0  0  0  0  0  0  0  0  0  0
    4.0335   -1.2537   -0.3818 H   0  0  0  0  0  0  0  0  0  0  0  0
    5.9075   -3.0986   -1.0474 H   0  0  0  0  0  0  0  0  0  0  0  0
    4.5605   -6.5746   -0.6707 H   0  0  0  0  0  0  0  0  0  0  0  0
    6.1614   -5.9193   -0.2899 H   0  0  0  0  0  0  0  0  0  0  0  0
    5.6739   -5.7974    1.9330 H   0  0  0  0  0  0  0  0  0  0  0  0
    6.3724   -8.1852    1.5592 H   0  0  0  0  0  0  0  0  0  0  0  0
    4.7066   -9.9209    2.3419 H   0  0  0  0  0  0  0  0  0  0  0  0
    4.4104   -9.3033    0.7424 H   0  0  0  0  0  0  0  0  0  0  0  0
  1  2  1  0
  1 25  1  0
  1 26  1  0
  1 27  1  0
  2 22  1  0
  2  3  1  0
  3  4  1  0
  3 28  1  0
  3 29  1  0
  5  4  1  1
  4 30  1  0
  4 31  1  0
  5 14  1  0
  5 21  1  0
  5  6  1  0
  6 12  2  0
  6  7  1  0
  7 23  1  0
  7  8  2  0
  8  9  1  0
  8 32  1  0
  9 10  2  0
  9 33  1  0
 10 11  1  0
 10 12  1  0
 11 34  1  0
 12 13  1  0
 13 14  1  0
 14 15  1  0
 14 35  1  6
 15 19  2  0
 15 16  1  0
 16 24  1  0
 16 17  1  0
 17 18  2  0
 17 36  1  0
 18 19  1  0
 18 37  1  0
 19 20  1  0
 20 21  1  0
 20 38  1  0
 20 39  1  0
 21 22  1  0
 21 40  1  1
 22 23  1  0
 22 41  1  6
 23 42  1  0
 23 43  1  0
M  END
>  <i_m_ct_stereo_status>  (274) 
1

>  <s_m_source_file>  (274) 
/var/tmp/pbs.5076255.sched01/tmp1t990xkq/82z3oanzij.sdf

>  <i_m_source_file_index>  (274) 
36

>  <i_lp_mmshare_version>  (274) 
48012

>  <i_f3d_flags>  (274) 
0

>  <s_epik_input>  (274) 
W0NIMl0xW0NIMl1OKFtDSDNdKVtDQEBIXShbQ0gyXTIpW0NASF0zW0NIMl1jKFtjSF1bY0hdW25IXTQpYzRbQ0BASF01T2M2YyhbT0hdKVtjSF1bY0hdYzJjNltDQEBdMTM1

>  <s_epik_cmdline>  (274) 
J2VwaWtfcHl0aG9uJywgJy1waHQnLCAnMi4wJywgJy1waCcsICc3LjAnLCAnLXRuJywgJzgnLCAnLW1hJywgJzIwMCcsICctaW1hZScsICc8aW5maWxlLm1hZT4nLCAnLW9tYWUnLCAnPG91dGZpbGUubWFlPic=

>  <r_lp_tautomer_probability>  (274) 
1

>  <r_epik_Ionization_Penalty>  (274) 
1.61104

>  <r_epik_Ionization_Penalty_Charging>  (274) 
0

>  <r_epik_Ionization_Penalty_Neutral>  (274) 
1.61104

>  <r_epik_State_Penalty>  (274) 
1.71787

>  <r_epik_Charging_Adjusted_Penalty>  (274) 
1.71787

>  <i_epik_Tot_Q>  (274) 
0

>  <i_epik_Tot_abs_Q>  (274) 
0

>  <s_lp_Force_Field>  (274) 
OPLS3e

>  <r_lp_Energy>  (274) 
97.9301

>  <b_lp_Chiralities_Consistent>  (274) 
1

>  <s_lp_Variant>  (274) 
82:0-2

>  <s_i_glide_gridfile>  (274) 
pfpi4k_grid

>  <i_i_glide_lignum>  (274) 
36

>  <i_i_glide_rotatable_bonds>  (274) 
1

>  <r_i_docking_score>  (274) 
-3.26021

>  <r_i_glide_ligand_efficiency>  (274) 
-0.141748

>  <r_i_glide_ligand_efficiency_sa>  (274) 
-0.403113

>  <r_i_glide_ligand_efficiency_ln>  (274) 
-0.788348

>  <r_i_glide_gscore>  (274) 
-3.26021

>  <r_i_glide_lipo>  (274) 
-0.339743

>  <r_i_glide_hbond>  (274) 
-0.0814954

>  <r_i_glide_metal>  (274) 
-0

>  <r_i_glide_rewards>  (274) 
-1.30654

>  <r_i_glide_evdw>  (274) 
-20.2502

>  <r_i_glide_ecoul>  (274) 
-3.27946

>  <r_i_glide_erotb>  (274) 
0

>  <r_i_glide_esite>  (274) 
-0.0280032

>  <r_i_glide_emodel>  (274) 
-28.84

>  <r_i_glide_energy>  (274) 
-23.5296

>  <r_i_glide_einternal>  (274) 
0.000800205

>  <r_i_glide_intrahb_reward>  (274) 
-0

>  <i_i_glide_confnum>  (274) 
2

>  <i_i_glide_posenum>  (274) 
8

>  <r_i_glide_eff_state_penalty>  (274) 
0

>  <ligand_id>  (274) 
82

>  <original_smiles>  (274) 
CN1CCC23c4c5ccc(O)c4OC2c2[nH]ccc2CC3C1C5

>  <smiles>  (274) 
[H]Oc1c([H])c([H])c2c3c1OC1([H])c4c(c([H])c([H])n4[H])C([H])([H])C4([H])C([H])(N(C([H])([H])[H])C([H])([H])C([H])([H])C314)C2([H])[H]

$$$$
82:1:2
     RDKit          3D

 43 48  0  0  1  0  0  0  0  0999 V2000
    5.4023  -10.9593    3.4451 C   0  0  0  0  0  0  0  0  0  0  0  0
    5.6159   -9.6030    2.9579 N   0  0  0  0  0  0  0  0  0  0  0  0
    5.2993   -9.4932    1.5105 C   0  0  0  0  0  0  0  0  0  0  0  0
    3.8821   -8.9483    1.1733 C   0  0  0  0  0  0  0  0  0  0  0  0
    3.5988   -7.7352    2.0838 C   0  0  1  0  0  0  0  0  0  0  0  0
    4.5951   -6.6865    1.7496 C   0  0  0  0  0  0  0  0  0  0  0  0
    5.8011   -6.4857    2.4173 C   0  0  0  0  0  0  0  0  0  0  0  0
    6.6292   -5.4891    1.8676 C   0  0  0  0  0  0  0  0  0  0  0  0
    6.1946   -4.7878    0.7056 C   0  0  0  0  0  0  0  0  0  0  0  0
    4.9105   -4.9998    0.1307 C   0  0  0  0  0  0  0  0  0  0  0  0
    4.5220   -4.2748   -0.9577 O   0  0  0  0  0  0  0  0  0  0  0  0
    4.0334   -5.9625    0.6918 C   0  0  0  0  0  0  0  0  0  0  0  0
    2.6731   -6.2248    0.4962 O   0  0  0  0  0  0  0  0  0  0  0  0
    2.4245   -6.8270    1.7665 C   0  0  1  0  0  0  0  0  0  0  0  0
    1.1407   -7.3441    2.2563 C   0  0  0  0  0  0  0  0  0  0  0  0
   -0.1070   -7.4616    1.6994 N   0  0  0  0  0  0  0  0  0  0  0  0
   -0.9393   -8.0448    2.6400 C   0  0  0  0  0  0  0  0  0  0  0  0
   -0.2056   -8.2614    3.7805 C   0  0  0  0  0  0  0  0  0  0  0  0
    1.1280   -7.7998    3.5396 C   0  0  0  0  0  0  0  0  0  0  0  0
    2.4252   -7.8203    4.3873 C   0  0  0  0  0  0  0  0  0  0  0  0
    3.5751   -8.3602    3.4833 C   0  0  2  0  0  0  0  0  0  0  0  0
    5.0581   -8.5676    3.8615 C   0  0  2  0  0  0  0  0  0  0  0  0
    5.9405   -7.2946    3.7164 C   0  0  0  0  0  0  0  0  0  0  0  0
   -0.3389   -7.2674    0.7430 H   0  0  0  0  0  0  0  0  0  0  0  0
    5.9646  -11.6747    2.8407 H   0  0  0  0  0  0  0  0  0  0  0  0
    4.3509  -11.2511    3.4262 H   0  0  0  0  0  0  0  0  0  0  0  0
    5.7718  -11.0447    4.4684 H   0  0  0  0  0  0  0  0  0  0  0  0
    6.0285   -8.8182    1.0593 H   0  0  0  0  0  0  0  0  0  0  0  0
    5.4514  -10.4466    1.0062 H   0  0  0  0  0  0  0  0  0  0  0  0
    3.8334   -8.6852    0.1154 H   0  0  0  0  0  0  0  0  0  0  0  0
    3.1243   -9.7265    1.3015 H   0  0  0  0  0  0  0  0  0  0  0  0
    7.5808   -5.2667    2.3224 H   0  0  0  0  0  0  0  0  0  0  0  0
    6.8537   -4.0546    0.2655 H   0  0  0  0  0  0  0  0  0  0  0  0
    3.8024   -4.6904   -1.4177 H   0  0  0  0  0  0  0  0  0  0  0  0
    2.4970   -5.9519    2.4276 H   0  0  0  0  0  0  0  0  0  0  0  0
   -1.9665   -8.2891    2.4049 H   0  0  0  0  0  0  0  0  0  0  0  0
   -0.5816   -8.7375    4.6776 H   0  0  0  0  0  0  0  0  0  0  0  0
    2.6450   -6.7991    4.7005 H   0  0  0  0  0  0  0  0  0  0  0  0
    2.2991   -8.4253    5.2865 H   0  0  0  0  0  0  0  0  0  0  0  0
    3.1762   -9.3683    3.3883 H   0  0  0  0  0  0  0  0  0  0  0  0
    5.1502   -8.9245    4.8868 H   0  0  0  0  0  0  0  0  0  0  0  0
    6.9896   -7.5498    3.8446 H   0  0  0  0  0  0  0  0  0  0  0  0
    5.6995   -6.6216    4.5350 H   0  0  0  0  0  0  0  0  0  0  0  0
  1  2  1  0
  1 25  1  0
  1 26  1  0
  1 27  1  0
  2 22  1  0
  2  3  1  0
  3  4  1  0
  3 28  1  0
  3 29  1  0
  5  4  1  6
  4 30  1  0
  4 31  1  0
  5 14  1  0
  5 21  1  0
  5  6  1  0
  6 12  2  0
  6  7  1  0
  7 23  1  0
  7  8  2  0
  8  9  1  0
  8 32  1  0
  9 10  2  0
  9 33  1  0
 10 11  1  0
 10 12  1  0
 11 34  1  0
 12 13  1  0
 13 14  1  0
 14 15  1  0
 14 35  1  1
 15 19  2  0
 15 16  1  0
 16 24  1  0
 16 17  1  0
 17 18  2  0
 17 36  1  0
 18 19  1  0
 18 37  1  0
 19 20  1  0
 20 21  1  0
 20 38  1  0
 20 39  1  0
 21 22  1  0
 21 40  1  6
 22 23  1  0
 22 41  1  1
 23 42  1  0
 23 43  1  0
M  END
>  <i_m_ct_stereo_status>  (275) 
1

>  <s_m_source_file>  (275) 
/var/tmp/pbs.5076255.sched01/tmp1t990xkq/82z3oanzij.sdf

>  <i_m_source_file_index>  (275) 
36

>  <i_lp_mmshare_version>  (275) 
48012

>  <i_f3d_flags>  (275) 
0

>  <s_epik_input>  (275) 
W0NIMl0xW0NIMl1OKFtDSDNdKVtDQEBIXShbQ0gyXTIpW0NASF0zW0NIMl1jKFtjSF1bY0hdW25IXTQpYzRbQ0BASF01T2M2YyhbT0hdKVtjSF1bY0hdYzJjNltDQEBdMTM1

>  <s_epik_cmdline>  (275) 
J2VwaWtfcHl0aG9uJywgJy1waHQnLCAnMi4wJywgJy1waCcsICc3LjAnLCAnLXRuJywgJzgnLCAnLW1hJywgJzIwMCcsICctaW1hZScsICc8aW5maWxlLm1hZT4nLCAnLW9tYWUnLCAnPG91dGZpbGUubWFlPic=

>  <r_lp_tautomer_probability>  (275) 
1

>  <r_epik_Ionization_Penalty>  (275) 
1.61104

>  <r_epik_Ionization_Penalty_Charging>  (275) 
0

>  <r_epik_Ionization_Penalty_Neutral>  (275) 
1.61104

>  <r_epik_State_Penalty>  (275) 
1.71787

>  <r_epik_Charging_Adjusted_Penalty>  (275) 
1.71787

>  <i_epik_Tot_Q>  (275) 
0

>  <i_epik_Tot_abs_Q>  (275) 
0

>  <s_lp_Force_Field>  (275) 
OPLS3e

>  <r_lp_Energy>  (275) 
97.9301

>  <b_lp_Chiralities_Consistent>  (275) 
1

>  <s_lp_Variant>  (275) 
82:0-2

>  <s_i_glide_gridfile>  (275) 
pfpi4k_grid

>  <i_i_glide_lignum>  (275) 
36

>  <i_i_glide_rotatable_bonds>  (275) 
1

>  <r_i_docking_score>  (275) 
-3.21053

>  <r_i_glide_ligand_efficiency>  (275) 
-0.139588

>  <r_i_glide_ligand_efficiency_sa>  (275) 
-0.39697

>  <r_i_glide_ligand_efficiency_ln>  (275) 
-0.776335

>  <r_i_glide_gscore>  (275) 
-3.21053

>  <r_i_glide_lipo>  (275) 
-0.350382

>  <r_i_glide_hbond>  (275) 
0

>  <r_i_glide_metal>  (275) 
-0

>  <r_i_glide_rewards>  (275) 
-1.30654

>  <r_i_glide_evdw>  (275) 
-21.3157

>  <r_i_glide_ecoul>  (275) 
-2.68839

>  <r_i_glide_erotb>  (275) 
0

>  <r_i_glide_esite>  (275) 
-0.084567

>  <r_i_glide_emodel>  (275) 
-28.8436

>  <r_i_glide_energy>  (275) 
-24.0041

>  <r_i_glide_einternal>  (275) 
0.47677

>  <r_i_glide_intrahb_reward>  (275) 
-0

>  <i_i_glide_confnum>  (275) 
1

>  <i_i_glide_posenum>  (275) 
24

>  <r_i_glide_eff_state_penalty>  (275) 
0

>  <ligand_id>  (275) 
82

>  <original_smiles>  (275) 
CN1CCC23c4c5ccc(O)c4OC2c2[nH]ccc2CC3C1C5

>  <smiles>  (275) 
[H]Oc1c([H])c([H])c2c3c1OC1([H])c4c(c([H])c([H])n4[H])C([H])([H])C4([H])C([H])(N(C([H])([H])[H])C([H])([H])C([H])([H])C314)C2([H])[H]

$$$$
82:2:0
     RDKit          3D

 43 48  0  0  1  0  0  0  0  0999 V2000
    3.3007  -10.4652    7.1884 C   0  0  0  0  0  0  0  0  0  0  0  0
    2.3638  -10.1396    6.0920 N   0  0  1  0  0  0  0  0  0  0  0  0
    2.1281   -8.6559    6.0090 C   0  0  0  0  0  0  0  0  0  0  0  0
    3.0335   -7.9176    4.9848 C   0  0  0  0  0  0  0  0  0  0  0  0
    3.0382   -8.7263    3.6669 C   0  0  1  0  0  0  0  0  0  0  0  0
    1.6400   -8.7695    3.1872 C   0  0  0  0  0  0  0  0  0  0  0  0
    0.7320   -9.7972    3.4261 C   0  0  0  0  0  0  0  0  0  0  0  0
   -0.5878   -9.5326    3.0132 C   0  0  0  0  0  0  0  0  0  0  0  0
   -0.8737   -8.2911    2.3803 C   0  0  0  0  0  0  0  0  0  0  0  0
    0.1395   -7.3640    2.0546 C   0  0  0  0  0  0  0  0  0  0  0  0
   -0.1788   -6.3047    1.2768 O   0  0  0  0  0  0  0  0  0  0  0  0
    1.4711   -7.5931    2.4582 C   0  0  0  0  0  0  0  0  0  0  0  0
    2.6726   -6.9504    2.1753 O   0  0  0  0  0  0  0  0  0  0  0  0
    3.5390   -8.0610    2.4032 C   0  0  1  0  0  0  0  0  0  0  0  0
    5.0017   -8.0651    2.3213 C   0  0  0  0  0  0  0  0  0  0  0  0
    5.9304   -7.1088    1.9998 N   0  0  0  0  0  0  0  0  0  0  0  0
    7.1822   -7.6976    2.0649 C   0  0  0  0  0  0  0  0  0  0  0  0
    7.0059   -9.0133    2.4172 C   0  0  0  0  0  0  0  0  0  0  0  0
    5.6096   -9.2563    2.5643 C   0  0  0  0  0  0  0  0  0  0  0  0
    4.7793  -10.4954    2.9746 C   0  0  0  0  0  0  0  0  0  0  0  0
    3.7494  -10.0254    4.0488 C   0  0  2  0  0  0  0  0  0  0  0  0
    2.6806  -10.8530    4.8031 C   0  0  2  0  0  0  0  0  0  0  0  0
    1.3725  -11.0722    3.9930 C   0  0  0  0  0  0  0  0  0  0  0  0
    5.7315   -6.1496    1.7647 H   0  0  0  0  0  0  0  0  0  0  0  0
    4.2769  -10.0082    7.0316 H   0  0  0  0  0  0  0  0  0  0  0  0
    3.4248  -11.5428    7.2886 H   0  0  0  0  0  0  0  0  0  0  0  0
    2.9111  -10.0975    8.1392 H   0  0  0  0  0  0  0  0  0  0  0  0
    1.0856   -8.4752    5.7497 H   0  0  0  0  0  0  0  0  0  0  0  0
    2.2388   -8.1882    6.9867 H   0  0  0  0  0  0  0  0  0  0  0  0
    2.6726   -6.8977    4.8349 H   0  0  0  0  0  0  0  0  0  0  0  0
    4.0433   -7.7996    5.3831 H   0  0  0  0  0  0  0  0  0  0  0  0
   -1.3753  -10.2515    3.1572 H   0  0  0  0  0  0  0  0  0  0  0  0
   -1.8870   -8.1107    2.0803 H   0  0  0  0  0  0  0  0  0  0  0  0
    3.3053   -8.7036    1.5450 H   0  0  0  0  0  0  0  0  0  0  0  0
    8.0840   -7.1337    1.8637 H   0  0  0  0  0  0  0  0  0  0  0  0
    7.8018   -9.7234    2.5659 H   0  0  0  0  0  0  0  0  0  0  0  0
    4.2569  -10.8682    2.0932 H   0  0  0  0  0  0  0  0  0  0  0  0
    5.4200  -11.2940    3.3436 H   0  0  0  0  0  0  0  0  0  0  0  0
    4.4877   -9.7933    4.8139 H   0  0  0  0  0  0  0  0  0  0  0  0
    3.0718  -11.8373    5.0458 H   0  0  0  0  0  0  0  0  0  0  0  0
    0.6221  -11.5907    4.5887 H   0  0  0  0  0  0  0  0  0  0  0  0
    1.5943  -11.7189    3.1430 H   0  0  0  0  0  0  0  0  0  0  0  0
    1.5000  -10.5515    6.4148 H   0  0  0  0  0  0  0  0  0  0  0  0
  1  2  1  0
  1 25  1  0
  1 26  1  0
  1 27  1  0
  2 22  1  0
  2  3  1  0
  2 43  1  1
  3  4  1  0
  3 28  1  0
  3 29  1  0
  5  4  1  1
  4 30  1  0
  4 31  1  0
  5 14  1  0
  5 21  1  0
  5  6  1  0
  6 12  2  0
  6  7  1  0
  7 23  1  0
  7  8  2  0
  8  9  1  0
  8 32  1  0
  9 10  2  0
  9 33  1  0
 10 11  1  0
 10 12  1  0
 12 13  1  0
 13 14  1  0
 14 15  1  0
 14 34  1  6
 15 19  2  0
 15 16  1  0
 16 24  1  0
 16 17  1  0
 17 18  2  0
 17 35  1  0
 18 19  1  0
 18 36  1  0
 19 20  1  0
 20 21  1  0
 20 37  1  0
 20 38  1  0
 21 22  1  0
 21 39  1  1
 22 23  1  0
 22 40  1  1
 23 41  1  0
 23 42  1  0
M  CHG  2   2   1  11  -1
M  END
>  <i_m_ct_stereo_status>  (276) 
1

>  <s_m_source_file>  (276) 
/var/tmp/pbs.5076255.sched01/tmp1t990xkq/82z3oanzij.sdf

>  <i_m_source_file_index>  (276) 
37

>  <i_lp_mmshare_version>  (276) 
48012

>  <i_f3d_flags>  (276) 
0

>  <s_epik_input>  (276) 
W0NIMl0xW0NIMl1OKFtDSDNdKVtDQEBIXShbQ0gyXTIpW0NASF0zW0NIMl1jKFtjSF1bY0hdW25IXTQpYzRbQ0BASF01T2M2YyhbT0hdKVtjSF1bY0hdYzJjNltDQEBdMTM1

>  <s_epik_cmdline>  (276) 
J2VwaWtfcHl0aG9uJywgJy1waHQnLCAnMi4wJywgJy1waCcsICc3LjAnLCAnLXRuJywgJzgnLCAnLW1hJywgJzIwMCcsICctaW1hZScsICc8aW5maWxlLm1hZT4nLCAnLW9tYWUnLCAnPG91dGZpbGUubWFlPic=

>  <r_epik_Ionization_Penalty>  (276) 
2.25743

>  <r_epik_Ionization_Penalty_Charging>  (276) 
2.25743

>  <r_epik_Ionization_Penalty_Neutral>  (276) 
3.37575e-09

>  <r_epik_State_Penalty>  (276) 
2.39953

>  <r_epik_Charging_Adjusted_Penalty>  (276) 
4.65695

>  <i_epik_Tot_Q>  (276) 
0

>  <i_epik_Tot_abs_Q>  (276) 
2

>  <s_lp_Force_Field>  (276) 
OPLS3e

>  <r_lp_Energy>  (276) 
97.5934

>  <b_lp_Chiralities_Consistent>  (276) 
1

>  <s_lp_Variant>  (276) 
82:0-3

>  <s_i_glide_gridfile>  (276) 
pfpi4k_grid

>  <i_i_glide_lignum>  (276) 
37

>  <i_i_glide_rotatable_bonds>  (276) 
0

>  <r_i_docking_score>  (276) 
-4.5691

>  <r_i_glide_ligand_efficiency>  (276) 
-0.198657

>  <r_i_glide_ligand_efficiency_sa>  (276) 
-0.564953

>  <r_i_glide_ligand_efficiency_ln>  (276) 
-1.10485

>  <r_i_glide_gscore>  (276) 
-4.5691

>  <r_i_glide_lipo>  (276) 
-0.239842

>  <r_i_glide_hbond>  (276) 
-0.43941

>  <r_i_glide_metal>  (276) 
-0

>  <r_i_glide_rewards>  (276) 
-1.94053

>  <r_i_glide_evdw>  (276) 
-17.2633

>  <r_i_glide_ecoul>  (276) 
-6.64706

>  <r_i_glide_erotb>  (276) 
0

>  <r_i_glide_esite>  (276) 
-0.0890982

>  <r_i_glide_emodel>  (276) 
-38.1928

>  <r_i_glide_energy>  (276) 
-23.9104

>  <r_i_glide_einternal>  (276) 
0

>  <r_i_glide_intrahb_reward>  (276) 
-0

>  <i_i_glide_confnum>  (276) 
2

>  <i_i_glide_posenum>  (276) 
17

>  <r_i_glide_eff_state_penalty>  (276) 
0

>  <ligand_id>  (276) 
82

>  <original_smiles>  (276) 
CN1CCC23c4c5ccc(O)c4OC2c2[nH]ccc2CC3C1C5

>  <smiles>  (276) 
[H]c1c([H])c2c3c(c1[O-])OC1([H])c4c(c([H])c([H])n4[H])C([H])([H])C4([H])C31C([H])([H])C([H])([H])[N+]([H])(C([H])([H])[H])C4([H])C2([H])[H]

$$$$
82:2:1
     RDKit          3D

 43 48  0  0  1  0  0  0  0  0999 V2000
    3.9059  -12.5867    5.6253 C   0  0  0  0  0  0  0  0  0  0  0  0
    3.0438  -11.4487    6.0088 N   0  0  1  0  0  0  0  0  0  0  0  0
    3.8053  -10.4404    6.8205 C   0  0  0  0  0  0  0  0  0  0  0  0
    4.3781   -9.2545    5.9951 C   0  0  0  0  0  0  0  0  0  0  0  0
    3.2739   -8.7335    5.0459 C   0  0  1  0  0  0  0  0  0  0  0  0
    2.1570   -8.2741    5.8981 C   0  0  0  0  0  0  0  0  0  0  0  0
    1.0496   -9.0342    6.2562 C   0  0  0  0  0  0  0  0  0  0  0  0
    0.2190   -8.4518    7.2171 C   0  0  0  0  0  0  0  0  0  0  0  0
    0.5272   -7.1587    7.7218 C   0  0  0  0  0  0  0  0  0  0  0  0
    1.6288   -6.3973    7.2294 C   0  0  0  0  0  0  0  0  0  0  0  0
    1.8390   -5.1300    7.6944 O   0  0  0  0  0  0  0  0  0  0  0  0
    2.4737   -6.9588    6.2440 C   0  0  0  0  0  0  0  0  0  0  0  0
    3.5112   -6.4311    5.4746 O   0  0  0  0  0  0  0  0  0  0  0  0
    3.4409   -7.3766    4.4018 C   0  0  1  0  0  0  0  0  0  0  0  0
    4.3116   -7.4434    3.2273 C   0  0  0  0  0  0  0  0  0  0  0  0
    5.3568   -6.6716    2.7941 N   0  0  0  0  0  0  0  0  0  0  0  0
    5.7928   -7.1847    1.5858 C   0  0  0  0  0  0  0  0  0  0  0  0
    4.9954   -8.2620    1.2747 C   0  0  0  0  0  0  0  0  0  0  0  0
    4.0382   -8.4246    2.3198 C   0  0  0  0  0  0  0  0  0  0  0  0
    2.9129   -9.4518    2.5893 C   0  0  0  0  0  0  0  0  0  0  0  0
    3.0553   -9.9020    4.0782 C   0  0  2  0  0  0  0  0  0  0  0  0
    2.2015  -10.9220    4.8734 C   0  0  2  0  0  0  0  0  0  0  0  0
    0.8815  -10.3166    5.4364 C   0  0  0  0  0  0  0  0  0  0  0  0
    5.7388   -5.8718    3.2773 H   0  0  0  0  0  0  0  0  0  0  0  0
    4.7371  -12.2576    4.9956 H   0  0  0  0  0  0  0  0  0  0  0  0
    3.3455  -13.3506    5.0846 H   0  0  0  0  0  0  0  0  0  0  0  0
    4.3298  -13.0621    6.5144 H   0  0  0  0  0  0  0  0  0  0  0  0
    3.1472  -10.0503    7.5976 H   0  0  0  0  0  0  0  0  0  0  0  0
    4.6122  -10.9202    7.3788 H   0  0  0  0  0  0  0  0  0  0  0  0
    4.7368   -8.4733    6.6682 H   0  0  0  0  0  0  0  0  0  0  0  0
    5.2617   -9.5744    5.4392 H   0  0  0  0  0  0  0  0  0  0  0  0
   -0.6647   -8.9828    7.5353 H   0  0  0  0  0  0  0  0  0  0  0  0
   -0.1210   -6.7234    8.4536 H   0  0  0  0  0  0  0  0  0  0  0  0
    2.4976   -7.1008    3.9124 H   0  0  0  0  0  0  0  0  0  0  0  0
    6.6282   -6.7420    1.0625 H   0  0  0  0  0  0  0  0  0  0  0  0
    5.0976   -8.8789    0.3965 H   0  0  0  0  0  0  0  0  0  0  0  0
    1.9469   -8.9668    2.4348 H   0  0  0  0  0  0  0  0  0  0  0  0
    2.9749  -10.2919    1.8966 H   0  0  0  0  0  0  0  0  0  0  0  0
    4.0064  -10.4143    3.9441 H   0  0  0  0  0  0  0  0  0  0  0  0
    1.9302  -11.7638    4.2299 H   0  0  0  0  0  0  0  0  0  0  0  0
    0.3425  -11.0523    6.0370 H   0  0  0  0  0  0  0  0  0  0  0  0
    0.2209  -10.0943    4.5944 H   0  0  0  0  0  0  0  0  0  0  0  0
    2.3714  -11.8564    6.6766 H   0  0  0  0  0  0  0  0  0  0  0  0
  1  2  1  0
  1 25  1  0
  1 26  1  0
  1 27  1  0
  2 22  1  0
  2  3  1  0
  2 43  1  1
  3  4  1  0
  3 28  1  0
  3 29  1  0
  5  4  1  1
  4 30  1  0
  4 31  1  0
  5 14  1  0
  5 21  1  0
  5  6  1  0
  6 12  2  0
  6  7  1  0
  7 23  1  0
  7  8  2  0
  8  9  1  0
  8 32  1  0
  9 10  2  0
  9 33  1  0
 10 11  1  0
 10 12  1  0
 12 13  1  0
 13 14  1  0
 14 15  1  0
 14 34  1  6
 15 19  2  0
 15 16  1  0
 16 24  1  0
 16 17  1  0
 17 18  2  0
 17 35  1  0
 18 19  1  0
 18 36  1  0
 19 20  1  0
 20 21  1  0
 20 37  1  0
 20 38  1  0
 21 22  1  0
 21 39  1  6
 22 23  1  0
 22 40  1  6
 23 41  1  0
 23 42  1  0
M  CHG  2   2   1  11  -1
M  END
>  <i_m_ct_stereo_status>  (277) 
1

>  <s_m_source_file>  (277) 
/var/tmp/pbs.5076255.sched01/tmp1t990xkq/82z3oanzij.sdf

>  <i_m_source_file_index>  (277) 
37

>  <i_lp_mmshare_version>  (277) 
48012

>  <i_f3d_flags>  (277) 
0

>  <s_epik_input>  (277) 
W0NIMl0xW0NIMl1OKFtDSDNdKVtDQEBIXShbQ0gyXTIpW0NASF0zW0NIMl1jKFtjSF1bY0hdW25IXTQpYzRbQ0BASF01T2M2YyhbT0hdKVtjSF1bY0hdYzJjNltDQEBdMTM1

>  <s_epik_cmdline>  (277) 
J2VwaWtfcHl0aG9uJywgJy1waHQnLCAnMi4wJywgJy1waCcsICc3LjAnLCAnLXRuJywgJzgnLCAnLW1hJywgJzIwMCcsICctaW1hZScsICc8aW5maWxlLm1hZT4nLCAnLW9tYWUnLCAnPG91dGZpbGUubWFlPic=

>  <r_epik_Ionization_Penalty>  (277) 
2.25743

>  <r_epik_Ionization_Penalty_Charging>  (277) 
2.25743

>  <r_epik_Ionization_Penalty_Neutral>  (277) 
3.37575e-09

>  <r_epik_State_Penalty>  (277) 
2.39953

>  <r_epik_Charging_Adjusted_Penalty>  (277) 
4.65695

>  <i_epik_Tot_Q>  (277) 
0

>  <i_epik_Tot_abs_Q>  (277) 
2

>  <s_lp_Force_Field>  (277) 
OPLS3e

>  <r_lp_Energy>  (277) 
97.5934

>  <b_lp_Chiralities_Consistent>  (277) 
1

>  <s_lp_Variant>  (277) 
82:0-3

>  <s_i_glide_gridfile>  (277) 
pfpi4k_grid

>  <i_i_glide_lignum>  (277) 
37

>  <i_i_glide_rotatable_bonds>  (277) 
0

>  <r_i_docking_score>  (277) 
-3.90773

>  <r_i_glide_ligand_efficiency>  (277) 
-0.169901

>  <r_i_glide_ligand_efficiency_sa>  (277) 
-0.483177

>  <r_i_glide_ligand_efficiency_ln>  (277) 
-0.944925

>  <r_i_glide_gscore>  (277) 
-3.90773

>  <r_i_glide_lipo>  (277) 
-0.133285

>  <r_i_glide_hbond>  (277) 
-0.186212

>  <r_i_glide_metal>  (277) 
-0

>  <r_i_glide_rewards>  (277) 
-1.83654

>  <r_i_glide_evdw>  (277) 
-12.9252

>  <r_i_glide_ecoul>  (277) 
-6.70289

>  <r_i_glide_erotb>  (277) 
0

>  <r_i_glide_esite>  (277) 
-0.1

>  <r_i_glide_emodel>  (277) 
-31.8349

>  <r_i_glide_energy>  (277) 
-19.6281

>  <r_i_glide_einternal>  (277) 
0

>  <r_i_glide_intrahb_reward>  (277) 
-0

>  <i_i_glide_confnum>  (277) 
1

>  <i_i_glide_posenum>  (277) 
3

>  <r_i_glide_eff_state_penalty>  (277) 
0

>  <ligand_id>  (277) 
82

>  <original_smiles>  (277) 
CN1CCC23c4c5ccc(O)c4OC2c2[nH]ccc2CC3C1C5

>  <smiles>  (277) 
[H]c1c([H])c2c3c(c1[O-])OC1([H])c4c(c([H])c([H])n4[H])C([H])([H])C4([H])C31C([H])([H])C([H])([H])[N+]([H])(C([H])([H])[H])C4([H])C2([H])[H]

$$$$
82:2:2
     RDKit          3D

 43 48  0  0  1  0  0  0  0  0999 V2000
    3.1467  -12.4716    4.9086 C   0  0  0  0  0  0  0  0  0  0  0  0
    3.8604  -11.2529    4.4938 N   0  0  1  0  0  0  0  0  0  0  0  0
    3.8904  -11.1187    3.0023 C   0  0  0  0  0  0  0  0  0  0  0  0
    2.7750  -10.2148    2.4196 C   0  0  0  0  0  0  0  0  0  0  0  0
    2.6979   -8.9217    3.2570 C   0  0  1  0  0  0  0  0  0  0  0  0
    4.0081   -8.2485    3.1329 C   0  0  0  0  0  0  0  0  0  0  0  0
    5.0680   -8.3731    4.0423 C   0  0  0  0  0  0  0  0  0  0  0  0
    6.2674   -7.7597    3.6383 C   0  0  0  0  0  0  0  0  0  0  0  0
    6.3063   -7.0858    2.3871 C   0  0  0  0  0  0  0  0  0  0  0  0
    5.1445   -6.9146    1.5655 C   0  0  0  0  0  0  0  0  0  0  0  0
    5.2165   -6.1626    0.4283 O   0  0  0  0  0  0  0  0  0  0  0  0
    3.9154   -7.4968    1.9680 C   0  0  0  0  0  0  0  0  0  0  0  0
    2.6018   -7.3704    1.4842 O   0  0  0  0  0  0  0  0  0  0  0  0
    1.9398   -7.7422    2.6889 C   0  0  1  0  0  0  0  0  0  0  0  0
    0.4956   -7.8467    2.8841 C   0  0  0  0  0  0  0  0  0  0  0  0
   -0.5810   -7.6529    2.0728 N   0  0  0  0  0  0  0  0  0  0  0  0
   -1.7277   -7.8986    2.8026 C   0  0  0  0  0  0  0  0  0  0  0  0
   -1.3435   -8.2311    4.0804 C   0  0  0  0  0  0  0  0  0  0  0  0
    0.0787   -8.1847    4.1431 C   0  0  0  0  0  0  0  0  0  0  0  0
    1.1095   -8.5086    5.2480 C   0  0  0  0  0  0  0  0  0  0  0  0
    2.2114   -9.4188    4.6170 C   0  0  2  0  0  0  0  0  0  0  0  0
    3.4657  -10.0316    5.2778 C   0  0  2  0  0  0  0  0  0  0  0  0
    4.6659   -9.0429    5.3525 C   0  0  0  0  0  0  0  0  0  0  0  0
   -0.5312   -7.4522    1.0821 H   0  0  0  0  0  0  0  0  0  0  0  0
    2.1049  -12.4466    4.5972 H   0  0  0  0  0  0  0  0  0  0  0  0
    3.1810  -12.5991    5.9864 H   0  0  0  0  0  0  0  0  0  0  0  0
    3.6047  -13.3550    4.4675 H   0  0  0  0  0  0  0  0  0  0  0  0
    4.8529  -10.7173    2.6948 H   0  0  0  0  0  0  0  0  0  0  0  0
    3.8562  -12.0932    2.5207 H   0  0  0  0  0  0  0  0  0  0  0  0
    2.9736  -10.0136    1.3622 H   0  0  0  0  0  0  0  0  0  0  0  0
    1.8188  -10.7420    2.4337 H   0  0  0  0  0  0  0  0  0  0  0  0
    7.1387   -7.8027    4.2786 H   0  0  0  0  0  0  0  0  0  0  0  0
    7.2364   -6.6442    2.0680 H   0  0  0  0  0  0  0  0  0  0  0  0
    2.1392   -6.8729    3.3248 H   0  0  0  0  0  0  0  0  0  0  0  0
   -2.7004   -7.8524    2.3445 H   0  0  0  0  0  0  0  0  0  0  0  0
   -2.0222   -8.5203    4.8672 H   0  0  0  0  0  0  0  0  0  0  0  0
    1.5464   -7.5702    5.5899 H   0  0  0  0  0  0  0  0  0  0  0  0
    0.6247   -8.9811    6.1048 H   0  0  0  0  0  0  0  0  0  0  0  0
    1.5561  -10.2729    4.4577 H   0  0  0  0  0  0  0  0  0  0  0  0
    3.2300  -10.3346    6.2952 H   0  0  0  0  0  0  0  0  0  0  0  0
    5.5430   -9.5338    5.7685 H   0  0  0  0  0  0  0  0  0  0  0  0
    4.4107   -8.2467    6.0549 H   0  0  0  0  0  0  0  0  0  0  0  0
    4.8137  -11.4361    4.7485 H   0  0  0  0  0  0  0  0  0  0  0  0
  1  2  1  0
  1 25  1  0
  1 26  1  0
  1 27  1  0
  2 22  1  0
  2  3  1  0
  2 43  1  1
  3  4  1  0
  3 28  1  0
  3 29  1  0
  5  4  1  6
  4 30  1  0
  4 31  1  0
  5 14  1  0
  5 21  1  0
  5  6  1  0
  6 12  2  0
  6  7  1  0
  7 23  1  0
  7  8  2  0
  8  9  1  0
  8 32  1  0
  9 10  2  0
  9 33  1  0
 10 11  1  0
 10 12  1  0
 12 13  1  0
 13 14  1  0
 14 15  1  0
 14 34  1  1
 15 19  2  0
 15 16  1  0
 16 24  1  0
 16 17  1  0
 17 18  2  0
 17 35  1  0
 18 19  1  0
 18 36  1  0
 19 20  1  0
 20 21  1  0
 20 37  1  0
 20 38  1  0
 21 22  1  0
 21 39  1  6
 22 23  1  0
 22 40  1  1
 23 41  1  0
 23 42  1  0
M  CHG  2   2   1  11  -1
M  END
>  <i_m_ct_stereo_status>  (278) 
1

>  <s_m_source_file>  (278) 
/var/tmp/pbs.5076255.sched01/tmp1t990xkq/82z3oanzij.sdf

>  <i_m_source_file_index>  (278) 
37

>  <i_lp_mmshare_version>  (278) 
48012

>  <i_f3d_flags>  (278) 
0

>  <s_epik_input>  (278) 
W0NIMl0xW0NIMl1OKFtDSDNdKVtDQEBIXShbQ0gyXTIpW0NASF0zW0NIMl1jKFtjSF1bY0hdW25IXTQpYzRbQ0BASF01T2M2YyhbT0hdKVtjSF1bY0hdYzJjNltDQEBdMTM1

>  <s_epik_cmdline>  (278) 
J2VwaWtfcHl0aG9uJywgJy1waHQnLCAnMi4wJywgJy1waCcsICc3LjAnLCAnLXRuJywgJzgnLCAnLW1hJywgJzIwMCcsICctaW1hZScsICc8aW5maWxlLm1hZT4nLCAnLW9tYWUnLCAnPG91dGZpbGUubWFlPic=

>  <r_epik_Ionization_Penalty>  (278) 
2.25743

>  <r_epik_Ionization_Penalty_Charging>  (278) 
2.25743

>  <r_epik_Ionization_Penalty_Neutral>  (278) 
3.37575e-09

>  <r_epik_State_Penalty>  (278) 
2.39953

>  <r_epik_Charging_Adjusted_Penalty>  (278) 
4.65695

>  <i_epik_Tot_Q>  (278) 
0

>  <i_epik_Tot_abs_Q>  (278) 
2

>  <s_lp_Force_Field>  (278) 
OPLS3e

>  <r_lp_Energy>  (278) 
97.5934

>  <b_lp_Chiralities_Consistent>  (278) 
1

>  <s_lp_Variant>  (278) 
82:0-3

>  <s_i_glide_gridfile>  (278) 
pfpi4k_grid

>  <i_i_glide_lignum>  (278) 
37

>  <i_i_glide_rotatable_bonds>  (278) 
0

>  <r_i_docking_score>  (278) 
-2.93901

>  <r_i_glide_ligand_efficiency>  (278) 
-0.127783

>  <r_i_glide_ligand_efficiency_sa>  (278) 
-0.363398

>  <r_i_glide_ligand_efficiency_ln>  (278) 
-0.710679

>  <r_i_glide_gscore>  (278) 
-2.93901

>  <r_i_glide_lipo>  (278) 
-0.122096

>  <r_i_glide_hbond>  (278) 
0

>  <r_i_glide_metal>  (278) 
-0

>  <r_i_glide_rewards>  (278) 
-1.30654

>  <r_i_glide_evdw>  (278) 
-18.9496

>  <r_i_glide_ecoul>  (278) 
-3.11763

>  <r_i_glide_erotb>  (278) 
0

>  <r_i_glide_esite>  (278) 
-0.0952512

>  <r_i_glide_emodel>  (278) 
-31.0935

>  <r_i_glide_energy>  (278) 
-22.0672

>  <r_i_glide_einternal>  (278) 
0

>  <r_i_glide_intrahb_reward>  (278) 
-0

>  <i_i_glide_confnum>  (278) 
1

>  <i_i_glide_posenum>  (278) 
4

>  <r_i_glide_eff_state_penalty>  (278) 
0

>  <ligand_id>  (278) 
82

>  <original_smiles>  (278) 
CN1CCC23c4c5ccc(O)c4OC2c2[nH]ccc2CC3C1C5

>  <smiles>  (278) 
[H]c1c([H])c2c3c(c1[O-])OC1([H])c4c(c([H])c([H])n4[H])C([H])([H])C4([H])C31C([H])([H])C([H])([H])[N+]([H])(C([H])([H])[H])C4([H])C2([H])[H]

$$$$
85:0:0
     RDKit          3D

 69 73  0  0  1  0  0  0  0  0999 V2000
    2.9845   -1.2138    3.9368 C   0  0  0  0  0  0  0  0  0  0  0  0
    3.5032   -2.2347    3.2243 C   0  0  0  0  0  0  0  0  0  0  0  0
    2.8330   -3.6163    3.0857 C   0  0  1  0  0  0  0  0  0  0  0  0
    3.3780   -4.3698    1.8083 C   0  0  1  0  0  0  0  0  0  0  0  0
    2.7519   -5.7508    1.5878 C   0  0  0  0  0  0  0  0  0  0  0  0
    2.4554   -6.1760    0.4635 O   0  0  0  0  0  0  0  0  0  0  0  0
    2.4973   -6.5910    2.8471 C   0  0  0  0  0  0  0  0  0  0  0  0
    2.6959   -7.8056    2.8544 O   0  0  0  0  0  0  0  0  0  0  0  0
    2.0000   -5.8077    4.0712 C   0  0  1  0  0  0  0  0  0  0  0  0
    1.7523   -6.6746    5.3311 C   0  0  2  0  0  0  0  0  0  0  0  0
    0.9532   -7.9945    5.2722 C   0  0  0  0  0  0  0  0  0  0  0  0
    0.6019   -8.3064    6.7390 C   0  0  0  0  0  0  0  0  0  0  0  0
    0.8324   -6.9745    7.4459 C   0  0  0  0  0  0  0  0  0  0  0  0
    0.7887   -6.8116    8.6651 O   0  0  0  0  0  0  0  0  0  0  0  0
    1.0506   -5.8629    6.4286 C   0  0  2  0  0  0  0  0  0  0  0  0
   -0.3580   -5.3292    6.0572 C   0  0  0  0  0  0  0  0  0  0  0  0
    1.9745   -4.7044    6.8395 C   0  0  0  0  0  0  0  0  0  0  0  0
    2.2724   -3.8055    5.6125 C   0  0  0  0  0  0  0  0  0  0  0  0
    2.8803   -4.5350    4.3718 C   0  0  2  0  0  0  0  0  0  0  0  0
    4.3549   -4.9007    4.7084 C   0  0  0  0  0  0  0  0  0  0  0  0
    3.5099   -3.5085    0.5161 C   0  0  1  0  0  0  0  0  0  0  0  0
    2.2209   -3.3329   -0.0456 O   0  0  0  0  0  0  0  0  0  0  0  0
    4.2327   -2.1627    0.8073 C   0  0  1  0  0  0  0  0  0  0  0  0
    3.3207   -1.0584    0.6631 O   0  0  0  0  0  0  0  0  0  0  0  0
    4.6861   -2.0904    2.2705 C   0  0  1  0  0  0  0  0  0  0  0  0
    5.6048   -0.8862    2.2828 C   0  0  0  0  0  0  0  0  0  0  0  0
    5.8771   -0.2178    3.2792 O   0  0  0  0  0  0  0  0  0  0  0  0
    6.1722   -0.6942    0.8882 C   0  0  0  0  0  0  0  0  0  0  0  0
    5.5601   -1.8347    0.0420 C   0  0  1  0  0  0  0  0  0  0  0  0
    6.5608   -3.0361   -0.0044 C   0  0  0  0  0  0  0  0  0  0  0  0
    5.2879   -1.3261   -1.3749 C   0  0  0  0  0  0  0  0  0  0  0  0
    4.7387   -2.3113   -2.2171 O   0  0  0  0  0  0  0  0  0  0  0  0
    4.1002   -2.0052   -3.3608 C   0  0  0  0  0  0  0  0  0  0  0  0
    3.7635   -0.5153   -3.6083 C   0  0  0  0  0  0  0  0  0  0  0  0
    3.7939   -2.8676   -4.1886 O   0  0  0  0  0  0  0  0  0  0  0  0
    3.4241   -0.2280    3.9308 H   0  0  0  0  0  0  0  0  0  0  0  0
    2.0746   -1.3298    4.5019 H   0  0  0  0  0  0  0  0  0  0  0  0
    1.7874   -3.3772    2.8826 H   0  0  0  0  0  0  0  0  0  0  0  0
    4.4077   -4.6380    2.0232 H   0  0  0  0  0  0  0  0  0  0  0  0
    1.0285   -5.4577    3.7354 H   0  0  0  0  0  0  0  0  0  0  0  0
    2.7372   -6.9612    5.7043 H   0  0  0  0  0  0  0  0  0  0  0  0
    0.0489   -7.8757    4.6761 H   0  0  0  0  0  0  0  0  0  0  0  0
    1.5300   -8.8130    4.8462 H   0  0  0  0  0  0  0  0  0  0  0  0
   -0.4339   -8.6303    6.8471 H   0  0  0  0  0  0  0  0  0  0  0  0
    1.2460   -9.0749    7.1700 H   0  0  0  0  0  0  0  0  0  0  0  0
   -0.3616   -4.7552    5.1339 H   0  0  0  0  0  0  0  0  0  0  0  0
   -0.7521   -4.6802    6.8421 H   0  0  0  0  0  0  0  0  0  0  0  0
   -1.0788   -6.1342    5.9225 H   0  0  0  0  0  0  0  0  0  0  0  0
    1.5219   -4.1099    7.6329 H   0  0  0  0  0  0  0  0  0  0  0  0
    2.8994   -5.0849    7.2671 H   0  0  0  0  0  0  0  0  0  0  0  0
    1.3478   -3.3139    5.3093 H   0  0  0  0  0  0  0  0  0  0  0  0
    2.9418   -3.0124    5.9368 H   0  0  0  0  0  0  0  0  0  0  0  0
    4.4316   -5.4828    5.6246 H   0  0  0  0  0  0  0  0  0  0  0  0
    4.9564   -4.0047    4.8606 H   0  0  0  0  0  0  0  0  0  0  0  0
    4.8450   -5.4902    3.9338 H   0  0  0  0  0  0  0  0  0  0  0  0
    4.0660   -4.0751   -0.2304 H   0  0  0  0  0  0  0  0  0  0  0  0
    2.0902   -2.4855   -0.4536 H   0  0  0  0  0  0  0  0  0  0  0  0
    2.8143   -1.1100   -0.1360 H   0  0  0  0  0  0  0  0  0  0  0  0
    5.3608   -2.9015    2.5168 H   0  0  0  0  0  0  0  0  0  0  0  0
    5.8526    0.2945    0.5217 H   0  0  0  0  0  0  0  0  0  0  0  0
    7.2647   -0.6933    0.8937 H   0  0  0  0  0  0  0  0  0  0  0  0
    7.5327   -2.6979   -0.3730 H   0  0  0  0  0  0  0  0  0  0  0  0
    6.2124   -3.8073   -0.6894 H   0  0  0  0  0  0  0  0  0  0  0  0
    6.7037   -3.4994    0.9728 H   0  0  0  0  0  0  0  0  0  0  0  0
    4.6415   -0.4717   -1.2923 H   0  0  0  0  0  0  0  0  0  0  0  0
    6.2123   -0.9933   -1.8248 H   0  0  0  0  0  0  0  0  0  0  0  0
    4.0616    0.1594   -2.8178 H   0  0  0  0  0  0  0  0  0  0  0  0
    2.6756   -0.4365   -3.7496 H   0  0  0  0  0  0  0  0  0  0  0  0
    4.2285   -0.2103   -4.5591 H   0  0  0  0  0  0  0  0  0  0  0  0
  1  2  2  0
  1 36  1  0
  1 37  1  0
  2 25  1  0
  2  3  1  0
  3 19  1  0
  3  4  1  0
  3 38  1  6
  4  5  1  0
  4 21  1  0
  4 39  1  1
  5  6  2  0
  5  7  1  0
  7  8  2  0
  7  9  1  0
  9 19  1  0
  9 10  1  0
  9 40  1  6
 10 15  1  0
 10 11  1  0
 10 41  1  1
 11 12  1  0
 11 42  1  0
 11 43  1  0
 12 13  1  0
 12 44  1  0
 12 45  1  0
 13 14  2  0
 13 15  1  0
 15 16  1  6
 15 17  1  0
 16 46  1  0
 16 47  1  0
 16 48  1  0
 17 18  1  0
 17 49  1  0
 17 50  1  0
 18 19  1  0
 18 51  1  0
 18 52  1  0
 19 20  1  1
 20 53  1  0
 20 54  1  0
 20 55  1  0
 21 22  1  0
 21 23  1  0
 21 56  1  6
 22 57  1  0
 23 29  1  0
 23 24  1  1
 23 25  1  0
 24 58  1  0
 25 26  1  0
 25 59  1  1
 26 27  2  0
 26 28  1  0
 28 29  1  0
 28 60  1  0
 28 61  1  0
 29 30  1  6
 29 31  1  0
 30 62  1  0
 30 63  1  0
 30 64  1  0
 31 32  1  0
 31 65  1  0
 31 66  1  0
 32 33  1  0
 33 34  1  0
 33 35  2  0
 34 67  1  0
 34 68  1  0
 34 69  1  0
M  END
>  <i_m_ct_stereo_status>  (279) 
1

>  <s_m_source_file>  (279) 
/var/tmp/pbs.5076255.sched01/tmp1t990xkq/82z3oanzij.sdf

>  <i_m_source_file_index>  (279) 
40

>  <i_lp_mmshare_version>  (279) 
48012

>  <i_f3d_flags>  (279) 
0

>  <s_epik_input>  (279) 
W0NIM11DKD1PKU9bQ0gyXVtDQEBdMShbQ0gzXSlbQ0gyXUMoPU8pW0NAQEhdKEMyPVtDSDJdKVtDQF0xKFtPSF0pW0NASF0oW09IXSlbQ0BIXShDKD1PKUMzPU8pW0NASF0yW0NAQF0oW0NIM10pKFtDSDJdW0NIMl00KVtDQEBIXTNbQ0BASF0oW0NAXTQ1W0NIM10pW0NIMl1bQ0gyXUM1PU8=

>  <s_epik_cmdline>  (279) 
J2VwaWtfcHl0aG9uJywgJy1waHQnLCAnMi4wJywgJy1waCcsICc3LjAnLCAnLXRuJywgJzgnLCAnLW1hJywgJzIwMCcsICctaW1hZScsICc8aW5maWxlLm1hZT4nLCAnLW9tYWUnLCAnPG91dGZpbGUubWFlPic=

>  <r_lp_tautomer_probability>  (279) 
1

>  <r_epik_Ionization_Penalty>  (279) 
2.96092e-06

>  <r_epik_Ionization_Penalty_Charging>  (279) 
0

>  <r_epik_Ionization_Penalty_Neutral>  (279) 
2.96092e-06

>  <r_epik_State_Penalty>  (279) 
-0

>  <r_epik_Charging_Adjusted_Penalty>  (279) 
0

>  <i_epik_Tot_Q>  (279) 
0

>  <i_epik_Tot_abs_Q>  (279) 
0

>  <s_epik_Chemistry_Notes>  (279) 
This compound has an ester and may undergo hydrolysis at high or low pH.

>  <s_lp_Force_Field>  (279) 
OPLS3e

>  <r_lp_Energy>  (279) 
42.6599

>  <b_lp_Chiralities_Consistent>  (279) 
1

>  <s_lp_Variant>  (279) 
85:0-1

>  <s_i_glide_gridfile>  (279) 
pfpi4k_grid

>  <i_i_glide_lignum>  (279) 
40

>  <i_i_glide_rotatable_bonds>  (279) 
5

>  <r_i_docking_score>  (279) 
-3.52188

>  <r_i_glide_ligand_efficiency>  (279) 
-0.100625

>  <r_i_glide_ligand_efficiency_sa>  (279) 
-0.329152

>  <r_i_glide_ligand_efficiency_ln>  (279) 
-0.773131

>  <r_i_glide_gscore>  (279) 
-3.52188

>  <r_i_glide_lipo>  (279) 
-0.484361

>  <r_i_glide_hbond>  (279) 
-0.271023

>  <r_i_glide_metal>  (279) 
-0

>  <r_i_glide_rewards>  (279) 
-0.453162

>  <r_i_glide_evdw>  (279) 
-33.8567

>  <r_i_glide_ecoul>  (279) 
-5.15176

>  <r_i_glide_erotb>  (279) 
0.171695

>  <r_i_glide_esite>  (279) 
-0.0194315

>  <r_i_glide_emodel>  (279) 
-42.2817

>  <r_i_glide_energy>  (279) 
-39.0085

>  <r_i_glide_einternal>  (279) 
8.25501

>  <r_i_glide_intrahb_reward>  (279) 
-0

>  <i_i_glide_confnum>  (279) 
1

>  <i_i_glide_posenum>  (279) 
11

>  <r_i_glide_eff_state_penalty>  (279) 
0

>  <ligand_id>  (279) 
85

>  <original_smiles>  (279) 
C=C1C2C(C(=O)C(=O)C3C4CCC(=O)C4(C)CCC23C)C(O)C2(O)C1C(=O)CC2(C)COC(C)=O

>  <smiles>  (279) 
[H]OC1([H])C2([H])C(=O)C(=O)C3([H])C4([H])C([H])([H])C([H])([H])C(=O)C4(C([H])([H])[H])C([H])([H])C([H])([H])C3(C([H])([H])[H])C2([H])C(=C([H])[H])C2([H])C(=O)C([H])([H])C(C([H])([H])[H])(C([H])([H])OC(=O)C([H])([H])[H])C21O[H]

$$$$
85:0:1
     RDKit          3D

 69 73  0  0  1  0  0  0  0  0999 V2000
    2.9921   -1.2142    3.9265 C   0  0  0  0  0  0  0  0  0  0  0  0
    3.5111   -2.2367    3.2164 C   0  0  0  0  0  0  0  0  0  0  0  0
    2.8418   -3.6177    3.0827 C   0  0  1  0  0  0  0  0  0  0  0  0
    3.3881   -4.3705    1.8078 C   0  0  1  0  0  0  0  0  0  0  0  0
    2.7549   -5.7562    1.5848 C   0  0  0  0  0  0  0  0  0  0  0  0
    2.4550   -6.1911    0.4800 O   0  0  0  0  0  0  0  0  0  0  0  0
    2.5069   -6.5923    2.8570 C   0  0  0  0  0  0  0  0  0  0  0  0
    2.7040   -7.8055    2.8527 O   0  0  0  0  0  0  0  0  0  0  0  0
    2.0143   -5.8094    4.0617 C   0  0  1  0  0  0  0  0  0  0  0  0
    1.7677   -6.6754    5.3378 C   0  0  2  0  0  0  0  0  0  0  0  0
    0.9674   -8.0008    5.2841 C   0  0  0  0  0  0  0  0  0  0  0  0
    0.6279   -8.3085    6.7506 C   0  0  0  0  0  0  0  0  0  0  0  0
    0.8552   -6.9771    7.4507 C   0  0  0  0  0  0  0  0  0  0  0  0
    0.8115   -6.8096    8.6708 O   0  0  0  0  0  0  0  0  0  0  0  0
    1.0685   -5.8631    6.4370 C   0  0  2  0  0  0  0  0  0  0  0  0
   -0.3426   -5.3360    6.0624 C   0  0  0  0  0  0  0  0  0  0  0  0
    1.9926   -4.7102    6.8449 C   0  0  0  0  0  0  0  0  0  0  0  0
    2.2900   -3.8088    5.6131 C   0  0  0  0  0  0  0  0  0  0  0  0
    2.8893   -4.5392    4.3651 C   0  0  2  0  0  0  0  0  0  0  0  0
    4.3651   -4.9058    4.7032 C   0  0  0  0  0  0  0  0  0  0  0  0
    3.5054   -3.5031    0.5152 C   0  0  1  0  0  0  0  0  0  0  0  0
    2.2171   -3.3353   -0.0260 O   0  0  0  0  0  0  0  0  0  0  0  0
    4.2236   -2.1333    0.7851 C   0  0  1  0  0  0  0  0  0  0  0  0
    3.3445   -1.0026    0.6506 O   0  0  0  0  0  0  0  0  0  0  0  0
    4.6885   -2.0953    2.2552 C   0  0  1  0  0  0  0  0  0  0  0  0
    5.6029   -0.8921    2.2700 C   0  0  0  0  0  0  0  0  0  0  0  0
    5.8795   -0.2310    3.2695 O   0  0  0  0  0  0  0  0  0  0  0  0
    6.1556   -0.6719    0.8652 C   0  0  0  0  0  0  0  0  0  0  0  0
    5.5317   -1.8060    0.0015 C   0  0  1  0  0  0  0  0  0  0  0  0
    6.5263   -2.9978   -0.0479 C   0  0  0  0  0  0  0  0  0  0  0  0
    5.2574   -1.3138   -1.4368 C   0  0  0  0  0  0  0  0  0  0  0  0
    4.4564   -2.2467   -2.1458 O   0  0  0  0  0  0  0  0  0  0  0  0
    3.9643   -1.9297   -3.3502 C   0  0  0  0  0  0  0  0  0  0  0  0
    3.0312   -2.9938   -3.8992 C   0  0  0  0  0  0  0  0  0  0  0  0
    4.2087   -0.9096   -3.9869 O   0  0  0  0  0  0  0  0  0  0  0  0
    3.4291   -0.2336    3.9219 H   0  0  0  0  0  0  0  0  0  0  0  0
    2.0857   -1.3374    4.5036 H   0  0  0  0  0  0  0  0  0  0  0  0
    1.7922   -3.3792    2.8834 H   0  0  0  0  0  0  0  0  0  0  0  0
    4.4136   -4.6409    2.0218 H   0  0  0  0  0  0  0  0  0  0  0  0
    1.0394   -5.4584    3.7437 H   0  0  0  0  0  0  0  0  0  0  0  0
    2.7572   -6.9605    5.7057 H   0  0  0  0  0  0  0  0  0  0  0  0
    0.0608   -7.8820    4.6901 H   0  0  0  0  0  0  0  0  0  0  0  0
    1.5475   -8.8204    4.8488 H   0  0  0  0  0  0  0  0  0  0  0  0
   -0.4099   -8.6346    6.8608 H   0  0  0  0  0  0  0  0  0  0  0  0
    1.2728   -9.0759    7.1775 H   0  0  0  0  0  0  0  0  0  0  0  0
   -0.3474   -4.7576    5.1450 H   0  0  0  0  0  0  0  0  0  0  0  0
   -0.7312   -4.6862    6.8539 H   0  0  0  0  0  0  0  0  0  0  0  0
   -1.0573   -6.1381    5.9338 H   0  0  0  0  0  0  0  0  0  0  0  0
    1.5401   -4.1133    7.6386 H   0  0  0  0  0  0  0  0  0  0  0  0
    2.9177   -5.0881    7.2679 H   0  0  0  0  0  0  0  0  0  0  0  0
    1.3627   -3.3145    5.3127 H   0  0  0  0  0  0  0  0  0  0  0  0
    2.9621   -3.0180    5.9359 H   0  0  0  0  0  0  0  0  0  0  0  0
    4.4477   -5.4833    5.6200 H   0  0  0  0  0  0  0  0  0  0  0  0
    4.9697   -4.0045    4.8541 H   0  0  0  0  0  0  0  0  0  0  0  0
    4.8565   -5.4958    3.9289 H   0  0  0  0  0  0  0  0  0  0  0  0
    4.0640   -4.0794   -0.2332 H   0  0  0  0  0  0  0  0  0  0  0  0
    2.1415   -2.5452   -0.5784 H   0  0  0  0  0  0  0  0  0  0  0  0
    2.5921   -1.1890    0.0822 H   0  0  0  0  0  0  0  0  0  0  0  0
    5.3591   -2.9008    2.4966 H   0  0  0  0  0  0  0  0  0  0  0  0
    5.8475    0.3126    0.5143 H   0  0  0  0  0  0  0  0  0  0  0  0
    7.2476   -0.6961    0.8721 H   0  0  0  0  0  0  0  0  0  0  0  0
    7.5074   -2.6831   -0.4010 H   0  0  0  0  0  0  0  0  0  0  0  0
    6.1875   -3.7856   -0.7258 H   0  0  0  0  0  0  0  0  0  0  0  0
    6.6756   -3.4658    0.9298 H   0  0  0  0  0  0  0  0  0  0  0  0
    4.7625   -0.3471   -1.4251 H   0  0  0  0  0  0  0  0  0  0  0  0
    6.2108   -1.1782   -1.9567 H   0  0  0  0  0  0  0  0  0  0  0  0
    2.9609   -3.8476   -3.2186 H   0  0  0  0  0  0  0  0  0  0  0  0
    3.4032   -3.3544   -4.8583 H   0  0  0  0  0  0  0  0  0  0  0  0
    2.0376   -2.5816   -4.0434 H   0  0  0  0  0  0  0  0  0  0  0  0
  1  2  2  0
  1 36  1  0
  1 37  1  0
  2 25  1  0
  2  3  1  0
  3 19  1  0
  3  4  1  0
  3 38  1  6
  4  5  1  0
  4 21  1  0
  4 39  1  1
  5  6  2  0
  5  7  1  0
  7  8  2  0
  7  9  1  0
  9 19  1  0
  9 10  1  0
  9 40  1  6
 10 15  1  0
 10 11  1  0
 10 41  1  1
 11 12  1  0
 11 42  1  0
 11 43  1  0
 12 13  1  0
 12 44  1  0
 12 45  1  0
 13 14  2  0
 13 15  1  0
 15 16  1  6
 15 17  1  0
 16 46  1  0
 16 47  1  0
 16 48  1  0
 17 18  1  0
 17 49  1  0
 17 50  1  0
 18 19  1  0
 18 51  1  0
 18 52  1  0
 19 20  1  1
 20 53  1  0
 20 54  1  0
 20 55  1  0
 21 22  1  0
 21 23  1  0
 21 56  1  6
 22 57  1  0
 23 29  1  0
 23 24  1  1
 23 25  1  0
 24 58  1  0
 25 26  1  0
 25 59  1  6
 26 27  2  0
 26 28  1  0
 28 29  1  0
 28 60  1  0
 28 61  1  0
 29 30  1  6
 29 31  1  0
 30 62  1  0
 30 63  1  0
 30 64  1  0
 31 32  1  0
 31 65  1  0
 31 66  1  0
 32 33  1  0
 33 34  1  0
 33 35  2  0
 34 67  1  0
 34 68  1  0
 34 69  1  0
M  END
>  <i_m_ct_stereo_status>  (280) 
1

>  <s_m_source_file>  (280) 
/var/tmp/pbs.5076255.sched01/tmp1t990xkq/82z3oanzij.sdf

>  <i_m_source_file_index>  (280) 
40

>  <i_lp_mmshare_version>  (280) 
48012

>  <i_f3d_flags>  (280) 
0

>  <s_epik_input>  (280) 
W0NIM11DKD1PKU9bQ0gyXVtDQEBdMShbQ0gzXSlbQ0gyXUMoPU8pW0NAQEhdKEMyPVtDSDJdKVtDQF0xKFtPSF0pW0NASF0oW09IXSlbQ0BIXShDKD1PKUMzPU8pW0NASF0yW0NAQF0oW0NIM10pKFtDSDJdW0NIMl00KVtDQEBIXTNbQ0BASF0oW0NAXTQ1W0NIM10pW0NIMl1bQ0gyXUM1PU8=

>  <s_epik_cmdline>  (280) 
J2VwaWtfcHl0aG9uJywgJy1waHQnLCAnMi4wJywgJy1waCcsICc3LjAnLCAnLXRuJywgJzgnLCAnLW1hJywgJzIwMCcsICctaW1hZScsICc8aW5maWxlLm1hZT4nLCAnLW9tYWUnLCAnPG91dGZpbGUubWFlPic=

>  <r_lp_tautomer_probability>  (280) 
1

>  <r_epik_Ionization_Penalty>  (280) 
2.96092e-06

>  <r_epik_Ionization_Penalty_Charging>  (280) 
0

>  <r_epik_Ionization_Penalty_Neutral>  (280) 
2.96092e-06

>  <r_epik_State_Penalty>  (280) 
-0

>  <r_epik_Charging_Adjusted_Penalty>  (280) 
0

>  <i_epik_Tot_Q>  (280) 
0

>  <i_epik_Tot_abs_Q>  (280) 
0

>  <s_epik_Chemistry_Notes>  (280) 
This compound has an ester and may undergo hydrolysis at high or low pH.

>  <s_lp_Force_Field>  (280) 
OPLS3e

>  <r_lp_Energy>  (280) 
42.6599

>  <b_lp_Chiralities_Consistent>  (280) 
1

>  <s_lp_Variant>  (280) 
85:0-1

>  <s_i_glide_gridfile>  (280) 
pfpi4k_grid

>  <i_i_glide_lignum>  (280) 
40

>  <i_i_glide_rotatable_bonds>  (280) 
5

>  <r_i_docking_score>  (280) 
-3.14337

>  <r_i_glide_ligand_efficiency>  (280) 
-0.0898107

>  <r_i_glide_ligand_efficiency_sa>  (280) 
-0.293777

>  <r_i_glide_ligand_efficiency_ln>  (280) 
-0.690041

>  <r_i_glide_gscore>  (280) 
-3.14337

>  <r_i_glide_lipo>  (280) 
-0.336897

>  <r_i_glide_hbond>  (280) 
-0.00566746

>  <r_i_glide_metal>  (280) 
-0

>  <r_i_glide_rewards>  (280) 
-0.44039

>  <r_i_glide_evdw>  (280) 
-34.2275

>  <r_i_glide_ecoul>  (280) 
-5.34533

>  <r_i_glide_erotb>  (280) 
0.171695

>  <r_i_glide_esite>  (280) 
-0.018939

>  <r_i_glide_emodel>  (280) 
-44.8995

>  <r_i_glide_energy>  (280) 
-39.5729

>  <r_i_glide_einternal>  (280) 
3.32119

>  <r_i_glide_intrahb_reward>  (280) 
-0

>  <i_i_glide_confnum>  (280) 
2

>  <i_i_glide_posenum>  (280) 
5

>  <r_i_glide_eff_state_penalty>  (280) 
0

>  <ligand_id>  (280) 
85

>  <original_smiles>  (280) 
C=C1C2C(C(=O)C(=O)C3C4CCC(=O)C4(C)CCC23C)C(O)C2(O)C1C(=O)CC2(C)COC(C)=O

>  <smiles>  (280) 
[H]OC1([H])C2([H])C(=O)C(=O)C3([H])C4([H])C([H])([H])C([H])([H])C(=O)C4(C([H])([H])[H])C([H])([H])C([H])([H])C3(C([H])([H])[H])C2([H])C(=C([H])[H])C2([H])C(=O)C([H])([H])C(C([H])([H])[H])(C([H])([H])OC(=O)C([H])([H])[H])C21O[H]

$$$$
85:0:2
     RDKit          3D

 69 73  0  0  1  0  0  0  0  0999 V2000
    4.1864   -1.7698    3.5436 C   0  0  0  0  0  0  0  0  0  0  0  0
    4.2510   -2.7333    2.5947 C   0  0  0  0  0  0  0  0  0  0  0  0
    3.3290   -3.9559    2.5576 C   0  0  1  0  0  0  0  0  0  0  0  0
    3.3135   -4.5880    1.1003 C   0  0  1  0  0  0  0  0  0  0  0  0
    2.3422   -5.7669    1.0194 C   0  0  0  0  0  0  0  0  0  0  0  0
    1.4771   -5.8473    0.1371 O   0  0  0  0  0  0  0  0  0  0  0  0
    2.3899   -6.7652    2.1673 C   0  0  0  0  0  0  0  0  0  0  0  0
    2.3471   -7.9879    1.9856 O   0  0  0  0  0  0  0  0  0  0  0  0
    2.4481   -6.1301    3.5560 C   0  0  1  0  0  0  0  0  0  0  0  0
    2.4368   -7.1305    4.7406 C   0  0  2  0  0  0  0  0  0  0  0  0
    1.4198   -8.2994    4.8190 C   0  0  0  0  0  0  0  0  0  0  0  0
    1.4889   -8.7692    6.2862 C   0  0  0  0  0  0  0  0  0  0  0  0
    2.1697   -7.6072    6.9862 C   0  0  0  0  0  0  0  0  0  0  0  0
    2.5690   -7.6298    8.1562 O   0  0  0  0  0  0  0  0  0  0  0  0
    2.2661   -6.4010    6.0819 C   0  0  2  0  0  0  0  0  0  0  0  0
    0.9398   -5.6128    6.2404 C   0  0  0  0  0  0  0  0  0  0  0  0
    3.4765   -5.4753    6.2768 C   0  0  0  0  0  0  0  0  0  0  0  0
    3.5555   -4.4514    5.1132 C   0  0  0  0  0  0  0  0  0  0  0  0
    3.5980   -5.0571    3.6698 C   0  0  2  0  0  0  0  0  0  0  0  0
    5.0068   -5.6907    3.4667 C   0  0  0  0  0  0  0  0  0  0  0  0
    3.2069   -3.5739   -0.1010 C   0  0  1  0  0  0  0  0  0  0  0  0
    1.8908   -3.0727   -0.2209 O   0  0  0  0  0  0  0  0  0  0  0  0
    4.1839   -2.3869    0.0812 C   0  0  1  0  0  0  0  0  0  0  0  0
    3.4912   -1.1575    0.3932 O   0  0  0  0  0  0  0  0  0  0  0  0
    5.0669   -2.6462    1.3119 C   0  0  1  0  0  0  0  0  0  0  0  0
    6.0855   -1.5912    1.1478 C   0  0  0  0  0  0  0  0  0  0  0  0
    6.6212   -1.0231    2.0813 O   0  0  0  0  0  0  0  0  0  0  0  0
    6.2701   -1.2582   -0.3108 C   0  0  0  0  0  0  0  0  0  0  0  0
    5.2331   -2.1231   -1.0441 C   0  0  1  0  0  0  0  0  0  0  0  0
    5.9605   -3.4336   -1.5091 C   0  0  0  0  0  0  0  0  0  0  0  0
    4.6502   -1.3453   -2.2421 C   0  0  0  0  0  0  0  0  0  0  0  0
    3.9637   -2.2999   -2.9971 O   0  0  0  0  0  0  0  0  0  0  0  0
    3.0090   -1.9225   -3.7746 C   0  0  0  0  0  0  0  0  0  0  0  0
    1.9958   -3.0501   -3.8904 C   0  0  0  0  0  0  0  0  0  0  0  0
    2.8662   -0.7883   -4.2310 O   0  0  0  0  0  0  0  0  0  0  0  0
    4.7809   -0.8740    3.4990 H   0  0  0  0  0  0  0  0  0  0  0  0
    3.5089   -1.8417    4.3758 H   0  0  0  0  0  0  0  0  0  0  0  0
    2.3386   -3.5308    2.7444 H   0  0  0  0  0  0  0  0  0  0  0  0
    4.2933   -5.0556    0.9720 H   0  0  0  0  0  0  0  0  0  0  0  0
    1.5080   -5.5863    3.5999 H   0  0  0  0  0  0  0  0  0  0  0  0
    3.4207   -7.6103    4.7405 H   0  0  0  0  0  0  0  0  0  0  0  0
    0.4108   -7.9548    4.5771 H   0  0  0  0  0  0  0  0  0  0  0  0
    1.6691   -9.1198    4.1420 H   0  0  0  0  0  0  0  0  0  0  0  0
    0.4973   -8.9331    6.7024 H   0  0  0  0  0  0  0  0  0  0  0  0
    2.0692   -9.6842    6.4053 H   0  0  0  0  0  0  0  0  0  0  0  0
    0.7562   -4.9020    5.4379 H   0  0  0  0  0  0  0  0  0  0  0  0
    0.9501   -5.0481    7.1737 H   0  0  0  0  0  0  0  0  0  0  0  0
    0.0775   -6.2755    6.2856 H   0  0  0  0  0  0  0  0  0  0  0  0
    3.4121   -4.9532    7.2302 H   0  0  0  0  0  0  0  0  0  0  0  0
    4.3963   -6.0542    6.3370 H   0  0  0  0  0  0  0  0  0  0  0  0
    2.6974   -3.7796    5.1756 H   0  0  0  0  0  0  0  0  0  0  0  0
    4.4417   -3.8367    5.2686 H   0  0  0  0  0  0  0  0  0  0  0  0
    5.2487   -6.4117    4.2466 H   0  0  0  0  0  0  0  0  0  0  0  0
    5.7852   -4.9246    3.5010 H   0  0  0  0  0  0  0  0  0  0  0  0
    5.1164   -6.2244    2.5202 H   0  0  0  0  0  0  0  0  0  0  0  0
    3.4411   -4.1095   -1.0235 H   0  0  0  0  0  0  0  0  0  0  0  0
    1.8176   -2.2295   -0.6532 H   0  0  0  0  0  0  0  0  0  0  0  0
    2.8067   -0.9966   -0.2264 H   0  0  0  0  0  0  0  0  0  0  0  0
    5.6386   -3.5735    1.2526 H   0  0  0  0  0  0  0  0  0  0  0  0
    6.0800   -0.1971   -0.4423 H   0  0  0  0  0  0  0  0  0  0  0  0
    7.2769   -1.5189   -0.6188 H   0  0  0  0  0  0  0  0  0  0  0  0
    6.8202   -3.2032   -2.1466 H   0  0  0  0  0  0  0  0  0  0  0  0
    5.3244   -4.1187   -2.0786 H   0  0  0  0  0  0  0  0  0  0  0  0
    6.3217   -4.0266   -0.6652 H   0  0  0  0  0  0  0  0  0  0  0  0
    3.9584   -0.5564   -1.9351 H   0  0  0  0  0  0  0  0  0  0  0  0
    5.4113   -0.8471   -2.8412 H   0  0  0  0  0  0  0  0  0  0  0  0
    2.3715   -3.9305   -3.3650 H   0  0  0  0  0  0  0  0  0  0  0  0
    1.7214   -3.3815   -4.8951 H   0  0  0  0  0  0  0  0  0  0  0  0
    1.1013   -2.7286   -3.3579 H   0  0  0  0  0  0  0  0  0  0  0  0
  1  2  2  0
  1 36  1  0
  1 37  1  0
  2 25  1  0
  2  3  1  0
  3 19  1  0
  3  4  1  0
  3 38  1  1
  4  5  1  0
  4 21  1  0
  4 39  1  6
  5  6  2  0
  5  7  1  0
  7  8  2  0
  7  9  1  0
  9 19  1  0
  9 10  1  0
  9 40  1  1
 10 15  1  0
 10 11  1  0
 10 41  1  1
 11 12  1  0
 11 42  1  0
 11 43  1  0
 12 13  1  0
 12 44  1  0
 12 45  1  0
 13 14  2  0
 13 15  1  0
 15 16  1  6
 15 17  1  0
 16 46  1  0
 16 47  1  0
 16 48  1  0
 17 18  1  0
 17 49  1  0
 17 50  1  0
 18 19  1  0
 18 51  1  0
 18 52  1  0
 19 20  1  6
 20 53  1  0
 20 54  1  0
 20 55  1  0
 21 22  1  0
 21 23  1  0
 21 56  1  6
 22 57  1  0
 23 29  1  0
 23 24  1  1
 23 25  1  0
 24 58  1  0
 25 26  1  0
 25 59  1  6
 26 27  2  0
 26 28  1  0
 28 29  1  0
 28 60  1  0
 28 61  1  0
 29 30  1  6
 29 31  1  0
 30 62  1  0
 30 63  1  0
 30 64  1  0
 31 32  1  0
 31 65  1  0
 31 66  1  0
 32 33  1  0
 33 34  1  0
 33 35  2  0
 34 67  1  0
 34 68  1  0
 34 69  1  0
M  END
>  <i_m_ct_stereo_status>  (281) 
1

>  <s_m_source_file>  (281) 
/var/tmp/pbs.5076255.sched01/tmp1t990xkq/82z3oanzij.sdf

>  <i_m_source_file_index>  (281) 
40

>  <i_lp_mmshare_version>  (281) 
48012

>  <i_f3d_flags>  (281) 
0

>  <s_epik_input>  (281) 
W0NIM11DKD1PKU9bQ0gyXVtDQEBdMShbQ0gzXSlbQ0gyXUMoPU8pW0NAQEhdKEMyPVtDSDJdKVtDQF0xKFtPSF0pW0NASF0oW09IXSlbQ0BIXShDKD1PKUMzPU8pW0NASF0yW0NAQF0oW0NIM10pKFtDSDJdW0NIMl00KVtDQEBIXTNbQ0BASF0oW0NAXTQ1W0NIM10pW0NIMl1bQ0gyXUM1PU8=

>  <s_epik_cmdline>  (281) 
J2VwaWtfcHl0aG9uJywgJy1waHQnLCAnMi4wJywgJy1waCcsICc3LjAnLCAnLXRuJywgJzgnLCAnLW1hJywgJzIwMCcsICctaW1hZScsICc8aW5maWxlLm1hZT4nLCAnLW9tYWUnLCAnPG91dGZpbGUubWFlPic=

>  <r_lp_tautomer_probability>  (281) 
1

>  <r_epik_Ionization_Penalty>  (281) 
2.96092e-06

>  <r_epik_Ionization_Penalty_Charging>  (281) 
0

>  <r_epik_Ionization_Penalty_Neutral>  (281) 
2.96092e-06

>  <r_epik_State_Penalty>  (281) 
-0

>  <r_epik_Charging_Adjusted_Penalty>  (281) 
0

>  <i_epik_Tot_Q>  (281) 
0

>  <i_epik_Tot_abs_Q>  (281) 
0

>  <s_epik_Chemistry_Notes>  (281) 
This compound has an ester and may undergo hydrolysis at high or low pH.

>  <s_lp_Force_Field>  (281) 
OPLS3e

>  <r_lp_Energy>  (281) 
42.6599

>  <b_lp_Chiralities_Consistent>  (281) 
1

>  <s_lp_Variant>  (281) 
85:0-1

>  <s_i_glide_gridfile>  (281) 
pfpi4k_grid

>  <i_i_glide_lignum>  (281) 
40

>  <i_i_glide_rotatable_bonds>  (281) 
5

>  <r_i_docking_score>  (281) 
-3.13789

>  <r_i_glide_ligand_efficiency>  (281) 
-0.089654

>  <r_i_glide_ligand_efficiency_sa>  (281) 
-0.293264

>  <r_i_glide_ligand_efficiency_ln>  (281) 
-0.688837

>  <r_i_glide_gscore>  (281) 
-3.13789

>  <r_i_glide_lipo>  (281) 
-0.336504

>  <r_i_glide_hbond>  (281) 
-0.175334

>  <r_i_glide_metal>  (281) 
-0

>  <r_i_glide_rewards>  (281) 
-0.561818

>  <r_i_glide_evdw>  (281) 
-20.0724

>  <r_i_glide_ecoul>  (281) 
-7.91074

>  <r_i_glide_erotb>  (281) 
0.171695

>  <r_i_glide_esite>  (281) 
-0.0456988

>  <r_i_glide_emodel>  (281) 
-27.4323

>  <r_i_glide_energy>  (281) 
-27.9831

>  <r_i_glide_einternal>  (281) 
9.72597

>  <r_i_glide_intrahb_reward>  (281) 
-0

>  <i_i_glide_confnum>  (281) 
2

>  <i_i_glide_posenum>  (281) 
20

>  <r_i_glide_eff_state_penalty>  (281) 
0

>  <ligand_id>  (281) 
85

>  <original_smiles>  (281) 
C=C1C2C(C(=O)C(=O)C3C4CCC(=O)C4(C)CCC23C)C(O)C2(O)C1C(=O)CC2(C)COC(C)=O

>  <smiles>  (281) 
[H]OC1([H])C2([H])C(=O)C(=O)C3([H])C4([H])C([H])([H])C([H])([H])C(=O)C4(C([H])([H])[H])C([H])([H])C([H])([H])C3(C([H])([H])[H])C2([H])C(=C([H])[H])C2([H])C(=O)C([H])([H])C(C([H])([H])[H])(C([H])([H])OC(=O)C([H])([H])[H])C21O[H]

$$$$
86:0:0
     RDKit          3D

 62 68  0  0  1  0  0  0  0  0999 V2000
    0.7459   -7.0697    5.3721 C   0  0  0  0  0  0  0  0  0  0  0  0
    1.1551   -5.8744    5.8351 C   0  0  0  0  0  0  0  0  0  0  0  0
    0.5194   -5.2364    6.9836 C   0  0  0  0  0  0  0  0  0  0  0  0
   -0.0723   -5.7944    8.0470 C   0  0  0  0  0  0  0  0  0  0  0  0
   -0.5674   -4.7801    9.0624 C   0  0  0  0  0  0  0  0  0  0  0  0
   -0.1527   -3.4652    8.4250 C   0  0  2  0  0  0  0  0  0  0  0  0
    0.2188   -2.3095    9.3251 C   0  0  0  0  0  0  0  0  0  0  0  0
   -0.7641   -3.1315    7.1674 O   0  0  0  0  0  0  0  0  0  0  0  0
    0.5258   -3.7688    7.1292 C   0  0  2  0  0  0  0  0  0  0  0  0
    1.6644   -2.9956    6.4998 C   0  0  0  0  0  0  0  0  0  0  0  0
    1.9705   -3.5969    5.1075 C   0  0  2  0  0  0  0  0  0  0  0  0
    2.3094   -5.0860    5.2130 C   0  0  2  0  0  0  0  0  0  0  0  0
    2.7691   -5.4099    3.7851 C   0  0  0  0  0  0  0  0  0  0  0  0
    3.4685   -4.1403    3.2839 C   0  0  0  0  0  0  0  0  0  0  0  0
    4.2467   -4.0975    2.1631 C   0  0  0  0  0  0  0  0  0  0  0  0
    4.4319   -5.2887    1.3400 C   0  0  0  0  0  0  0  0  0  0  0  0
    5.2351   -5.2130    0.2630 C   0  0  0  0  0  0  0  0  0  0  0  0
    5.9467   -3.9317   -0.0308 C   0  0  1  0  0  0  0  0  0  0  0  0
    5.0643   -2.9443   -0.7637 C   0  0  0  0  0  0  0  0  0  0  0  0
    4.3453   -2.2404    0.3883 C   0  0  0  0  0  0  0  0  0  0  0  0
    5.0006   -2.8486    1.6493 C   0  0  2  0  0  0  0  0  0  0  0  0
    6.4529   -3.1780    1.2478 C   0  0  1  0  0  0  0  0  0  0  0  0
    7.3781   -3.8222    0.1694 C   0  0  0  0  0  0  0  0  0  0  0  0
    8.2212   -5.0262    0.5602 C   0  0  0  0  0  0  0  0  0  0  0  0
    8.2139   -2.9035   -0.7170 C   0  0  0  0  0  0  0  0  0  0  0  0
    3.1000   -2.9820    4.2391 C   0  0  0  0  0  0  0  0  0  0  0  0
    2.5291   -1.7435    3.5110 C   0  0  0  0  0  0  0  0  0  0  0  0
    4.3147   -2.5938    5.1160 C   0  0  0  0  0  0  0  0  0  0  0  0
    1.2233   -7.5356    4.5223 H   0  0  0  0  0  0  0  0  0  0  0  0
   -0.0680   -7.6139    5.8290 H   0  0  0  0  0  0  0  0  0  0  0  0
   -0.1887   -6.8546    8.2046 H   0  0  0  0  0  0  0  0  0  0  0  0
   -1.6476   -4.8267    9.1906 H   0  0  0  0  0  0  0  0  0  0  0  0
   -0.0858   -4.9193   10.0305 H   0  0  0  0  0  0  0  0  0  0  0  0
    1.0993   -2.5670    9.9220 H   0  0  0  0  0  0  0  0  0  0  0  0
   -0.6013   -2.0607    9.9955 H   0  0  0  0  0  0  0  0  0  0  0  0
    0.4557   -1.4372    8.7130 H   0  0  0  0  0  0  0  0  0  0  0  0
    1.3926   -1.9438    6.4332 H   0  0  0  0  0  0  0  0  0  0  0  0
    2.5298   -3.0862    7.1567 H   0  0  0  0  0  0  0  0  0  0  0  0
    1.0473   -3.5254    4.5262 H   0  0  0  0  0  0  0  0  0  0  0  0
    3.1629   -5.2101    5.8798 H   0  0  0  0  0  0  0  0  0  0  0  0
    3.4218   -6.2847    3.7707 H   0  0  0  0  0  0  0  0  0  0  0  0
    1.9108   -5.6039    3.1405 H   0  0  0  0  0  0  0  0  0  0  0  0
    3.9479   -6.2288    1.5678 H   0  0  0  0  0  0  0  0  0  0  0  0
    5.4155   -6.0595   -0.3851 H   0  0  0  0  0  0  0  0  0  0  0  0
    5.6553   -2.2402   -1.3458 H   0  0  0  0  0  0  0  0  0  0  0  0
    4.3829   -3.4530   -1.4505 H   0  0  0  0  0  0  0  0  0  0  0  0
    4.5303   -1.1689    0.3372 H   0  0  0  0  0  0  0  0  0  0  0  0
    3.2651   -2.3988    0.3550 H   0  0  0  0  0  0  0  0  0  0  0  0
    5.0649   -2.0996    2.4300 H   0  0  0  0  0  0  0  0  0  0  0  0
    6.9338   -2.2037    1.3070 H   0  0  0  0  0  0  0  0  0  0  0  0
    9.1527   -4.7048    1.0264 H   0  0  0  0  0  0  0  0  0  0  0  0
    8.4693   -5.6242   -0.3140 H   0  0  0  0  0  0  0  0  0  0  0  0
    7.6909   -5.6540    1.2754 H   0  0  0  0  0  0  0  0  0  0  0  0
    9.1773   -2.6915   -0.2594 H   0  0  0  0  0  0  0  0  0  0  0  0
    7.7225   -1.9431   -0.8601 H   0  0  0  0  0  0  0  0  0  0  0  0
    8.3901   -3.3539   -1.6941 H   0  0  0  0  0  0  0  0  0  0  0  0
    2.0167   -1.0906    4.2153 H   0  0  0  0  0  0  0  0  0  0  0  0
    1.8031   -2.0263    2.7497 H   0  0  0  0  0  0  0  0  0  0  0  0
    3.2863   -1.1296    3.0325 H   0  0  0  0  0  0  0  0  0  0  0  0
    4.0601   -1.7927    5.8098 H   0  0  0  0  0  0  0  0  0  0  0  0
    5.1617   -2.2395    4.5338 H   0  0  0  0  0  0  0  0  0  0  0  0
    4.6715   -3.4394    5.7039 H   0  0  0  0  0  0  0  0  0  0  0  0
  1  2  2  0
  1 29  1  0
  1 30  1  0
  2 12  1  0
  2  3  1  0
  3  9  1  0
  3  4  2  0
  4  5  1  0
  4 31  1  0
  5  6  1  0
  5 32  1  0
  5 33  1  0
  6  9  1  0
  6  7  1  1
  6  8  1  0
  7 34  1  0
  7 35  1  0
  7 36  1  0
  9  8  1  6
  9 10  1  0
 10 11  1  0
 10 37  1  0
 10 38  1  0
 11 26  1  0
 11 12  1  0
 11 39  1  6
 12 13  1  0
 12 40  1  1
 13 14  1  0
 13 41  1  0
 13 42  1  0
 14 15  2  3
 14 26  1  0
 15 21  1  0
 15 16  1  0
 16 17  2  0
 16 43  1  0
 17 18  1  0
 17 44  1  0
 18 22  1  0
 18 23  1  6
 18 19  1  0
 19 20  1  0
 19 45  1  0
 19 46  1  0
 20 21  1  0
 20 47  1  0
 20 48  1  0
 21 22  1  0
 21 49  1  1
 22 23  1  0
 22 50  1  1
 23 24  1  0
 23 25  1  0
 24 51  1  0
 24 52  1  0
 24 53  1  0
 25 54  1  0
 25 55  1  0
 25 56  1  0
 26 27  1  0
 26 28  1  0
 27 57  1  0
 27 58  1  0
 27 59  1  0
 28 60  1  0
 28 61  1  0
 28 62  1  0
M  END
>  <i_m_ct_stereo_status>  (282) 
1

>  <s_m_source_file>  (282) 
/var/tmp/pbs.5076255.sched01/tmp1t990xkq/82z3oanzij.sdf

>  <i_m_source_file_index>  (282) 
41

>  <i_lp_mmshare_version>  (282) 
48012

>  <i_f3d_flags>  (282) 
0

>  <s_epik_input>  (282) 
W0NIM11bQ0BdMShPMilbQ0gyXVtDSF09QyhbQ0BdMTIzKUMoPVtDSDJdKVtDQEBIXTRbQ0BASF0oW0NIMl0zKUMoW0NIM10pKFtDSDNdKUMoXFtDSDJdNCk9QygvW0NIXT1bQ0hdNSlbQ0BIXShbQ0gyXVtDSDJdNilbQ0BIXShbQ0BAXTU2NylDNyhbQ0gzXSlbQ0gzXQ==

>  <s_epik_cmdline>  (282) 
J2VwaWtfcHl0aG9uJywgJy1waHQnLCAnMi4wJywgJy1waCcsICc3LjAnLCAnLXRuJywgJzgnLCAnLW1hJywgJzIwMCcsICctaW1hZScsICc8aW5maWxlLm1hZT4nLCAnLW9tYWUnLCAnPG91dGZpbGUubWFlPic=

>  <r_lp_tautomer_probability>  (282) 
1

>  <r_epik_Ionization_Penalty>  (282) 
5.51071e-12

>  <r_epik_Ionization_Penalty_Charging>  (282) 
0

>  <r_epik_Ionization_Penalty_Neutral>  (282) 
5.51071e-12

>  <r_epik_State_Penalty>  (282) 
-0

>  <r_epik_Charging_Adjusted_Penalty>  (282) 
0

>  <i_epik_Tot_Q>  (282) 
0

>  <i_epik_Tot_abs_Q>  (282) 
0

>  <s_lp_Force_Field>  (282) 
OPLS3e

>  <r_lp_Energy>  (282) 
99.918

>  <b_lp_Chiralities_Consistent>  (282) 
1

>  <s_lp_Variant>  (282) 
86:0-1

>  <s_i_glide_gridfile>  (282) 
pfpi4k_grid

>  <i_i_glide_lignum>  (282) 
41

>  <i_i_glide_rotatable_bonds>  (282) 
0

>  <r_i_docking_score>  (282) 
-2.70892

>  <r_i_glide_ligand_efficiency>  (282) 
-0.096747

>  <r_i_glide_ligand_efficiency_sa>  (282) 
-0.293781

>  <r_i_glide_ligand_efficiency_ln>  (282) 
-0.625297

>  <r_i_glide_gscore>  (282) 
-2.70892

>  <r_i_glide_lipo>  (282) 
-0.583383

>  <r_i_glide_hbond>  (282) 
-0.00537548

>  <r_i_glide_metal>  (282) 
-0

>  <r_i_glide_rewards>  (282) 
-0.855285

>  <r_i_glide_evdw>  (282) 
-23.8419

>  <r_i_glide_ecoul>  (282) 
-0.48518

>  <r_i_glide_erotb>  (282) 
0

>  <r_i_glide_esite>  (282) 
0

>  <r_i_glide_emodel>  (282) 
-28.4739

>  <r_i_glide_energy>  (282) 
-24.3271

>  <r_i_glide_einternal>  (282) 
0

>  <r_i_glide_intrahb_reward>  (282) 
-0

>  <i_i_glide_confnum>  (282) 
2

>  <i_i_glide_posenum>  (282) 
1

>  <r_i_glide_eff_state_penalty>  (282) 
0

>  <ligand_id>  (282) 
86

>  <original_smiles>  (282) 
C=C1C2=CCC3(C)OC23CC2C1CC(=C1C=CC34CCC1C3C4(C)C)C2(C)C

>  <smiles>  (282) 
[H]C([H])=C1C2=C([H])C([H])([H])C3(C([H])([H])[H])OC23C([H])([H])C2([H])C1([H])C([H])([H])C(=C1C([H])=C([H])C34C([H])([H])C([H])([H])C1([H])C3([H])C4(C([H])([H])[H])C([H])([H])[H])C2(C([H])([H])[H])C([H])([H])[H]

$$$$
86:0:1
     RDKit          3D

 62 68  0  0  1  0  0  0  0  0999 V2000
    2.4602   -0.7945    1.9603 C   0  0  0  0  0  0  0  0  0  0  0  0
    3.0437   -1.8690    1.3971 C   0  0  0  0  0  0  0  0  0  0  0  0
    3.7685   -1.7642    0.1403 C   0  0  0  0  0  0  0  0  0  0  0  0
    4.4679   -0.7263   -0.3478 C   0  0  0  0  0  0  0  0  0  0  0  0
    5.1287   -1.0525   -1.6609 C   0  0  0  0  0  0  0  0  0  0  0  0
    4.7351   -2.4910   -1.9077 C   0  0  2  0  0  0  0  0  0  0  0  0
    5.7296   -3.3823   -2.6137 C   0  0  0  0  0  0  0  0  0  0  0  0
    3.3374   -2.7866   -2.0677 O   0  0  0  0  0  0  0  0  0  0  0  0
    3.8987   -2.9323   -0.7619 C   0  0  2  0  0  0  0  0  0  0  0  0
    3.8695   -4.3038   -0.1364 C   0  0  0  0  0  0  0  0  0  0  0  0
    2.7411   -4.3276    0.9210 C   0  0  2  0  0  0  0  0  0  0  0  0
    2.9998   -3.2665    2.0009 C   0  0  2  0  0  0  0  0  0  0  0  0
    1.9275   -3.5991    3.0481 C   0  0  0  0  0  0  0  0  0  0  0  0
    1.7750   -5.1184    2.9848 C   0  0  0  0  0  0  0  0  0  0  0  0
    1.1089   -5.8552    3.9145 C   0  0  0  0  0  0  0  0  0  0  0  0
    0.4445   -5.1937    5.0344 C   0  0  0  0  0  0  0  0  0  0  0  0
   -0.1741   -5.9553    5.9458 C   0  0  0  0  0  0  0  0  0  0  0  0
   -0.1117   -7.4429    5.7962 C   0  0  1  0  0  0  0  0  0  0  0  0
   -1.1498   -7.9543    4.8426 C   0  0  0  0  0  0  0  0  0  0  0  0
   -0.4418   -7.8595    3.4905 C   0  0  0  0  0  0  0  0  0  0  0  0
    0.9758   -7.3902    3.8894 C   0  0  2  0  0  0  0  0  0  0  0  0
    1.2557   -8.0007    5.2779 C   0  0  1  0  0  0  0  0  0  0  0  0
    0.6680   -8.2280    6.7129 C   0  0  0  0  0  0  0  0  0  0  0  0
    1.3720   -7.6003    7.9005 C   0  0  0  0  0  0  0  0  0  0  0  0
    0.2123   -9.6204    7.1130 C   0  0  0  0  0  0  0  0  0  0  0  0
    2.4465   -5.6296    1.7029 C   0  0  0  0  0  0  0  0  0  0  0  0
    1.4938   -6.4919    0.8616 C   0  0  0  0  0  0  0  0  0  0  0  0
    3.7677   -6.3723    2.0261 C   0  0  0  0  0  0  0  0  0  0  0  0
    1.9055   -0.8749    2.8830 H   0  0  0  0  0  0  0  0  0  0  0  0
    2.5150    0.1787    1.4988 H   0  0  0  0  0  0  0  0  0  0  0  0
    4.5825    0.2166    0.1407 H   0  0  0  0  0  0  0  0  0  0  0  0
    4.7755   -0.4130   -2.4650 H   0  0  0  0  0  0  0  0  0  0  0  0
    6.2060   -0.9811   -1.5611 H   0  0  0  0  0  0  0  0  0  0  0  0
    6.6606   -3.4512   -2.0391 H   0  0  0  0  0  0  0  0  0  0  0  0
    5.9520   -2.9717   -3.5908 H   0  0  0  0  0  0  0  0  0  0  0  0
    5.2930   -4.3726   -2.7339 H   0  0  0  0  0  0  0  0  0  0  0  0
    3.7139   -5.0477   -0.9201 H   0  0  0  0  0  0  0  0  0  0  0  0
    4.8532   -4.4911    0.3085 H   0  0  0  0  0  0  0  0  0  0  0  0
    1.8104   -4.0529    0.4035 H   0  0  0  0  0  0  0  0  0  0  0  0
    3.9774   -3.4467    2.4558 H   0  0  0  0  0  0  0  0  0  0  0  0
    2.2044   -3.2365    4.0422 H   0  0  0  0  0  0  0  0  0  0  0  0
    0.9703   -3.1458    2.7720 H   0  0  0  0  0  0  0  0  0  0  0  0
    0.4291   -4.1119    5.1378 H   0  0  0  0  0  0  0  0  0  0  0  0
   -0.6894   -5.5550    6.8116 H   0  0  0  0  0  0  0  0  0  0  0  0
   -1.4138   -8.9812    5.0670 H   0  0  0  0  0  0  0  0  0  0  0  0
   -2.0546   -7.3393    4.8786 H   0  0  0  0  0  0  0  0  0  0  0  0
   -0.4260   -8.8418    3.0278 H   0  0  0  0  0  0  0  0  0  0  0  0
   -0.9452   -7.1788    2.8062 H   0  0  0  0  0  0  0  0  0  0  0  0
    1.7084   -7.8415    3.2226 H   0  0  0  0  0  0  0  0  0  0  0  0
    1.4903   -9.0376    5.0307 H   0  0  0  0  0  0  0  0  0  0  0  0
    2.1806   -8.2476    8.2403 H   0  0  0  0  0  0  0  0  0  0  0  0
    0.6757   -7.4765    8.7235 H   0  0  0  0  0  0  0  0  0  0  0  0
    1.8048   -6.6298    7.6416 H   0  0  0  0  0  0  0  0  0  0  0  0
    1.0566  -10.1668    7.5328 H   0  0  0  0  0  0  0  0  0  0  0  0
   -0.1300  -10.1986    6.2537 H   0  0  0  0  0  0  0  0  0  0  0  0
   -0.5750   -9.5643    7.8540 H   0  0  0  0  0  0  0  0  0  0  0  0
    1.8725   -6.4709   -0.1503 H   0  0  0  0  0  0  0  0  0  0  0  0
    0.4792   -6.1034    0.8126 H   0  0  0  0  0  0  0  0  0  0  0  0
    1.4404   -7.5315    1.1652 H   0  0  0  0  0  0  0  0  0  0  0  0
    4.2595   -6.7049    1.1147 H   0  0  0  0  0  0  0  0  0  0  0  0
    3.6212   -7.2567    2.6365 H   0  0  0  0  0  0  0  0  0  0  0  0
    4.4617   -5.7297    2.5655 H   0  0  0  0  0  0  0  0  0  0  0  0
  1  2  2  0
  1 29  1  0
  1 30  1  0
  2 12  1  0
  2  3  1  0
  3  9  1  0
  3  4  2  0
  4  5  1  0
  4 31  1  0
  5  6  1  0
  5 32  1  0
  5 33  1  0
  6  9  1  0
  6  7  1  6
  6  8  1  0
  7 34  1  0
  7 35  1  0
  7 36  1  0
  9  8  1  6
  9 10  1  0
 10 11  1  0
 10 37  1  0
 10 38  1  0
 11 26  1  0
 11 12  1  0
 11 39  1  6
 12 13  1  0
 12 40  1  1
 13 14  1  0
 13 41  1  0
 13 42  1  0
 14 15  2  3
 14 26  1  0
 15 21  1  0
 15 16  1  0
 16 17  2  0
 16 43  1  0
 17 18  1  0
 17 44  1  0
 18 22  1  0
 18 23  1  1
 18 19  1  0
 19 20  1  0
 19 45  1  0
 19 46  1  0
 20 21  1  0
 20 47  1  0
 20 48  1  0
 21 22  1  0
 21 49  1  6
 22 23  1  0
 22 50  1  1
 23 24  1  0
 23 25  1  0
 24 51  1  0
 24 52  1  0
 24 53  1  0
 25 54  1  0
 25 55  1  0
 25 56  1  0
 26 27  1  0
 26 28  1  0
 27 57  1  0
 27 58  1  0
 27 59  1  0
 28 60  1  0
 28 61  1  0
 28 62  1  0
M  END
>  <i_m_ct_stereo_status>  (283) 
1

>  <s_m_source_file>  (283) 
/var/tmp/pbs.5076255.sched01/tmp1t990xkq/82z3oanzij.sdf

>  <i_m_source_file_index>  (283) 
41

>  <i_lp_mmshare_version>  (283) 
48012

>  <i_f3d_flags>  (283) 
0

>  <s_epik_input>  (283) 
W0NIM11bQ0BdMShPMilbQ0gyXVtDSF09QyhbQ0BdMTIzKUMoPVtDSDJdKVtDQEBIXTRbQ0BASF0oW0NIMl0zKUMoW0NIM10pKFtDSDNdKUMoXFtDSDJdNCk9QygvW0NIXT1bQ0hdNSlbQ0BIXShbQ0gyXVtDSDJdNilbQ0BIXShbQ0BAXTU2NylDNyhbQ0gzXSlbQ0gzXQ==

>  <s_epik_cmdline>  (283) 
J2VwaWtfcHl0aG9uJywgJy1waHQnLCAnMi4wJywgJy1waCcsICc3LjAnLCAnLXRuJywgJzgnLCAnLW1hJywgJzIwMCcsICctaW1hZScsICc8aW5maWxlLm1hZT4nLCAnLW9tYWUnLCAnPG91dGZpbGUubWFlPic=

>  <r_lp_tautomer_probability>  (283) 
1

>  <r_epik_Ionization_Penalty>  (283) 
5.51071e-12

>  <r_epik_Ionization_Penalty_Charging>  (283) 
0

>  <r_epik_Ionization_Penalty_Neutral>  (283) 
5.51071e-12

>  <r_epik_State_Penalty>  (283) 
-0

>  <r_epik_Charging_Adjusted_Penalty>  (283) 
0

>  <i_epik_Tot_Q>  (283) 
0

>  <i_epik_Tot_abs_Q>  (283) 
0

>  <s_lp_Force_Field>  (283) 
OPLS3e

>  <r_lp_Energy>  (283) 
99.918

>  <b_lp_Chiralities_Consistent>  (283) 
1

>  <s_lp_Variant>  (283) 
86:0-1

>  <s_i_glide_gridfile>  (283) 
pfpi4k_grid

>  <i_i_glide_lignum>  (283) 
41

>  <i_i_glide_rotatable_bonds>  (283) 
0

>  <r_i_docking_score>  (283) 
-2.25071

>  <r_i_glide_ligand_efficiency>  (283) 
-0.0803824

>  <r_i_glide_ligand_efficiency_sa>  (283) 
-0.244088

>  <r_i_glide_ligand_efficiency_ln>  (283) 
-0.519529

>  <r_i_glide_gscore>  (283) 
-2.25071

>  <r_i_glide_lipo>  (283) 
-0.311062

>  <r_i_glide_hbond>  (283) 
0

>  <r_i_glide_metal>  (283) 
-0

>  <r_i_glide_rewards>  (283) 
-0.855285

>  <r_i_glide_evdw>  (283) 
-24.3933

>  <r_i_glide_ecoul>  (283) 
0.902027

>  <r_i_glide_erotb>  (283) 
0

>  <r_i_glide_esite>  (283) 
0

>  <r_i_glide_emodel>  (283) 
-26.7973

>  <r_i_glide_energy>  (283) 
-23.4913

>  <r_i_glide_einternal>  (283) 
0

>  <r_i_glide_intrahb_reward>  (283) 
-0

>  <i_i_glide_confnum>  (283) 
1

>  <i_i_glide_posenum>  (283) 
3

>  <r_i_glide_eff_state_penalty>  (283) 
0

>  <ligand_id>  (283) 
86

>  <original_smiles>  (283) 
C=C1C2=CCC3(C)OC23CC2C1CC(=C1C=CC34CCC1C3C4(C)C)C2(C)C

>  <smiles>  (283) 
[H]C([H])=C1C2=C([H])C([H])([H])C3(C([H])([H])[H])OC23C([H])([H])C2([H])C1([H])C([H])([H])C(=C1C([H])=C([H])C34C([H])([H])C([H])([H])C1([H])C3([H])C4(C([H])([H])[H])C([H])([H])[H])C2(C([H])([H])[H])C([H])([H])[H]

$$$$
86:0:2
     RDKit          3D

 62 68  0  0  1  0  0  0  0  0999 V2000
    0.4403   -2.8951    6.2239 C   0  0  0  0  0  0  0  0  0  0  0  0
    1.2862   -2.9102    5.1804 C   0  0  0  0  0  0  0  0  0  0  0  0
    1.5572   -1.7122    4.3949 C   0  0  0  0  0  0  0  0  0  0  0  0
    1.5394   -0.4213    4.7584 C   0  0  0  0  0  0  0  0  0  0  0  0
    1.9135    0.5284    3.6346 C   0  0  0  0  0  0  0  0  0  0  0  0
    2.1632   -0.4270    2.4836 C   0  0  2  0  0  0  0  0  0  0  0  0
    3.1956   -0.0577    1.4422 C   0  0  0  0  0  0  0  0  0  0  0  0
    1.0360   -1.2135    2.0610 O   0  0  0  0  0  0  0  0  0  0  0  0
    1.9512   -1.8184    2.9811 C   0  0  2  0  0  0  0  0  0  0  0  0
    2.6700   -3.0709    2.5244 C   0  0  0  0  0  0  0  0  0  0  0  0
    2.0150   -4.2993    3.1983 C   0  0  2  0  0  0  0  0  0  0  0  0
    2.0322   -4.1660    4.7226 C   0  0  2  0  0  0  0  0  0  0  0  0
    1.5396   -5.5471    5.1704 C   0  0  0  0  0  0  0  0  0  0  0  0
    2.0930   -6.5307    4.1329 C   0  0  0  0  0  0  0  0  0  0  0  0
    2.1092   -7.8864    4.3103 C   0  0  0  0  0  0  0  0  0  0  0  0
    1.5514   -8.4827    5.5182 C   0  0  0  0  0  0  0  0  0  0  0  0
    1.6197   -9.8177    5.6707 C   0  0  0  0  0  0  0  0  0  0  0  0
    2.2998  -10.6437    4.6240 C   0  0  1  0  0  0  0  0  0  0  0  0
    1.3908  -10.9367    3.4498 C   0  0  0  0  0  0  0  0  0  0  0  0
    1.5978   -9.7022    2.5694 C   0  0  0  0  0  0  0  0  0  0  0  0
    2.6965   -8.9073    3.3102 C   0  0  2  0  0  0  0  0  0  0  0  0
    3.5774   -9.9628    4.0126 C   0  0  1  0  0  0  0  0  0  0  0  0
    3.5866  -11.2534    4.8860 C   0  0  0  0  0  0  0  0  0  0  0  0
    4.2166  -11.1948    6.2655 C   0  0  0  0  0  0  0  0  0  0  0  0
    3.9702  -12.5783    4.2339 C   0  0  0  0  0  0  0  0  0  0  0  0
    2.5707   -5.7194    2.9078 C   0  0  0  0  0  0  0  0  0  0  0  0
    1.9705   -6.2151    1.5716 C   0  0  0  0  0  0  0  0  0  0  0  0
    4.1168   -5.6961    2.8399 C   0  0  0  0  0  0  0  0  0  0  0  0
    0.2510   -3.7845    6.8049 H   0  0  0  0  0  0  0  0  0  0  0  0
   -0.0726   -1.9927    6.5241 H   0  0  0  0  0  0  0  0  0  0  0  0
    1.2911   -0.0552    5.7396 H   0  0  0  0  0  0  0  0  0  0  0  0
    1.1049    1.2155    3.3868 H   0  0  0  0  0  0  0  0  0  0  0  0
    2.8078    1.1045    3.8737 H   0  0  0  0  0  0  0  0  0  0  0  0
    4.1847    0.0194    1.9014 H   0  0  0  0  0  0  0  0  0  0  0  0
    2.9420    0.8942    0.9761 H   0  0  0  0  0  0  0  0  0  0  0  0
    3.2267   -0.8259    0.6698 H   0  0  0  0  0  0  0  0  0  0  0  0
    2.6265   -3.1371    1.4388 H   0  0  0  0  0  0  0  0  0  0  0  0
    3.7152   -2.9794    2.8199 H   0  0  0  0  0  0  0  0  0  0  0  0
    0.9657   -4.3009    2.8941 H   0  0  0  0  0  0  0  0  0  0  0  0
    3.0615   -4.0451    5.0566 H   0  0  0  0  0  0  0  0  0  0  0  0
    1.8731   -5.7715    6.1853 H   0  0  0  0  0  0  0  0  0  0  0  0
    0.4498   -5.5968    5.1416 H   0  0  0  0  0  0  0  0  0  0  0  0
    1.0890   -7.8936    6.2974 H   0  0  0  0  0  0  0  0  0  0  0  0
    1.2276  -10.3181    6.5452 H   0  0  0  0  0  0  0  0  0  0  0  0
    1.6949  -11.8457    2.9321 H   0  0  0  0  0  0  0  0  0  0  0  0
    0.3545  -11.0687    3.7727 H   0  0  0  0  0  0  0  0  0  0  0  0
    1.9509  -10.0072    1.5869 H   0  0  0  0  0  0  0  0  0  0  0  0
    0.6758   -9.1324    2.4381 H   0  0  0  0  0  0  0  0  0  0  0  0
    3.3376   -8.4088    2.5934 H   0  0  0  0  0  0  0  0  0  0  0  0
    4.2017  -10.3206    3.1949 H   0  0  0  0  0  0  0  0  0  0  0  0
    5.2912  -11.3641    6.2052 H   0  0  0  0  0  0  0  0  0  0  0  0
    3.7885  -11.9618    6.9075 H   0  0  0  0  0  0  0  0  0  0  0  0
    4.0575  -10.2227    6.7276 H   0  0  0  0  0  0  0  0  0  0  0  0
    5.0470  -12.7394    4.2789 H   0  0  0  0  0  0  0  0  0  0  0  0
    3.6946  -12.6050    3.1801 H   0  0  0  0  0  0  0  0  0  0  0  0
    3.4770  -13.4074    4.7398 H   0  0  0  0  0  0  0  0  0  0  0  0
    2.0898   -5.4598    0.7975 H   0  0  0  0  0  0  0  0  0  0  0  0
    0.9060   -6.4237    1.6654 H   0  0  0  0  0  0  0  0  0  0  0  0
    2.4469   -7.1119    1.1866 H   0  0  0  0  0  0  0  0  0  0  0  0
    4.4654   -5.1080    1.9917 H   0  0  0  0  0  0  0  0  0  0  0  0
    4.5506   -6.6867    2.7273 H   0  0  0  0  0  0  0  0  0  0  0  0
    4.5507   -5.2660    3.7422 H   0  0  0  0  0  0  0  0  0  0  0  0
  1  2  2  0
  1 29  1  0
  1 30  1  0
  2 12  1  0
  2  3  1  0
  3  9  1  0
  3  4  2  0
  4  5  1  0
  4 31  1  0
  5  6  1  0
  5 32  1  0
  5 33  1  0
  6  9  1  0
  6  7  1  6
  6  8  1  0
  7 34  1  0
  7 35  1  0
  7 36  1  0
  9  8  1  6
  9 10  1  0
 10 11  1  0
 10 37  1  0
 10 38  1  0
 11 26  1  0
 11 12  1  0
 11 39  1  6
 12 13  1  0
 12 40  1  1
 13 14  1  0
 13 41  1  0
 13 42  1  0
 14 15  2  3
 14 26  1  0
 15 21  1  0
 15 16  1  0
 16 17  2  0
 16 43  1  0
 17 18  1  0
 17 44  1  0
 18 22  1  0
 18 23  1  1
 18 19  1  0
 19 20  1  0
 19 45  1  0
 19 46  1  0
 20 21  1  0
 20 47  1  0
 20 48  1  0
 21 22  1  0
 21 49  1  6
 22 23  1  0
 22 50  1  1
 23 24  1  0
 23 25  1  0
 24 51  1  0
 24 52  1  0
 24 53  1  0
 25 54  1  0
 25 55  1  0
 25 56  1  0
 26 27  1  0
 26 28  1  0
 27 57  1  0
 27 58  1  0
 27 59  1  0
 28 60  1  0
 28 61  1  0
 28 62  1  0
M  END
>  <i_m_ct_stereo_status>  (284) 
1

>  <s_m_source_file>  (284) 
/var/tmp/pbs.5076255.sched01/tmp1t990xkq/82z3oanzij.sdf

>  <i_m_source_file_index>  (284) 
41

>  <i_lp_mmshare_version>  (284) 
48012

>  <i_f3d_flags>  (284) 
0

>  <s_epik_input>  (284) 
W0NIM11bQ0BdMShPMilbQ0gyXVtDSF09QyhbQ0BdMTIzKUMoPVtDSDJdKVtDQEBIXTRbQ0BASF0oW0NIMl0zKUMoW0NIM10pKFtDSDNdKUMoXFtDSDJdNCk9QygvW0NIXT1bQ0hdNSlbQ0BIXShbQ0gyXVtDSDJdNilbQ0BIXShbQ0BAXTU2NylDNyhbQ0gzXSlbQ0gzXQ==

>  <s_epik_cmdline>  (284) 
J2VwaWtfcHl0aG9uJywgJy1waHQnLCAnMi4wJywgJy1waCcsICc3LjAnLCAnLXRuJywgJzgnLCAnLW1hJywgJzIwMCcsICctaW1hZScsICc8aW5maWxlLm1hZT4nLCAnLW9tYWUnLCAnPG91dGZpbGUubWFlPic=

>  <r_lp_tautomer_probability>  (284) 
1

>  <r_epik_Ionization_Penalty>  (284) 
5.51071e-12

>  <r_epik_Ionization_Penalty_Charging>  (284) 
0

>  <r_epik_Ionization_Penalty_Neutral>  (284) 
5.51071e-12

>  <r_epik_State_Penalty>  (284) 
-0

>  <r_epik_Charging_Adjusted_Penalty>  (284) 
0

>  <i_epik_Tot_Q>  (284) 
0

>  <i_epik_Tot_abs_Q>  (284) 
0

>  <s_lp_Force_Field>  (284) 
OPLS3e

>  <r_lp_Energy>  (284) 
99.918

>  <b_lp_Chiralities_Consistent>  (284) 
1

>  <s_lp_Variant>  (284) 
86:0-1

>  <s_i_glide_gridfile>  (284) 
pfpi4k_grid

>  <i_i_glide_lignum>  (284) 
41

>  <i_i_glide_rotatable_bonds>  (284) 
0

>  <r_i_docking_score>  (284) 
-2.09263

>  <r_i_glide_ligand_efficiency>  (284) 
-0.0747369

>  <r_i_glide_ligand_efficiency_sa>  (284) 
-0.226945

>  <r_i_glide_ligand_efficiency_ln>  (284) 
-0.483041

>  <r_i_glide_gscore>  (284) 
-2.09263

>  <r_i_glide_lipo>  (284) 
-0.260841

>  <r_i_glide_hbond>  (284) 
0

>  <r_i_glide_metal>  (284) 
-0

>  <r_i_glide_rewards>  (284) 
-0.855285

>  <r_i_glide_evdw>  (284) 
-24.5686

>  <r_i_glide_ecoul>  (284) 
1.67946

>  <r_i_glide_erotb>  (284) 
0

>  <r_i_glide_esite>  (284) 
0

>  <r_i_glide_emodel>  (284) 
-26.0383

>  <r_i_glide_energy>  (284) 
-22.8891

>  <r_i_glide_einternal>  (284) 
0

>  <r_i_glide_intrahb_reward>  (284) 
-0

>  <i_i_glide_confnum>  (284) 
2

>  <i_i_glide_posenum>  (284) 
2

>  <r_i_glide_eff_state_penalty>  (284) 
0

>  <ligand_id>  (284) 
86

>  <original_smiles>  (284) 
C=C1C2=CCC3(C)OC23CC2C1CC(=C1C=CC34CCC1C3C4(C)C)C2(C)C

>  <smiles>  (284) 
[H]C([H])=C1C2=C([H])C([H])([H])C3(C([H])([H])[H])OC23C([H])([H])C2([H])C1([H])C([H])([H])C(=C1C([H])=C([H])C34C([H])([H])C([H])([H])C1([H])C3([H])C4(C([H])([H])[H])C([H])([H])[H])C2(C([H])([H])[H])C([H])([H])[H]

$$$$
88:0:0
     RDKit          3D

 28 29  0  0  1  0  0  0  0  0999 V2000
    3.8220   -1.8149    0.1495 C   0  0  0  0  0  0  0  0  0  0  0  0
    3.5457   -2.9465   -0.8480 C   0  0  0  0  0  0  0  0  0  0  0  0
    2.8477   -4.0118   -0.2159 O   0  0  0  0  0  0  0  0  0  0  0  0
    3.5234   -5.0305    0.3742 C   0  0  0  0  0  0  0  0  0  0  0  0
    4.7531   -5.1075    0.4081 O   0  0  0  0  0  0  0  0  0  0  0  0
    2.6061   -6.0470    0.9675 C   0  0  0  0  0  0  0  0  0  0  0  0
    1.2482   -5.8893    0.9360 N   0  0  0  0  0  0  0  0  0  0  0  0
    0.8116   -6.9790    1.5606 C   0  0  0  0  0  0  0  0  0  0  0  0
   -0.4497   -7.3332    1.8593 N   0  0  0  0  0  0  0  0  0  0  0  0
   -0.6053   -8.4946    2.4883 C   0  0  0  0  0  0  0  0  0  0  0  0
   -2.0392   -8.8897    2.7598 C   0  0  0  0  0  0  0  0  0  0  0  0
    0.4629   -9.3411    2.8821 C   0  0  0  0  0  0  0  0  0  0  0  0
    1.7498   -8.9505    2.5844 C   0  0  0  0  0  0  0  0  0  0  0  0
    2.9675   -9.7739    2.9583 C   0  0  0  0  0  0  0  0  0  0  0  0
    1.9163   -7.7661    1.9274 N   0  0  0  0  0  0  0  0  0  0  0  0
    3.0717   -7.1502    1.5463 N   0  0  0  0  0  0  0  0  0  0  0  0
    4.3506   -0.9914   -0.3314 H   0  0  0  0  0  0  0  0  0  0  0  0
    4.4347   -2.1660    0.9801 H   0  0  0  0  0  0  0  0  0  0  0  0
    2.8912   -1.4214    0.5602 H   0  0  0  0  0  0  0  0  0  0  0  0
    2.9307   -2.5701   -1.6646 H   0  0  0  0  0  0  0  0  0  0  0  0
    4.4744   -3.2964   -1.3012 H   0  0  0  0  0  0  0  0  0  0  0  0
   -2.0891   -9.8484    3.2738 H   0  0  0  0  0  0  0  0  0  0  0  0
   -2.5922   -8.9812    1.8229 H   0  0  0  0  0  0  0  0  0  0  0  0
   -2.5260   -8.1397    3.3848 H   0  0  0  0  0  0  0  0  0  0  0  0
    0.2731  -10.2815    3.3932 H   0  0  0  0  0  0  0  0  0  0  0  0
    2.6764  -10.6920    3.4699 H   0  0  0  0  0  0  0  0  0  0  0  0
    3.6181   -9.2058    3.6252 H   0  0  0  0  0  0  0  0  0  0  0  0
    3.5356  -10.0474    2.0669 H   0  0  0  0  0  0  0  0  0  0  0  0
  1  2  1  0
  1 17  1  0
  1 18  1  0
  1 19  1  0
  2  3  1  0
  2 20  1  0
  2 21  1  0
  3  4  1  0
  4  5  2  0
  4  6  1  0
  6 16  2  0
  6  7  1  0
  7  8  2  0
  8 15  1  0
  8  9  1  0
  9 10  2  0
 10 11  1  0
 10 12  1  0
 11 22  1  0
 11 23  1  0
 11 24  1  0
 12 13  2  0
 12 25  1  0
 13 14  1  0
 13 15  1  0
 14 26  1  0
 14 27  1  0
 14 28  1  0
 15 16  1  0
M  END
>  <i_m_ct_stereo_status>  (285) 
1

>  <s_m_source_file>  (285) 
/var/tmp/pbs.5076255.sched01/tmpb6g28bo8/1236hu3uqnd.sdf

>  <i_m_source_file_index>  (285) 
3

>  <i_lp_mmshare_version>  (285) 
48012

>  <i_f3d_flags>  (285) 
0

>  <s_epik_input>  (285) 
W0NIM11bQ0gyXU9DKD1PKWMobjEpbm4oYzEyKWMoW0NIM10pW2NIXWMobjIpW0NIM10=

>  <s_epik_cmdline>  (285) 
J2VwaWtfcHl0aG9uJywgJy1waHQnLCAnMi4wJywgJy1waCcsICc3LjAnLCAnLXRuJywgJzgnLCAnLW1hJywgJzIwMCcsICctaW1hZScsICc8aW5maWxlLm1hZT4nLCAnLW9tYWUnLCAnPG91dGZpbGUubWFlPic=

>  <r_lp_tautomer_probability>  (285) 
1

>  <r_epik_Ionization_Penalty>  (285) 
3.22768e-08

>  <r_epik_Ionization_Penalty_Charging>  (285) 
0

>  <r_epik_Ionization_Penalty_Neutral>  (285) 
3.22768e-08

>  <r_epik_State_Penalty>  (285) 
-0

>  <r_epik_Charging_Adjusted_Penalty>  (285) 
0

>  <i_epik_Tot_Q>  (285) 
0

>  <i_epik_Tot_abs_Q>  (285) 
0

>  <s_epik_Chemistry_Notes>  (285) 
This compound has an ester and may undergo hydrolysis at high or low pH.

>  <s_lp_Force_Field>  (285) 
OPLS3e

>  <r_lp_Energy>  (285) 
21.0386

>  <b_lp_Chiralities_Consistent>  (285) 
1

>  <s_lp_Variant>  (285) 
88:0-1

>  <s_i_glide_gridfile>  (285) 
pfpi4k_grid

>  <i_i_glide_lignum>  (285) 
3

>  <i_i_glide_rotatable_bonds>  (285) 
3

>  <r_i_docking_score>  (285) 
-3.54603

>  <r_i_glide_ligand_efficiency>  (285) 
-0.221627

>  <r_i_glide_ligand_efficiency_sa>  (285) 
-0.558465

>  <r_i_glide_ligand_efficiency_ln>  (285) 
-0.939947

>  <r_i_glide_gscore>  (285) 
-3.54603

>  <r_i_glide_lipo>  (285) 
-0.0460365

>  <r_i_glide_hbond>  (285) 
-0.16

>  <r_i_glide_metal>  (285) 
-0

>  <r_i_glide_rewards>  (285) 
-1.90754

>  <r_i_glide_evdw>  (285) 
-20.63

>  <r_i_glide_ecoul>  (285) 
-6.48435

>  <r_i_glide_erotb>  (285) 
0.694808

>  <r_i_glide_esite>  (285) 
-0.123115

>  <r_i_glide_emodel>  (285) 
-34.1423

>  <r_i_glide_energy>  (285) 
-27.1143

>  <r_i_glide_einternal>  (285) 
0.275648

>  <r_i_glide_intrahb_reward>  (285) 
-0

>  <i_i_glide_confnum>  (285) 
6

>  <i_i_glide_posenum>  (285) 
16

>  <r_i_glide_eff_state_penalty>  (285) 
0

>  <ligand_id>  (285) 
88

>  <original_smiles>  (285) 
CCOC(=O)c1nc2nc(C)cc(C)n2n1

>  <smiles>  (285) 
[H]c1c(C([H])([H])[H])nc2nc(C(=O)OC([H])([H])C([H])([H])[H])nn2c1C([H])([H])[H]

$$$$
88:0:1
     RDKit          3D

 28 29  0  0  1  0  0  0  0  0999 V2000
    3.5462   -2.9228   -2.0640 C   0  0  0  0  0  0  0  0  0  0  0  0
    3.7012   -2.8617   -0.5401 C   0  0  0  0  0  0  0  0  0  0  0  0
    3.0011   -3.9358    0.0729 O   0  0  0  0  0  0  0  0  0  0  0  0
    3.6380   -5.0901    0.3918 C   0  0  0  0  0  0  0  0  0  0  0  0
    4.8451   -5.2783    0.2255 O   0  0  0  0  0  0  0  0  0  0  0  0
    2.7077   -6.1040    0.9680 C   0  0  0  0  0  0  0  0  0  0  0  0
    1.3607   -5.8786    1.0338 N   0  0  0  0  0  0  0  0  0  0  0  0
    0.9063   -6.9912    1.6013 C   0  0  0  0  0  0  0  0  0  0  0  0
   -0.3543   -7.3141    1.9389 N   0  0  0  0  0  0  0  0  0  0  0  0
   -0.5312   -8.5118    2.4893 C   0  0  0  0  0  0  0  0  0  0  0  0
   -1.9657   -8.8601    2.8242 C   0  0  0  0  0  0  0  0  0  0  0  0
    0.5147   -9.4305    2.7646 C   0  0  0  0  0  0  0  0  0  0  0  0
    1.8015   -9.0789    2.4193 C   0  0  0  0  0  0  0  0  0  0  0  0
    2.9944   -9.9862    2.6560 C   0  0  0  0  0  0  0  0  0  0  0  0
    1.9895   -7.8570    1.8411 N   0  0  0  0  0  0  0  0  0  0  0  0
    3.1501   -7.2705    1.4292 N   0  0  0  0  0  0  0  0  0  0  0  0
    4.0733   -2.0959   -2.5405 H   0  0  0  0  0  0  0  0  0  0  0  0
    2.4963   -2.8587   -2.3538 H   0  0  0  0  0  0  0  0  0  0  0  0
    3.9499   -3.8541   -2.4629 H   0  0  0  0  0  0  0  0  0  0  0  0
    4.7564   -2.8609   -0.2640 H   0  0  0  0  0  0  0  0  0  0  0  0
    3.2867   -1.9257   -0.1673 H   0  0  0  0  0  0  0  0  0  0  0  0
   -2.0332   -9.8502    3.2726 H   0  0  0  0  0  0  0  0  0  0  0  0
   -2.5830   -8.8534    1.9241 H   0  0  0  0  0  0  0  0  0  0  0  0
   -2.3747   -8.1375    3.5319 H   0  0  0  0  0  0  0  0  0  0  0  0
    0.3080  -10.3980    3.2135 H   0  0  0  0  0  0  0  0  0  0  0  0
    2.6881  -10.9270    3.1157 H   0  0  0  0  0  0  0  0  0  0  0  0
    3.7130   -9.5023    3.3198 H   0  0  0  0  0  0  0  0  0  0  0  0
    3.4948  -10.2196    1.7139 H   0  0  0  0  0  0  0  0  0  0  0  0
  1  2  1  0
  1 17  1  0
  1 18  1  0
  1 19  1  0
  2  3  1  0
  2 20  1  0
  2 21  1  0
  3  4  1  0
  4  5  2  0
  4  6  1  0
  6 16  2  0
  6  7  1  0
  7  8  2  0
  8 15  1  0
  8  9  1  0
  9 10  2  0
 10 11  1  0
 10 12  1  0
 11 22  1  0
 11 23  1  0
 11 24  1  0
 12 13  2  0
 12 25  1  0
 13 14  1  0
 13 15  1  0
 14 26  1  0
 14 27  1  0
 14 28  1  0
 15 16  1  0
M  END
>  <i_m_ct_stereo_status>  (286) 
1

>  <s_m_source_file>  (286) 
/var/tmp/pbs.5076255.sched01/tmpb6g28bo8/1236hu3uqnd.sdf

>  <i_m_source_file_index>  (286) 
3

>  <i_lp_mmshare_version>  (286) 
48012

>  <i_f3d_flags>  (286) 
0

>  <s_epik_input>  (286) 
W0NIM11bQ0gyXU9DKD1PKWMobjEpbm4oYzEyKWMoW0NIM10pW2NIXWMobjIpW0NIM10=

>  <s_epik_cmdline>  (286) 
J2VwaWtfcHl0aG9uJywgJy1waHQnLCAnMi4wJywgJy1waCcsICc3LjAnLCAnLXRuJywgJzgnLCAnLW1hJywgJzIwMCcsICctaW1hZScsICc8aW5maWxlLm1hZT4nLCAnLW9tYWUnLCAnPG91dGZpbGUubWFlPic=

>  <r_lp_tautomer_probability>  (286) 
1

>  <r_epik_Ionization_Penalty>  (286) 
3.22768e-08

>  <r_epik_Ionization_Penalty_Charging>  (286) 
0

>  <r_epik_Ionization_Penalty_Neutral>  (286) 
3.22768e-08

>  <r_epik_State_Penalty>  (286) 
-0

>  <r_epik_Charging_Adjusted_Penalty>  (286) 
0

>  <i_epik_Tot_Q>  (286) 
0

>  <i_epik_Tot_abs_Q>  (286) 
0

>  <s_epik_Chemistry_Notes>  (286) 
This compound has an ester and may undergo hydrolysis at high or low pH.

>  <s_lp_Force_Field>  (286) 
OPLS3e

>  <r_lp_Energy>  (286) 
21.0386

>  <b_lp_Chiralities_Consistent>  (286) 
1

>  <s_lp_Variant>  (286) 
88:0-1

>  <s_i_glide_gridfile>  (286) 
pfpi4k_grid

>  <i_i_glide_lignum>  (286) 
3

>  <i_i_glide_rotatable_bonds>  (286) 
3

>  <r_i_docking_score>  (286) 
-3.45158

>  <r_i_glide_ligand_efficiency>  (286) 
-0.215724

>  <r_i_glide_ligand_efficiency_sa>  (286) 
-0.54359

>  <r_i_glide_ligand_efficiency_ln>  (286) 
-0.91491

>  <r_i_glide_gscore>  (286) 
-3.45158

>  <r_i_glide_lipo>  (286) 
-0.0355196

>  <r_i_glide_hbond>  (286) 
-0.15531

>  <r_i_glide_metal>  (286) 
-0

>  <r_i_glide_rewards>  (286) 
-1.90754

>  <r_i_glide_evdw>  (286) 
-22.0546

>  <r_i_glide_ecoul>  (286) 
-5.58389

>  <r_i_glide_erotb>  (286) 
0.694808

>  <r_i_glide_esite>  (286) 
-0.107707

>  <r_i_glide_emodel>  (286) 
-34.4251

>  <r_i_glide_energy>  (286) 
-27.6385

>  <r_i_glide_einternal>  (286) 
0.336016

>  <r_i_glide_intrahb_reward>  (286) 
-0

>  <i_i_glide_confnum>  (286) 
3

>  <i_i_glide_posenum>  (286) 
9

>  <r_i_glide_eff_state_penalty>  (286) 
0

>  <ligand_id>  (286) 
88

>  <original_smiles>  (286) 
CCOC(=O)c1nc2nc(C)cc(C)n2n1

>  <smiles>  (286) 
[H]c1c(C([H])([H])[H])nc2nc(C(=O)OC([H])([H])C([H])([H])[H])nn2c1C([H])([H])[H]

$$$$
88:0:2
     RDKit          3D

 28 29  0  0  1  0  0  0  0  0999 V2000
    7.3129   -5.4218    0.8755 C   0  0  0  0  0  0  0  0  0  0  0  0
    5.9971   -4.8163    0.3735 C   0  0  0  0  0  0  0  0  0  0  0  0
    4.9269   -5.6473    0.7936 O   0  0  0  0  0  0  0  0  0  0  0  0
    3.6459   -5.2472    0.6285 C   0  0  0  0  0  0  0  0  0  0  0  0
    3.3241   -4.1775    0.1062 O   0  0  0  0  0  0  0  0  0  0  0  0
    2.6643   -6.2351    1.1673 C   0  0  0  0  0  0  0  0  0  0  0  0
    1.3228   -5.9720    1.1579 N   0  0  0  0  0  0  0  0  0  0  0  0
    0.8084   -7.0631    1.7190 C   0  0  0  0  0  0  0  0  0  0  0  0
   -0.4739   -7.3548    1.9988 N   0  0  0  0  0  0  0  0  0  0  0  0
   -0.7029   -8.5446    2.5519 C   0  0  0  0  0  0  0  0  0  0  0  0
   -2.1558   -8.8619    2.8154 C   0  0  0  0  0  0  0  0  0  0  0  0
    0.3066   -9.4864    2.8804 C   0  0  0  0  0  0  0  0  0  0  0  0
    1.6147   -9.1633    2.6048 C   0  0  0  0  0  0  0  0  0  0  0  0
    2.7781  -10.0863    2.9178 C   0  0  0  0  0  0  0  0  0  0  0  0
    1.8556   -7.9516    2.0272 N   0  0  0  0  0  0  0  0  0  0  0  0
    3.0490   -7.4012    1.6791 N   0  0  0  0  0  0  0  0  0  0  0  0
    8.1653   -4.8139    0.5726 H   0  0  0  0  0  0  0  0  0  0  0  0
    7.4634   -6.4268    0.4795 H   0  0  0  0  0  0  0  0  0  0  0  0
    7.3243   -5.4907    1.9641 H   0  0  0  0  0  0  0  0  0  0  0  0
    5.8786   -3.8083    0.7733 H   0  0  0  0  0  0  0  0  0  0  0  0
    6.0002   -4.7389   -0.7140 H   0  0  0  0  0  0  0  0  0  0  0  0
   -2.2595   -9.8445    3.2728 H   0  0  0  0  0  0  0  0  0  0  0  0
   -2.7163   -8.8613    1.8798 H   0  0  0  0  0  0  0  0  0  0  0  0
   -2.5851   -8.1232    3.4917 H   0  0  0  0  0  0  0  0  0  0  0  0
    0.0604  -10.4382    3.3417 H   0  0  0  0  0  0  0  0  0  0  0  0
    2.4318  -11.0153    3.3729 H   0  0  0  0  0  0  0  0  0  0  0  0
    3.4702   -9.6065    3.6115 H   0  0  0  0  0  0  0  0  0  0  0  0
    3.3243  -10.3392    2.0072 H   0  0  0  0  0  0  0  0  0  0  0  0
  1  2  1  0
  1 17  1  0
  1 18  1  0
  1 19  1  0
  2  3  1  0
  2 20  1  0
  2 21  1  0
  3  4  1  0
  4  5  2  0
  4  6  1  0
  6 16  2  0
  6  7  1  0
  7  8  2  0
  8 15  1  0
  8  9  1  0
  9 10  2  0
 10 11  1  0
 10 12  1  0
 11 22  1  0
 11 23  1  0
 11 24  1  0
 12 13  2  0
 12 25  1  0
 13 14  1  0
 13 15  1  0
 14 26  1  0
 14 27  1  0
 14 28  1  0
 15 16  1  0
M  END
>  <i_m_ct_stereo_status>  (287) 
1

>  <s_m_source_file>  (287) 
/var/tmp/pbs.5076255.sched01/tmpb6g28bo8/1236hu3uqnd.sdf

>  <i_m_source_file_index>  (287) 
3

>  <i_lp_mmshare_version>  (287) 
48012

>  <i_f3d_flags>  (287) 
0

>  <s_epik_input>  (287) 
W0NIM11bQ0gyXU9DKD1PKWMobjEpbm4oYzEyKWMoW0NIM10pW2NIXWMobjIpW0NIM10=

>  <s_epik_cmdline>  (287) 
J2VwaWtfcHl0aG9uJywgJy1waHQnLCAnMi4wJywgJy1waCcsICc3LjAnLCAnLXRuJywgJzgnLCAnLW1hJywgJzIwMCcsICctaW1hZScsICc8aW5maWxlLm1hZT4nLCAnLW9tYWUnLCAnPG91dGZpbGUubWFlPic=

>  <r_lp_tautomer_probability>  (287) 
1

>  <r_epik_Ionization_Penalty>  (287) 
3.22768e-08

>  <r_epik_Ionization_Penalty_Charging>  (287) 
0

>  <r_epik_Ionization_Penalty_Neutral>  (287) 
3.22768e-08

>  <r_epik_State_Penalty>  (287) 
-0

>  <r_epik_Charging_Adjusted_Penalty>  (287) 
0

>  <i_epik_Tot_Q>  (287) 
0

>  <i_epik_Tot_abs_Q>  (287) 
0

>  <s_epik_Chemistry_Notes>  (287) 
This compound has an ester and may undergo hydrolysis at high or low pH.

>  <s_lp_Force_Field>  (287) 
OPLS3e

>  <r_lp_Energy>  (287) 
21.0386

>  <b_lp_Chiralities_Consistent>  (287) 
1

>  <s_lp_Variant>  (287) 
88:0-1

>  <s_i_glide_gridfile>  (287) 
pfpi4k_grid

>  <i_i_glide_lignum>  (287) 
3

>  <i_i_glide_rotatable_bonds>  (287) 
3

>  <r_i_docking_score>  (287) 
-3.44956

>  <r_i_glide_ligand_efficiency>  (287) 
-0.215598

>  <r_i_glide_ligand_efficiency_sa>  (287) 
-0.543272

>  <r_i_glide_ligand_efficiency_ln>  (287) 
-0.914375

>  <r_i_glide_gscore>  (287) 
-3.44956

>  <r_i_glide_lipo>  (287) 
-0.246183

>  <r_i_glide_hbond>  (287) 
-0.165439

>  <r_i_glide_metal>  (287) 
-0

>  <r_i_glide_rewards>  (287) 
-1.90754

>  <r_i_glide_evdw>  (287) 
-21.7892

>  <r_i_glide_ecoul>  (287) 
-4.23531

>  <r_i_glide_erotb>  (287) 
0.694808

>  <r_i_glide_esite>  (287) 
-0.100455

>  <r_i_glide_emodel>  (287) 
-32.7447

>  <r_i_glide_energy>  (287) 
-26.0245

>  <r_i_glide_einternal>  (287) 
0.55095

>  <r_i_glide_intrahb_reward>  (287) 
-0

>  <i_i_glide_confnum>  (287) 
1

>  <i_i_glide_posenum>  (287) 
25

>  <r_i_glide_eff_state_penalty>  (287) 
0

>  <ligand_id>  (287) 
88

>  <original_smiles>  (287) 
CCOC(=O)c1nc2nc(C)cc(C)n2n1

>  <smiles>  (287) 
[H]c1c(C([H])([H])[H])nc2nc(C(=O)OC([H])([H])C([H])([H])[H])nn2c1C([H])([H])[H]

$$$$
89:0:0
     RDKit          3D

 61 65  0  0  1  0  0  0  0  0999 V2000
    8.2851   -1.2268    0.5706 C   0  0  0  0  0  0  0  0  0  0  0  0
    7.1092   -2.0322    0.0439 C   0  0  0  0  0  0  0  0  0  0  0  0
    5.8525   -2.1841    0.5245 C   0  0  0  0  0  0  0  0  0  0  0  0
    5.3929   -1.6100    1.7833 C   0  0  0  0  0  0  0  0  0  0  0  0
    5.8376   -0.5480    2.3534 N   0  0  0  0  0  0  0  0  0  0  0  0
    5.0520   -0.1473    3.3850 N   0  0  0  0  0  0  0  0  0  0  0  0
    5.8090    0.1802    4.5822 C   0  0  0  0  0  0  0  0  0  0  0  0
    3.8577   -0.9881    3.4175 C   0  0  1  0  0  0  0  0  0  0  0  0
    2.5480   -0.3144    3.0286 C   0  0  0  0  0  0  0  0  0  0  0  0
    1.3406   -0.7108    3.6405 C   0  0  0  0  0  0  0  0  0  0  0  0
    0.1445   -0.0757    3.2610 C   0  0  0  0  0  0  0  0  0  0  0  0
    0.2002    0.9305    2.2700 C   0  0  0  0  0  0  0  0  0  0  0  0
    1.3481    1.3308    1.6992 N   0  0  0  0  0  0  0  0  0  0  0  0
    2.4915    0.7252    2.0623 C   0  0  0  0  0  0  0  0  0  0  0  0
    4.2654   -2.1749    2.5641 C   0  0  1  0  0  0  0  0  0  0  0  0
    3.2280   -2.8793    1.6852 C   0  0  0  0  0  0  0  0  0  0  0  0
    3.8849   -3.8257    0.7601 N   0  0  0  0  0  0  0  0  0  0  0  0
    4.2125   -5.4527    1.2765 S   0  0  0  0  0  0  0  0  0  0  0  0
    4.5996   -6.2284    0.0873 O   0  0  0  0  0  0  0  0  0  0  0  0
    5.1249   -5.3695    2.4280 O   0  0  0  0  0  0  0  0  0  0  0  0
    2.5946   -6.0331    1.8126 C   0  0  0  0  0  0  0  0  0  0  0  0
    2.3481   -6.2442    3.1857 C   0  0  0  0  0  0  0  0  0  0  0  0
    1.0748   -6.6793    3.6107 C   0  0  0  0  0  0  0  0  0  0  0  0
    0.0493   -6.9122    2.6659 C   0  0  0  0  0  0  0  0  0  0  0  0
   -1.3099   -7.3644    3.1517 C   0  0  0  0  0  0  0  0  0  0  0  0
    0.3034   -6.7179    1.2854 C   0  0  0  0  0  0  0  0  0  0  0  0
    1.5759   -6.2635    0.8618 C   0  0  0  0  0  0  0  0  0  0  0  0
    4.8771   -3.1697   -0.1317 C   0  0  1  0  0  0  0  0  0  0  0  0
    4.1813   -2.5433   -1.3517 C   0  0  0  0  0  0  0  0  0  0  0  0
    3.0902   -3.2057   -1.9527 C   0  0  0  0  0  0  0  0  0  0  0  0
    2.4905   -2.6348   -3.0857 C   0  0  0  0  0  0  0  0  0  0  0  0
    2.9991   -1.4170   -3.5700 C   0  0  0  0  0  0  0  0  0  0  0  0
    4.0676   -0.8172   -2.8895 C   0  0  0  0  0  0  0  0  0  0  0  0
    4.6590   -1.3690   -1.8190 N   0  0  0  0  0  0  0  0  0  0  0  0
    9.2252   -1.7853    0.4695 H   0  0  0  0  0  0  0  0  0  0  0  0
    8.1255   -0.9554    1.6029 H   0  0  0  0  0  0  0  0  0  0  0  0
    8.4072   -0.2816    0.0921 H   0  0  0  0  0  0  0  0  0  0  0  0
    7.3588   -2.5845   -0.8507 H   0  0  0  0  0  0  0  0  0  0  0  0
    5.1511    0.5611    5.3559 H   0  0  0  0  0  0  0  0  0  0  0  0
    6.6053    0.8990    4.3731 H   0  0  0  0  0  0  0  0  0  0  0  0
    6.2197   -0.7505    4.9760 H   0  0  0  0  0  0  0  0  0  0  0  0
    3.7262   -1.3148    4.4471 H   0  0  0  0  0  0  0  0  0  0  0  0
    1.3327   -1.4928    4.3877 H   0  0  0  0  0  0  0  0  0  0  0  0
   -0.8005   -0.3671    3.6851 H   0  0  0  0  0  0  0  0  0  0  0  0
   -0.6997    1.4092    1.9166 H   0  0  0  0  0  0  0  0  0  0  0  0
    3.3818    1.0813    1.5716 H   0  0  0  0  0  0  0  0  0  0  0  0
    4.7225   -2.9084    3.2375 H   0  0  0  0  0  0  0  0  0  0  0  0
    2.5126   -3.3869    2.3362 H   0  0  0  0  0  0  0  0  0  0  0  0
    2.6679   -2.1567    1.0870 H   0  0  0  0  0  0  0  0  0  0  0  0
    3.1314   -6.0828    3.9065 H   0  0  0  0  0  0  0  0  0  0  0  0
    0.8937   -6.8432    4.6634 H   0  0  0  0  0  0  0  0  0  0  0  0
   -2.0626   -7.2863    2.3696 H   0  0  0  0  0  0  0  0  0  0  0  0
   -1.6364   -6.7560    3.9991 H   0  0  0  0  0  0  0  0  0  0  0  0
   -1.2802   -8.4075    3.4704 H   0  0  0  0  0  0  0  0  0  0  0  0
   -0.4677   -6.9388    0.5586 H   0  0  0  0  0  0  0  0  0  0  0  0
    1.7906   -6.1280   -0.1875 H   0  0  0  0  0  0  0  0  0  0  0  0
    5.5156   -3.9518   -0.5413 H   0  0  0  0  0  0  0  0  0  0  0  0
    2.7290   -4.1409   -1.5518 H   0  0  0  0  0  0  0  0  0  0  0  0
    1.6317   -3.0938   -3.5451 H   0  0  0  0  0  0  0  0  0  0  0  0
    2.5209   -0.9179   -4.3945 H   0  0  0  0  0  0  0  0  0  0  0  0
    4.4370    0.1468   -3.2013 H   0  0  0  0  0  0  0  0  0  0  0  0
  1  2  1  0
  1 35  1  0
  1 36  1  0
  1 37  1  0
  2  3  2  3
  2 38  1  0
  3 28  1  0
  3  4  1  0
  4 15  1  0
  4  5  2  0
  5  6  1  0
  6  7  1  0
  6  8  1  0
  7 39  1  0
  7 40  1  0
  7 41  1  0
  8  9  1  0
  8 15  1  0
  8 42  1  1
  9 14  1  0
  9 10  2  0
 10 11  1  0
 10 43  1  0
 11 12  2  0
 11 44  1  0
 12 13  1  0
 12 45  1  0
 13 14  2  0
 14 46  1  0
 15 16  1  0
 15 47  1  1
 16 17  1  0
 16 48  1  0
 16 49  1  0
 17 18  1  0
 17 28  1  0
 18 19  2  0
 18 20  2  0
 18 21  1  0
 21 27  1  0
 21 22  2  0
 22 23  1  0
 22 50  1  0
 23 24  2  0
 23 51  1  0
 24 25  1  0
 24 26  1  0
 25 52  1  0
 25 53  1  0
 25 54  1  0
 26 27  2  0
 26 55  1  0
 27 56  1  0
 28 29  1  0
 28 57  1  6
 29 34  1  0
 29 30  2  0
 30 31  1  0
 30 58  1  0
 31 32  2  0
 31 59  1  0
 32 33  1  0
 32 60  1  0
 33 34  2  0
 33 61  1  0
M  END
>  <i_m_ct_stereo_status>  (288) 
1

>  <s_m_source_file>  (288) 
/var/tmp/pbs.5076255.sched01/tmpb6g28bo8/1236hu3uqnd.sdf

>  <i_m_source_file_index>  (288) 
4

>  <i_lp_mmshare_version>  (288) 
48012

>  <i_f3d_flags>  (288) 
0

>  <s_epik_input>  (288) 
W2NIXTFbY0hdYyhbQ0gzXSlbY0hdW2NIXWMxUyg9TykoPU8pTihbQ0BIXShDXDI9W0NIXVxbQ0gzXSljM1tjSF1bY0hdW2NIXVtjSF1uMylbQ0gyXVtDQEBIXShDMj00KVtDQEBIXShOKE40KVtDSDNdKWM1W2NIXVtjSF1bY0hdbltjSF01

>  <s_epik_cmdline>  (288) 
J2VwaWtfcHl0aG9uJywgJy1waHQnLCAnMi4wJywgJy1waCcsICc3LjAnLCAnLXRuJywgJzgnLCAnLW1hJywgJzIwMCcsICctaW1hZScsICc8aW5maWxlLm1hZT4nLCAnLW9tYWUnLCAnPG91dGZpbGUubWFlPic=

>  <r_epik_Ionization_Penalty>  (288) 
0.0062666

>  <r_epik_Ionization_Penalty_Charging>  (288) 
0

>  <r_epik_Ionization_Penalty_Neutral>  (288) 
0.0062666

>  <r_epik_State_Penalty>  (288) 
0.00438448

>  <r_epik_Charging_Adjusted_Penalty>  (288) 
0.00438448

>  <i_epik_Tot_Q>  (288) 
0

>  <i_epik_Tot_abs_Q>  (288) 
0

>  <s_epik_Chemistry_Notes>  (288) 
This compound has an imine and may undergo hydrolysis.

>  <s_lp_Force_Field>  (288) 
OPLS3e

>  <r_lp_Energy>  (288) 
53.1228

>  <b_lp_Chiralities_Consistent>  (288) 
1

>  <s_lp_Variant>  (288) 
89:0-1

>  <s_i_glide_gridfile>  (288) 
pfpi4k_grid

>  <i_i_glide_lignum>  (288) 
4

>  <i_i_glide_rotatable_bonds>  (288) 
4

>  <r_i_docking_score>  (288) 
-2.8906

>  <r_i_glide_ligand_efficiency>  (288) 
-0.0850177

>  <r_i_glide_ligand_efficiency_sa>  (288) 
-0.275424

>  <r_i_glide_ligand_efficiency_ln>  (288) 
-0.638615

>  <r_i_glide_gscore>  (288) 
-2.8906

>  <r_i_glide_lipo>  (288) 
-0.592775

>  <r_i_glide_hbond>  (288) 
-0.0481634

>  <r_i_glide_metal>  (288) 
-0

>  <r_i_glide_rewards>  (288) 
-0.53743

>  <r_i_glide_evdw>  (288) 
-37.592

>  <r_i_glide_ecoul>  (288) 
-1.28929

>  <r_i_glide_erotb>  (288) 
0.360762

>  <r_i_glide_esite>  (288) 
0

>  <r_i_glide_emodel>  (288) 
-43.0156

>  <r_i_glide_energy>  (288) 
-38.8813

>  <r_i_glide_einternal>  (288) 
5.86522

>  <r_i_glide_intrahb_reward>  (288) 
-0

>  <i_i_glide_confnum>  (288) 
3

>  <i_i_glide_posenum>  (288) 
17

>  <r_i_glide_eff_state_penalty>  (288) 
0

>  <ligand_id>  (288) 
89

>  <original_smiles>  (288) 
CC=C1C2=NN(C)C(c3cccnc3)C2CN(S(=O)(=O)c2ccc(C)cc2)C1c1ccccn1

>  <smiles>  (288) 
[H]C(=C1C2=NN(C([H])([H])[H])C([H])(c3c([H])nc([H])c([H])c3[H])C2([H])C([H])([H])N(S(=O)(=O)c2c([H])c([H])c(C([H])([H])[H])c([H])c2[H])C1([H])c1nc([H])c([H])c([H])c1[H])C([H])([H])[H]

$$$$
89:0:1
     RDKit          3D

 61 65  0  0  1  0  0  0  0  0999 V2000
    8.1139   -1.2438    0.5951 C   0  0  0  0  0  0  0  0  0  0  0  0
    6.9605   -2.0533    0.0466 C   0  0  0  0  0  0  0  0  0  0  0  0
    5.7058   -2.1887    0.5079 C   0  0  0  0  0  0  0  0  0  0  0  0
    5.2192   -1.6230    1.7600 C   0  0  0  0  0  0  0  0  0  0  0  0
    5.6621   -0.5580    2.3276 N   0  0  0  0  0  0  0  0  0  0  0  0
    4.8678   -0.1726    3.3653 N   0  0  0  0  0  0  0  0  0  0  0  0
    5.6167    0.1902    4.5598 C   0  0  0  0  0  0  0  0  0  0  0  0
    3.6652   -0.9963    3.3786 C   0  0  1  0  0  0  0  0  0  0  0  0
    2.3822   -0.2902    2.9431 C   0  0  0  0  0  0  0  0  0  0  0  0
    2.3932    0.8798    2.1459 C   0  0  0  0  0  0  0  0  0  0  0  0
    1.1731    1.4933    1.8434 C   0  0  0  0  0  0  0  0  0  0  0  0
   -0.0249    0.9198    2.3018 C   0  0  0  0  0  0  0  0  0  0  0  0
   -0.0466   -0.1593    3.1136 N   0  0  0  0  0  0  0  0  0  0  0  0
    1.1257   -0.7569    3.3972 C   0  0  0  0  0  0  0  0  0  0  0  0
    4.0862   -2.1901    2.5341 C   0  0  1  0  0  0  0  0  0  0  0  0
    3.0631   -2.9072    1.6461 C   0  0  0  0  0  0  0  0  0  0  0  0
    3.7425   -3.8570    0.7433 N   0  0  0  0  0  0  0  0  0  0  0  0
    4.0789   -5.4711    1.2855 S   0  0  0  0  0  0  0  0  0  0  0  0
    4.5188   -6.2492    0.1171 O   0  0  0  0  0  0  0  0  0  0  0  0
    4.9525   -5.3673    2.4639 O   0  0  0  0  0  0  0  0  0  0  0  0
    2.4492   -6.0654    1.7643 C   0  0  0  0  0  0  0  0  0  0  0  0
    2.1577   -6.2926    3.1247 C   0  0  0  0  0  0  0  0  0  0  0  0
    0.8781   -6.7486    3.5046 C   0  0  0  0  0  0  0  0  0  0  0  0
   -0.1086   -6.9910    2.5256 C   0  0  0  0  0  0  0  0  0  0  0  0
   -1.4810   -7.4680    2.9597 C   0  0  0  0  0  0  0  0  0  0  0  0
    0.1899   -6.7805    1.1594 C   0  0  0  0  0  0  0  0  0  0  0  0
    1.4660   -6.3001    0.7797 C   0  0  0  0  0  0  0  0  0  0  0  0
    4.7413   -3.1990   -0.1468 C   0  0  1  0  0  0  0  0  0  0  0  0
    4.0541   -2.5945   -1.3768 C   0  0  0  0  0  0  0  0  0  0  0  0
    2.9258   -3.2258   -1.9427 C   0  0  0  0  0  0  0  0  0  0  0  0
    2.3353   -2.6670   -3.0859 C   0  0  0  0  0  0  0  0  0  0  0  0
    2.8919   -1.5011   -3.6296 C   0  0  0  0  0  0  0  0  0  0  0  0
    3.9962   -0.9261   -2.9889 C   0  0  0  0  0  0  0  0  0  0  0  0
    4.5806   -1.4610   -1.9001 N   0  0  0  0  0  0  0  0  0  0  0  0
    9.0621   -1.7628    0.4870 H   0  0  0  0  0  0  0  0  0  0  0  0
    7.9470   -1.0031    1.6483 H   0  0  0  0  0  0  0  0  0  0  0  0
    8.2078   -0.2894    0.1004 H   0  0  0  0  0  0  0  0  0  0  0  0
    7.2271   -2.6015   -0.8360 H   0  0  0  0  0  0  0  0  0  0  0  0
    4.9305    0.5882    5.3054 H   0  0  0  0  0  0  0  0  0  0  0  0
    6.3873    0.9334    4.3320 H   0  0  0  0  0  0  0  0  0  0  0  0
    6.0758   -0.7069    4.9640 H   0  0  0  0  0  0  0  0  0  0  0  0
    3.5003   -1.3167    4.4030 H   0  0  0  0  0  0  0  0  0  0  0  0
    3.3139    1.3278    1.7905 H   0  0  0  0  0  0  0  0  0  0  0  0
    1.1339    2.4180    1.2950 H   0  0  0  0  0  0  0  0  0  0  0  0
   -0.9764    1.3419    2.0166 H   0  0  0  0  0  0  0  0  0  0  0  0
    1.0497   -1.6498    4.0012 H   0  0  0  0  0  0  0  0  0  0  0  0
    4.5402   -2.9079    3.2137 H   0  0  0  0  0  0  0  0  0  0  0  0
    2.3515   -3.4106    2.2964 H   0  0  0  0  0  0  0  0  0  0  0  0
    2.5108   -2.1903    1.0346 H   0  0  0  0  0  0  0  0  0  0  0  0
    2.9173   -6.1277    3.8762 H   0  0  0  0  0  0  0  0  0  0  0  0
    0.6598   -6.9214    4.5535 H   0  0  0  0  0  0  0  0  0  0  0  0
   -2.1948   -7.4078    2.1433 H   0  0  0  0  0  0  0  0  0  0  0  0
   -1.8486   -6.8626    3.7919 H   0  0  0  0  0  0  0  0  0  0  0  0
   -1.4490   -8.5094    3.2750 H   0  0  0  0  0  0  0  0  0  0  0  0
   -0.5560   -7.0115    0.4051 H   0  0  0  0  0  0  0  0  0  0  0  0
    1.7165   -6.1604   -0.2659 H   0  0  0  0  0  0  0  0  0  0  0  0
    5.3965   -3.9821   -0.5365 H   0  0  0  0  0  0  0  0  0  0  0  0
    2.5345   -4.1370   -1.5146 H   0  0  0  0  0  0  0  0  0  0  0  0
    1.4491   -3.1078   -3.5183 H   0  0  0  0  0  0  0  0  0  0  0  0
    2.4284   -1.0202   -4.4722 H   0  0  0  0  0  0  0  0  0  0  0  0
    4.4109    0.0019   -3.3458 H   0  0  0  0  0  0  0  0  0  0  0  0
  1  2  1  0
  1 35  1  0
  1 36  1  0
  1 37  1  0
  2  3  2  3
  2 38  1  0
  3 28  1  0
  3  4  1  0
  4 15  1  0
  4  5  2  0
  5  6  1  0
  6  7  1  0
  6  8  1  0
  7 39  1  0
  7 40  1  0
  7 41  1  0
  8  9  1  0
  8 15  1  0
  8 42  1  1
  9 14  1  0
  9 10  2  0
 10 11  1  0
 10 43  1  0
 11 12  2  0
 11 44  1  0
 12 13  1  0
 12 45  1  0
 13 14  2  0
 14 46  1  0
 15 16  1  0
 15 47  1  1
 16 17  1  0
 16 48  1  0
 16 49  1  0
 17 18  1  0
 17 28  1  0
 18 19  2  0
 18 20  2  0
 18 21  1  0
 21 27  1  0
 21 22  2  0
 22 23  1  0
 22 50  1  0
 23 24  2  0
 23 51  1  0
 24 25  1  0
 24 26  1  0
 25 52  1  0
 25 53  1  0
 25 54  1  0
 26 27  2  0
 26 55  1  0
 27 56  1  0
 28 29  1  0
 28 57  1  6
 29 34  1  0
 29 30  2  0
 30 31  1  0
 30 58  1  0
 31 32  2  0
 31 59  1  0
 32 33  1  0
 32 60  1  0
 33 34  2  0
 33 61  1  0
M  END
>  <i_m_ct_stereo_status>  (289) 
1

>  <s_m_source_file>  (289) 
/var/tmp/pbs.5076255.sched01/tmpb6g28bo8/1236hu3uqnd.sdf

>  <i_m_source_file_index>  (289) 
4

>  <i_lp_mmshare_version>  (289) 
48012

>  <i_f3d_flags>  (289) 
0

>  <s_epik_input>  (289) 
W2NIXTFbY0hdYyhbQ0gzXSlbY0hdW2NIXWMxUyg9TykoPU8pTihbQ0BIXShDXDI9W0NIXVxbQ0gzXSljM1tjSF1bY0hdW2NIXVtjSF1uMylbQ0gyXVtDQEBIXShDMj00KVtDQEBIXShOKE40KVtDSDNdKWM1W2NIXVtjSF1bY0hdbltjSF01

>  <s_epik_cmdline>  (289) 
J2VwaWtfcHl0aG9uJywgJy1waHQnLCAnMi4wJywgJy1waCcsICc3LjAnLCAnLXRuJywgJzgnLCAnLW1hJywgJzIwMCcsICctaW1hZScsICc8aW5maWxlLm1hZT4nLCAnLW9tYWUnLCAnPG91dGZpbGUubWFlPic=

>  <r_epik_Ionization_Penalty>  (289) 
0.0062666

>  <r_epik_Ionization_Penalty_Charging>  (289) 
0

>  <r_epik_Ionization_Penalty_Neutral>  (289) 
0.0062666

>  <r_epik_State_Penalty>  (289) 
0.00438448

>  <r_epik_Charging_Adjusted_Penalty>  (289) 
0.00438448

>  <i_epik_Tot_Q>  (289) 
0

>  <i_epik_Tot_abs_Q>  (289) 
0

>  <s_epik_Chemistry_Notes>  (289) 
This compound has an imine and may undergo hydrolysis.

>  <s_lp_Force_Field>  (289) 
OPLS3e

>  <r_lp_Energy>  (289) 
53.1228

>  <b_lp_Chiralities_Consistent>  (289) 
1

>  <s_lp_Variant>  (289) 
89:0-1

>  <s_i_glide_gridfile>  (289) 
pfpi4k_grid

>  <i_i_glide_lignum>  (289) 
4

>  <i_i_glide_rotatable_bonds>  (289) 
4

>  <r_i_docking_score>  (289) 
-2.73453

>  <r_i_glide_ligand_efficiency>  (289) 
-0.0804272

>  <r_i_glide_ligand_efficiency_sa>  (289) 
-0.260553

>  <r_i_glide_ligand_efficiency_ln>  (289) 
-0.604133

>  <r_i_glide_gscore>  (289) 
-2.73453

>  <r_i_glide_lipo>  (289) 
-0.599706

>  <r_i_glide_hbond>  (289) 
-0.0321387

>  <r_i_glide_metal>  (289) 
-0

>  <r_i_glide_rewards>  (289) 
-0.483165

>  <r_i_glide_evdw>  (289) 
-35.7689

>  <r_i_glide_ecoul>  (289) 
-1.27887

>  <r_i_glide_erotb>  (289) 
0.360762

>  <r_i_glide_esite>  (289) 
0

>  <r_i_glide_emodel>  (289) 
-40.4814

>  <r_i_glide_energy>  (289) 
-37.0478

>  <r_i_glide_einternal>  (289) 
6.64134

>  <r_i_glide_intrahb_reward>  (289) 
-0

>  <i_i_glide_confnum>  (289) 
2

>  <i_i_glide_posenum>  (289) 
6

>  <r_i_glide_eff_state_penalty>  (289) 
0

>  <ligand_id>  (289) 
89

>  <original_smiles>  (289) 
CC=C1C2=NN(C)C(c3cccnc3)C2CN(S(=O)(=O)c2ccc(C)cc2)C1c1ccccn1

>  <smiles>  (289) 
[H]C(=C1C2=NN(C([H])([H])[H])C([H])(c3c([H])nc([H])c([H])c3[H])C2([H])C([H])([H])N(S(=O)(=O)c2c([H])c([H])c(C([H])([H])[H])c([H])c2[H])C1([H])c1nc([H])c([H])c([H])c1[H])C([H])([H])[H]

$$$$
89:0:2
     RDKit          3D

 61 65  0  0  1  0  0  0  0  0999 V2000
    7.5353   -5.8608    2.9299 C   0  0  0  0  0  0  0  0  0  0  0  0
    6.0964   -5.3928    3.0480 C   0  0  0  0  0  0  0  0  0  0  0  0
    5.4050   -4.5062    2.2863 C   0  0  0  0  0  0  0  0  0  0  0  0
    6.0597   -3.6842    1.2688 C   0  0  0  0  0  0  0  0  0  0  0  0
    7.0432   -4.0149    0.5199 N   0  0  0  0  0  0  0  0  0  0  0  0
    7.2479   -3.1229   -0.4834 N   0  0  0  0  0  0  0  0  0  0  0  0
    8.6260   -2.7009   -0.6220 C   0  0  0  0  0  0  0  0  0  0  0  0
    6.1233   -2.1962   -0.5198 C   0  0  1  0  0  0  0  0  0  0  0  0
    5.1305   -2.3086   -1.6973 C   0  0  0  0  0  0  0  0  0  0  0  0
    4.0669   -1.3880   -1.8368 C   0  0  0  0  0  0  0  0  0  0  0  0
    3.1297   -1.5769   -2.8593 C   0  0  0  0  0  0  0  0  0  0  0  0
    3.3281   -2.6245   -3.7703 C   0  0  0  0  0  0  0  0  0  0  0  0
    4.4008   -3.4414   -3.7261 N   0  0  0  0  0  0  0  0  0  0  0  0
    5.2570   -3.3026   -2.6900 C   0  0  0  0  0  0  0  0  0  0  0  0
    5.5517   -2.3537    0.8820 C   0  0  1  0  0  0  0  0  0  0  0  0
    4.0647   -2.2302    1.1062 C   0  0  0  0  0  0  0  0  0  0  0  0
    3.6624   -2.6002    2.4715 N   0  0  0  0  0  0  0  0  0  0  0  0
    3.6746   -1.4217    3.7552 S   0  0  0  0  0  0  0  0  0  0  0  0
    3.4919   -2.1326    5.0290 O   0  0  0  0  0  0  0  0  0  0  0  0
    4.8499   -0.5730    3.5693 O   0  0  0  0  0  0  0  0  0  0  0  0
    2.1791   -0.4416    3.4864 C   0  0  0  0  0  0  0  0  0  0  0  0
    1.9380    0.2248    2.2623 C   0  0  0  0  0  0  0  0  0  0  0  0
    0.7584    0.9214    2.0226 C   0  0  0  0  0  0  0  0  0  0  0  0
   -0.1855    1.0501    3.0438 C   0  0  0  0  0  0  0  0  0  0  0  0
   -1.4297    1.8459    2.7573 C   0  0  0  0  0  0  0  0  0  0  0  0
    0.0518    0.4610    4.3125 C   0  0  0  0  0  0  0  0  0  0  0  0
    1.2329   -0.3011    4.5295 C   0  0  0  0  0  0  0  0  0  0  0  0
    4.0154   -4.0173    2.7560 C   0  0  1  0  0  0  0  0  0  0  0  0
    2.9326   -4.9645    2.2260 C   0  0  0  0  0  0  0  0  0  0  0  0
    2.1078   -5.7052    3.1016 C   0  0  0  0  0  0  0  0  0  0  0  0
    1.1280   -6.5646    2.5663 C   0  0  0  0  0  0  0  0  0  0  0  0
    0.9715   -6.6314    1.1736 C   0  0  0  0  0  0  0  0  0  0  0  0
    1.8348   -5.8653    0.3737 C   0  0  0  0  0  0  0  0  0  0  0  0
    2.7856   -5.0608    0.8770 N   0  0  0  0  0  0  0  0  0  0  0  0
    7.9368   -6.0413    3.9230 H   0  0  0  0  0  0  0  0  0  0  0  0
    8.1965   -5.1447    2.4515 H   0  0  0  0  0  0  0  0  0  0  0  0
    7.5610   -6.7982    2.3785 H   0  0  0  0  0  0  0  0  0  0  0  0
    5.5624   -5.8465    3.8661 H   0  0  0  0  0  0  0  0  0  0  0  0
    8.7257   -2.0849   -1.5147 H   0  0  0  0  0  0  0  0  0  0  0  0
    9.2827   -3.5605   -0.7083 H   0  0  0  0  0  0  0  0  0  0  0  0
    8.8883   -2.1051    0.2469 H   0  0  0  0  0  0  0  0  0  0  0  0
    6.5300   -1.1889   -0.6031 H   0  0  0  0  0  0  0  0  0  0  0  0
    3.9174   -0.5759   -1.1415 H   0  0  0  0  0  0  0  0  0  0  0  0
    2.2582   -0.9400   -2.9008 H   0  0  0  0  0  0  0  0  0  0  0  0
    2.6260   -2.8027   -4.5682 H   0  0  0  0  0  0  0  0  0  0  0  0
    6.0744   -4.0063   -2.6896 H   0  0  0  0  0  0  0  0  0  0  0  0
    6.0632   -1.6345    1.5190 H   0  0  0  0  0  0  0  0  0  0  0  0
    3.9127   -1.1720    0.9047 H   0  0  0  0  0  0  0  0  0  0  0  0
    3.4829   -2.7811    0.3702 H   0  0  0  0  0  0  0  0  0  0  0  0
    2.6443    0.2653    1.4290 H   0  0  0  0  0  0  0  0  0  0  0  0
    0.6037    1.3614    1.0425 H   0  0  0  0  0  0  0  0  0  0  0  0
   -2.1691    1.6964    3.5400 H   0  0  0  0  0  0  0  0  0  0  0  0
   -1.8453    1.5245    1.7998 H   0  0  0  0  0  0  0  0  0  0  0  0
   -1.1786    2.9059    2.6908 H   0  0  0  0  0  0  0  0  0  0  0  0
   -0.6653    0.5987    5.1155 H   0  0  0  0  0  0  0  0  0  0  0  0
    1.4154   -0.7399    5.5042 H   0  0  0  0  0  0  0  0  0  0  0  0
    4.0150   -4.1508    3.8350 H   0  0  0  0  0  0  0  0  0  0  0  0
    2.2541   -5.6312    4.1736 H   0  0  0  0  0  0  0  0  0  0  0  0
    0.5060   -7.1593    3.2226 H   0  0  0  0  0  0  0  0  0  0  0  0
    0.2372   -7.2809    0.7228 H   0  0  0  0  0  0  0  0  0  0  0  0
    1.7415   -5.8600   -0.6989 H   0  0  0  0  0  0  0  0  0  0  0  0
  1  2  1  0
  1 35  1  0
  1 36  1  0
  1 37  1  0
  2  3  2  3
  2 38  1  0
  3 28  1  0
  3  4  1  0
  4 15  1  0
  4  5  2  0
  5  6  1  0
  6  7  1  0
  6  8  1  0
  7 39  1  0
  7 40  1  0
  7 41  1  0
  8  9  1  0
  8 15  1  0
  8 42  1  1
  9 14  1  0
  9 10  2  0
 10 11  1  0
 10 43  1  0
 11 12  2  0
 11 44  1  0
 12 13  1  0
 12 45  1  0
 13 14  2  0
 14 46  1  0
 15 16  1  0
 15 47  1  1
 16 17  1  0
 16 48  1  0
 16 49  1  0
 17 18  1  0
 17 28  1  0
 18 19  2  0
 18 20  2  0
 18 21  1  0
 21 27  1  0
 21 22  2  0
 22 23  1  0
 22 50  1  0
 23 24  2  0
 23 51  1  0
 24 25  1  0
 24 26  1  0
 25 52  1  0
 25 53  1  0
 25 54  1  0
 26 27  2  0
 26 55  1  0
 27 56  1  0
 28 29  1  0
 28 57  1  1
 29 34  1  0
 29 30  2  0
 30 31  1  0
 30 58  1  0
 31 32  2  0
 31 59  1  0
 32 33  1  0
 32 60  1  0
 33 34  2  0
 33 61  1  0
M  END
>  <i_m_ct_stereo_status>  (290) 
1

>  <s_m_source_file>  (290) 
/var/tmp/pbs.5076255.sched01/tmpb6g28bo8/1236hu3uqnd.sdf

>  <i_m_source_file_index>  (290) 
4

>  <i_lp_mmshare_version>  (290) 
48012

>  <i_f3d_flags>  (290) 
0

>  <s_epik_input>  (290) 
W2NIXTFbY0hdYyhbQ0gzXSlbY0hdW2NIXWMxUyg9TykoPU8pTihbQ0BIXShDXDI9W0NIXVxbQ0gzXSljM1tjSF1bY0hdW2NIXVtjSF1uMylbQ0gyXVtDQEBIXShDMj00KVtDQEBIXShOKE40KVtDSDNdKWM1W2NIXVtjSF1bY0hdbltjSF01

>  <s_epik_cmdline>  (290) 
J2VwaWtfcHl0aG9uJywgJy1waHQnLCAnMi4wJywgJy1waCcsICc3LjAnLCAnLXRuJywgJzgnLCAnLW1hJywgJzIwMCcsICctaW1hZScsICc8aW5maWxlLm1hZT4nLCAnLW9tYWUnLCAnPG91dGZpbGUubWFlPic=

>  <r_epik_Ionization_Penalty>  (290) 
0.0062666

>  <r_epik_Ionization_Penalty_Charging>  (290) 
0

>  <r_epik_Ionization_Penalty_Neutral>  (290) 
0.0062666

>  <r_epik_State_Penalty>  (290) 
0.00438448

>  <r_epik_Charging_Adjusted_Penalty>  (290) 
0.00438448

>  <i_epik_Tot_Q>  (290) 
0

>  <i_epik_Tot_abs_Q>  (290) 
0

>  <s_epik_Chemistry_Notes>  (290) 
This compound has an imine and may undergo hydrolysis.

>  <s_lp_Force_Field>  (290) 
OPLS3e

>  <r_lp_Energy>  (290) 
53.1228

>  <b_lp_Chiralities_Consistent>  (290) 
1

>  <s_lp_Variant>  (290) 
89:0-1

>  <s_i_glide_gridfile>  (290) 
pfpi4k_grid

>  <i_i_glide_lignum>  (290) 
4

>  <i_i_glide_rotatable_bonds>  (290) 
4

>  <r_i_docking_score>  (290) 
-2.7335

>  <r_i_glide_ligand_efficiency>  (290) 
-0.0803971

>  <r_i_glide_ligand_efficiency_sa>  (290) 
-0.260455

>  <r_i_glide_ligand_efficiency_ln>  (290) 
-0.603907

>  <r_i_glide_gscore>  (290) 
-2.7335

>  <r_i_glide_lipo>  (290) 
-0.497381

>  <r_i_glide_hbond>  (290) 
0

>  <r_i_glide_metal>  (290) 
-0

>  <r_i_glide_rewards>  (290) 
-0.442647

>  <r_i_glide_evdw>  (290) 
-40.5824

>  <r_i_glide_ecoul>  (290) 
-0.834114

>  <r_i_glide_erotb>  (290) 
0.360762

>  <r_i_glide_esite>  (290) 
0

>  <r_i_glide_emodel>  (290) 
-43.603

>  <r_i_glide_energy>  (290) 
-41.4165

>  <r_i_glide_einternal>  (290) 
6.87608

>  <r_i_glide_intrahb_reward>  (290) 
-0

>  <i_i_glide_confnum>  (290) 
3

>  <i_i_glide_posenum>  (290) 
28

>  <r_i_glide_eff_state_penalty>  (290) 
0

>  <ligand_id>  (290) 
89

>  <original_smiles>  (290) 
CC=C1C2=NN(C)C(c3cccnc3)C2CN(S(=O)(=O)c2ccc(C)cc2)C1c1ccccn1

>  <smiles>  (290) 
[H]C(=C1C2=NN(C([H])([H])[H])C([H])(c3c([H])nc([H])c([H])c3[H])C2([H])C([H])([H])N(S(=O)(=O)c2c([H])c([H])c(C([H])([H])[H])c([H])c2[H])C1([H])c1nc([H])c([H])c([H])c1[H])C([H])([H])[H]

$$$$
89:1:0
     RDKit          3D

 61 65  0  0  1  0  0  0  0  0999 V2000
    0.6199   -5.6307    8.5359 C   0  0  0  0  0  0  0  0  0  0  0  0
    0.5339   -4.4382    7.5970 C   0  0  0  0  0  0  0  0  0  0  0  0
    1.0082   -4.3833    6.3324 C   0  0  0  0  0  0  0  0  0  0  0  0
    0.7359   -3.2032    5.5241 C   0  0  0  0  0  0  0  0  0  0  0  0
    0.3958   -2.0422    5.9665 N   0  0  0  0  0  0  0  0  0  0  0  0
    0.4561   -1.1008    4.9681 N   0  0  0  0  0  0  0  0  0  0  0  0
   -0.7572   -0.2987    4.8759 C   0  0  0  0  0  0  0  0  0  0  0  0
    1.0558   -1.7068    3.7775 C   0  0  1  0  0  0  0  0  0  0  0  0
    2.4801   -1.2759    3.4352 C   0  0  0  0  0  0  0  0  0  0  0  0
    2.8222   -0.9400    2.1067 C   0  0  0  0  0  0  0  0  0  0  0  0
    4.1486   -0.5683    1.8217 C   0  0  0  0  0  0  0  0  0  0  0  0
    5.0792   -0.5405    2.8782 C   0  0  0  0  0  0  0  0  0  0  0  0
    4.7621   -0.8382    4.1532 N   0  0  0  0  0  0  0  0  0  0  0  0
    3.4901   -1.1941    4.4224 C   0  0  0  0  0  0  0  0  0  0  0  0
    0.8710   -3.1897    4.0445 C   0  0  1  0  0  0  0  0  0  0  0  0
    1.8844   -4.2221    3.5246 C   0  0  0  0  0  0  0  0  0  0  0  0
    1.5744   -5.5480    4.1022 N   0  0  0  0  0  0  0  0  0  0  0  0
    0.4321   -6.6152    3.3141 S   0  0  0  0  0  0  0  0  0  0  0  0
   -0.7978   -6.6339    4.1165 O   0  0  0  0  0  0  0  0  0  0  0  0
    0.3599   -6.2569    1.8898 O   0  0  0  0  0  0  0  0  0  0  0  0
    1.2250   -8.2122    3.4184 C   0  0  0  0  0  0  0  0  0  0  0  0
    2.0051   -8.6660    2.3361 C   0  0  0  0  0  0  0  0  0  0  0  0
    2.6366   -9.9208    2.4169 C   0  0  0  0  0  0  0  0  0  0  0  0
    2.4876  -10.7183    3.5725 C   0  0  0  0  0  0  0  0  0  0  0  0
    3.1825  -12.0568    3.6511 C   0  0  0  0  0  0  0  0  0  0  0  0
    1.6974  -10.2614    4.6512 C   0  0  0  0  0  0  0  0  0  0  0  0
    1.0551   -9.0090    4.5694 C   0  0  0  0  0  0  0  0  0  0  0  0
    1.6564   -5.5692    5.5886 C   0  0  1  0  0  0  0  0  0  0  0  0
    3.1056   -5.7993    6.0387 C   0  0  0  0  0  0  0  0  0  0  0  0
    3.6291   -7.1075    6.1184 C   0  0  0  0  0  0  0  0  0  0  0  0
    4.9628   -7.2849    6.5210 C   0  0  0  0  0  0  0  0  0  0  0  0
    5.7267   -6.1505    6.8343 C   0  0  0  0  0  0  0  0  0  0  0  0
    5.1235   -4.8862    6.7239 C   0  0  0  0  0  0  0  0  0  0  0  0
    3.8492   -4.7059    6.3256 N   0  0  0  0  0  0  0  0  0  0  0  0
    1.1482   -5.3517    9.4444 H   0  0  0  0  0  0  0  0  0  0  0  0
    1.1432   -6.4822    8.1083 H   0  0  0  0  0  0  0  0  0  0  0  0
   -0.3765   -5.9664    8.8179 H   0  0  0  0  0  0  0  0  0  0  0  0
    0.0159   -3.5873    8.0214 H   0  0  0  0  0  0  0  0  0  0  0  0
   -0.6294    0.4818    4.1276 H   0  0  0  0  0  0  0  0  0  0  0  0
   -1.0050    0.1612    5.8314 H   0  0  0  0  0  0  0  0  0  0  0  0
   -1.5845   -0.9321    4.5540 H   0  0  0  0  0  0  0  0  0  0  0  0
    0.4439   -1.4238    2.9213 H   0  0  0  0  0  0  0  0  0  0  0  0
    2.0830   -0.9633    1.3159 H   0  0  0  0  0  0  0  0  0  0  0  0
    4.4485   -0.3033    0.8206 H   0  0  0  0  0  0  0  0  0  0  0  0
    6.1071   -0.2615    2.7039 H   0  0  0  0  0  0  0  0  0  0  0  0
    3.2769   -1.4307    5.4521 H   0  0  0  0  0  0  0  0  0  0  0  0
   -0.1166   -3.4516    3.6792 H   0  0  0  0  0  0  0  0  0  0  0  0
    1.8594   -4.2509    2.4358 H   0  0  0  0  0  0  0  0  0  0  0  0
    2.9000   -3.9444    3.8201 H   0  0  0  0  0  0  0  0  0  0  0  0
    2.1059   -8.0749    1.4394 H   0  0  0  0  0  0  0  0  0  0  0  0
    3.2259  -10.2775    1.5836 H   0  0  0  0  0  0  0  0  0  0  0  0
    2.7850  -12.6578    4.4696 H   0  0  0  0  0  0  0  0  0  0  0  0
    4.2491  -11.9216    3.8237 H   0  0  0  0  0  0  0  0  0  0  0  0
    3.0541  -12.6127    2.7212 H   0  0  0  0  0  0  0  0  0  0  0  0
    1.5829  -10.8692    5.5409 H   0  0  0  0  0  0  0  0  0  0  0  0
    0.4435   -8.6633    5.3875 H   0  0  0  0  0  0  0  0  0  0  0  0
    1.0834   -6.4363    5.9194 H   0  0  0  0  0  0  0  0  0  0  0  0
    3.0247   -7.9651    5.8842 H   0  0  0  0  0  0  0  0  0  0  0  0
    5.3828   -8.2756    6.5887 H   0  0  0  0  0  0  0  0  0  0  0  0
    6.7515   -6.2487    7.1471 H   0  0  0  0  0  0  0  0  0  0  0  0
    5.6818   -3.9946    6.9606 H   0  0  0  0  0  0  0  0  0  0  0  0
  1  2  1  0
  1 35  1  0
  1 36  1  0
  1 37  1  0
  2  3  2  3
  2 38  1  0
  3 28  1  0
  3  4  1  0
  4 15  1  0
  4  5  2  0
  5  6  1  0
  6  7  1  0
  6  8  1  0
  7 39  1  0
  7 40  1  0
  7 41  1  0
  8  9  1  0
  8 15  1  0
  8 42  1  6
  9 14  1  0
  9 10  2  0
 10 11  1  0
 10 43  1  0
 11 12  2  0
 11 44  1  0
 12 13  1  0
 12 45  1  0
 13 14  2  0
 14 46  1  0
 15 16  1  0
 15 47  1  6
 16 17  1  0
 16 48  1  0
 16 49  1  0
 17 18  1  0
 17 28  1  0
 18 19  2  0
 18 20  2  0
 18 21  1  0
 21 27  1  0
 21 22  2  0
 22 23  1  0
 22 50  1  0
 23 24  2  0
 23 51  1  0
 24 25  1  0
 24 26  1  0
 25 52  1  0
 25 53  1  0
 25 54  1  0
 26 27  2  0
 26 55  1  0
 27 56  1  0
 28 29  1  0
 28 57  1  1
 29 34  1  0
 29 30  2  0
 30 31  1  0
 30 58  1  0
 31 32  2  0
 31 59  1  0
 32 33  1  0
 32 60  1  0
 33 34  2  0
 33 61  1  0
M  END
>  <i_m_ct_stereo_status>  (291) 
1

>  <s_m_source_file>  (291) 
/var/tmp/pbs.5076255.sched01/tmpb6g28bo8/1236hu3uqnd.sdf

>  <i_m_source_file_index>  (291) 
5

>  <i_lp_mmshare_version>  (291) 
48012

>  <i_f3d_flags>  (291) 
0

>  <s_epik_input>  (291) 
W2NIXTFbY0hdYyhbQ0gzXSlbY0hdW2NIXWMxUyg9TykoPU8pTihbQ0BIXShDXDI9W0NIXVxbQ0gzXSljM1tjSF1bY0hdW2NIXVtjSF1uMylbQ0gyXVtDQEBIXShDMj00KVtDQEBIXShOKE40KVtDSDNdKWM1W2NIXVtjSF1bY0hdbltjSF01

>  <s_epik_cmdline>  (291) 
J2VwaWtfcHl0aG9uJywgJy1waHQnLCAnMi4wJywgJy1waCcsICc3LjAnLCAnLXRuJywgJzgnLCAnLW1hJywgJzIwMCcsICctaW1hZScsICc8aW5maWxlLm1hZT4nLCAnLW9tYWUnLCAnPG91dGZpbGUubWFlPic=

>  <r_epik_Ionization_Penalty>  (291) 
0.0062666

>  <r_epik_Ionization_Penalty_Charging>  (291) 
0

>  <r_epik_Ionization_Penalty_Neutral>  (291) 
0.0062666

>  <r_epik_State_Penalty>  (291) 
0.00438448

>  <r_epik_Charging_Adjusted_Penalty>  (291) 
0.00438448

>  <i_epik_Tot_Q>  (291) 
0

>  <i_epik_Tot_abs_Q>  (291) 
0

>  <s_epik_Chemistry_Notes>  (291) 
This compound has an imine and may undergo hydrolysis.

>  <s_lp_Force_Field>  (291) 
OPLS3e

>  <r_lp_Energy>  (291) 
49.3241

>  <b_lp_Chiralities_Consistent>  (291) 
1

>  <s_lp_Variant>  (291) 
89:0-2

>  <s_i_glide_gridfile>  (291) 
pfpi4k_grid

>  <i_i_glide_lignum>  (291) 
5

>  <i_i_glide_rotatable_bonds>  (291) 
4

>  <r_i_docking_score>  (291) 
-2.64613

>  <r_i_glide_ligand_efficiency>  (291) 
-0.0778273

>  <r_i_glide_ligand_efficiency_sa>  (291) 
-0.25213

>  <r_i_glide_ligand_efficiency_ln>  (291) 
-0.584604

>  <r_i_glide_gscore>  (291) 
-2.64613

>  <r_i_glide_lipo>  (291) 
-0.241497

>  <r_i_glide_hbond>  (291) 
0

>  <r_i_glide_metal>  (291) 
-0

>  <r_i_glide_rewards>  (291) 
-0.180062

>  <r_i_glide_evdw>  (291) 
-26.3469

>  <r_i_glide_ecoul>  (291) 
-6.91248

>  <r_i_glide_erotb>  (291) 
0.360762

>  <r_i_glide_esite>  (291) 
-0.231114

>  <r_i_glide_emodel>  (291) 
-37.9081

>  <r_i_glide_energy>  (291) 
-33.2594

>  <r_i_glide_einternal>  (291) 
3.56117

>  <r_i_glide_intrahb_reward>  (291) 
-0

>  <i_i_glide_confnum>  (291) 
3

>  <i_i_glide_posenum>  (291) 
7

>  <r_i_glide_eff_state_penalty>  (291) 
0

>  <ligand_id>  (291) 
89

>  <original_smiles>  (291) 
CC=C1C2=NN(C)C(c3cccnc3)C2CN(S(=O)(=O)c2ccc(C)cc2)C1c1ccccn1

>  <smiles>  (291) 
[H]C(=C1C2=NN(C([H])([H])[H])C([H])(c3c([H])nc([H])c([H])c3[H])C2([H])C([H])([H])N(S(=O)(=O)c2c([H])c([H])c(C([H])([H])[H])c([H])c2[H])C1([H])c1nc([H])c([H])c([H])c1[H])C([H])([H])[H]

$$$$
89:1:1
     RDKit          3D

 61 65  0  0  1  0  0  0  0  0999 V2000
    5.3002   -6.5695    3.7793 C   0  0  0  0  0  0  0  0  0  0  0  0
    5.8491   -5.6044    2.7388 C   0  0  0  0  0  0  0  0  0  0  0  0
    5.1910   -4.5567    2.1898 C   0  0  0  0  0  0  0  0  0  0  0  0
    5.9220   -3.6496    1.3106 C   0  0  0  0  0  0  0  0  0  0  0  0
    7.0164   -3.9181    0.6786 N   0  0  0  0  0  0  0  0  0  0  0  0
    7.3100   -2.9305   -0.2277 N   0  0  0  0  0  0  0  0  0  0  0  0
    8.6748   -2.4308   -0.1085 C   0  0  0  0  0  0  0  0  0  0  0  0
    6.1694   -2.0176   -0.3159 C   0  0  1  0  0  0  0  0  0  0  0  0
    5.3128   -2.1314   -1.5799 C   0  0  0  0  0  0  0  0  0  0  0  0
    4.4062   -1.1015   -1.9121 C   0  0  0  0  0  0  0  0  0  0  0  0
    3.6007   -1.2371   -3.0578 C   0  0  0  0  0  0  0  0  0  0  0  0
    3.7374   -2.3993   -3.8375 C   0  0  0  0  0  0  0  0  0  0  0  0
    4.6248   -3.3727   -3.5602 N   0  0  0  0  0  0  0  0  0  0  0  0
    5.3851   -3.2442   -2.4530 C   0  0  0  0  0  0  0  0  0  0  0  0
    5.4606   -2.2696    1.0038 C   0  0  1  0  0  0  0  0  0  0  0  0
    3.9381   -2.1223    1.0939 C   0  0  0  0  0  0  0  0  0  0  0  0
    3.4546   -2.6640    2.3906 N   0  0  0  0  0  0  0  0  0  0  0  0
    3.4013   -1.5944    3.7774 S   0  0  0  0  0  0  0  0  0  0  0  0
    3.1112   -2.3833    4.9835 O   0  0  0  0  0  0  0  0  0  0  0  0
    4.6060   -0.7491    3.7328 O   0  0  0  0  0  0  0  0  0  0  0  0
    1.9610   -0.5679    3.4535 C   0  0  0  0  0  0  0  0  0  0  0  0
    1.9919    0.3786    2.4077 C   0  0  0  0  0  0  0  0  0  0  0  0
    0.8585    1.1617    2.1333 C   0  0  0  0  0  0  0  0  0  0  0  0
   -0.2919    1.0374    2.9372 C   0  0  0  0  0  0  0  0  0  0  0  0
   -1.4912    1.8985    2.6366 C   0  0  0  0  0  0  0  0  0  0  0  0
   -0.3141    0.1165    4.0091 C   0  0  0  0  0  0  0  0  0  0  0  0
    0.8102   -0.6977    4.2633 C   0  0  0  0  0  0  0  0  0  0  0  0
    3.7774   -4.1095    2.6070 C   0  0  1  0  0  0  0  0  0  0  0  0
    2.7016   -5.0107    1.9843 C   0  0  0  0  0  0  0  0  0  0  0  0
    2.5158   -5.0761    0.5866 C   0  0  0  0  0  0  0  0  0  0  0  0
    1.4852   -5.8725    0.0749 C   0  0  0  0  0  0  0  0  0  0  0  0
    0.7231   -6.6575    0.9602 C   0  0  0  0  0  0  0  0  0  0  0  0
    1.0197   -6.5777    2.3331 C   0  0  0  0  0  0  0  0  0  0  0  0
    1.9509   -5.7463    2.8419 N   0  0  0  0  0  0  0  0  0  0  0  0
    5.3341   -7.5841    3.3901 H   0  0  0  0  0  0  0  0  0  0  0  0
    4.2715   -6.3693    4.0630 H   0  0  0  0  0  0  0  0  0  0  0  0
    5.8928   -6.5399    4.6942 H   0  0  0  0  0  0  0  0  0  0  0  0
    6.8814   -5.7940    2.4778 H   0  0  0  0  0  0  0  0  0  0  0  0
    8.8886   -1.7422   -0.9226 H   0  0  0  0  0  0  0  0  0  0  0  0
    9.4028   -3.2401   -0.1532 H   0  0  0  0  0  0  0  0  0  0  0  0
    8.7806   -1.8838    0.8308 H   0  0  0  0  0  0  0  0  0  0  0  0
    6.5538   -0.9991   -0.3057 H   0  0  0  0  0  0  0  0  0  0  0  0
    4.3132   -0.2355   -1.2782 H   0  0  0  0  0  0  0  0  0  0  0  0
    2.8760   -0.4820   -3.3171 H   0  0  0  0  0  0  0  0  0  0  0  0
    3.1334   -2.5529   -4.7191 H   0  0  0  0  0  0  0  0  0  0  0  0
    6.0684   -4.0555   -2.2687 H   0  0  0  0  0  0  0  0  0  0  0  0
    5.9315   -1.6175    1.7461 H   0  0  0  0  0  0  0  0  0  0  0  0
    3.6866   -1.0771    0.9589 H   0  0  0  0  0  0  0  0  0  0  0  0
    3.4443   -2.6179    0.2610 H   0  0  0  0  0  0  0  0  0  0  0  0
    2.8810    0.5459    1.8274 H   0  0  0  0  0  0  0  0  0  0  0  0
    0.8821    1.8687    1.3158 H   0  0  0  0  0  0  0  0  0  0  0  0
   -2.1929    1.9058    3.4699 H   0  0  0  0  0  0  0  0  0  0  0  0
   -2.0096    1.5121    1.7584 H   0  0  0  0  0  0  0  0  0  0  0  0
   -1.1815    2.9265    2.4360 H   0  0  0  0  0  0  0  0  0  0  0  0
   -1.1908    0.0349    4.6340 H   0  0  0  0  0  0  0  0  0  0  0  0
    0.7991   -1.3879    5.0933 H   0  0  0  0  0  0  0  0  0  0  0  0
    3.7544   -4.2828    3.6877 H   0  0  0  0  0  0  0  0  0  0  0  0
    3.1284   -4.5613   -0.1321 H   0  0  0  0  0  0  0  0  0  0  0  0
    1.3171   -5.8748   -0.9843 H   0  0  0  0  0  0  0  0  0  0  0  0
   -0.0357   -7.3334    0.5823 H   0  0  0  0  0  0  0  0  0  0  0  0
    0.4745   -7.1900    3.0397 H   0  0  0  0  0  0  0  0  0  0  0  0
  1  2  1  0
  1 35  1  0
  1 36  1  0
  1 37  1  0
  2  3  2  3
  2 38  1  0
  3 28  1  0
  3  4  1  0
  4 15  1  0
  4  5  2  0
  5  6  1  0
  6  7  1  0
  6  8  1  0
  7 39  1  0
  7 40  1  0
  7 41  1  0
  8  9  1  0
  8 15  1  0
  8 42  1  1
  9 14  1  0
  9 10  2  0
 10 11  1  0
 10 43  1  0
 11 12  2  0
 11 44  1  0
 12 13  1  0
 12 45  1  0
 13 14  2  0
 14 46  1  0
 15 16  1  0
 15 47  1  1
 16 17  1  0
 16 48  1  0
 16 49  1  0
 17 18  1  0
 17 28  1  0
 18 19  2  0
 18 20  2  0
 18 21  1  0
 21 27  1  0
 21 22  2  0
 22 23  1  0
 22 50  1  0
 23 24  2  0
 23 51  1  0
 24 25  1  0
 24 26  1  0
 25 52  1  0
 25 53  1  0
 25 54  1  0
 26 27  2  0
 26 55  1  0
 27 56  1  0
 28 29  1  0
 28 57  1  1
 29 34  1  0
 29 30  2  0
 30 31  1  0
 30 58  1  0
 31 32  2  0
 31 59  1  0
 32 33  1  0
 32 60  1  0
 33 34  2  0
 33 61  1  0
M  END
>  <i_m_ct_stereo_status>  (292) 
1

>  <s_m_source_file>  (292) 
/var/tmp/pbs.5076255.sched01/tmpb6g28bo8/1236hu3uqnd.sdf

>  <i_m_source_file_index>  (292) 
5

>  <i_lp_mmshare_version>  (292) 
48012

>  <i_f3d_flags>  (292) 
0

>  <s_epik_input>  (292) 
W2NIXTFbY0hdYyhbQ0gzXSlbY0hdW2NIXWMxUyg9TykoPU8pTihbQ0BIXShDXDI9W0NIXVxbQ0gzXSljM1tjSF1bY0hdW2NIXVtjSF1uMylbQ0gyXVtDQEBIXShDMj00KVtDQEBIXShOKE40KVtDSDNdKWM1W2NIXVtjSF1bY0hdbltjSF01

>  <s_epik_cmdline>  (292) 
J2VwaWtfcHl0aG9uJywgJy1waHQnLCAnMi4wJywgJy1waCcsICc3LjAnLCAnLXRuJywgJzgnLCAnLW1hJywgJzIwMCcsICctaW1hZScsICc8aW5maWxlLm1hZT4nLCAnLW9tYWUnLCAnPG91dGZpbGUubWFlPic=

>  <r_epik_Ionization_Penalty>  (292) 
0.0062666

>  <r_epik_Ionization_Penalty_Charging>  (292) 
0

>  <r_epik_Ionization_Penalty_Neutral>  (292) 
0.0062666

>  <r_epik_State_Penalty>  (292) 
0.00438448

>  <r_epik_Charging_Adjusted_Penalty>  (292) 
0.00438448

>  <i_epik_Tot_Q>  (292) 
0

>  <i_epik_Tot_abs_Q>  (292) 
0

>  <s_epik_Chemistry_Notes>  (292) 
This compound has an imine and may undergo hydrolysis.

>  <s_lp_Force_Field>  (292) 
OPLS3e

>  <r_lp_Energy>  (292) 
49.3241

>  <b_lp_Chiralities_Consistent>  (292) 
1

>  <s_lp_Variant>  (292) 
89:0-2

>  <s_i_glide_gridfile>  (292) 
pfpi4k_grid

>  <i_i_glide_lignum>  (292) 
5

>  <i_i_glide_rotatable_bonds>  (292) 
4

>  <r_i_docking_score>  (292) 
-2.60222

>  <r_i_glide_ligand_efficiency>  (292) 
-0.076536

>  <r_i_glide_ligand_efficiency_sa>  (292) 
-0.247947

>  <r_i_glide_ligand_efficiency_ln>  (292) 
-0.574904

>  <r_i_glide_gscore>  (292) 
-2.60222

>  <r_i_glide_lipo>  (292) 
-0.429323

>  <r_i_glide_hbond>  (292) 
0

>  <r_i_glide_metal>  (292) 
-0

>  <r_i_glide_rewards>  (292) 
-0.399362

>  <r_i_glide_evdw>  (292) 
-40.2783

>  <r_i_glide_ecoul>  (292) 
-0.802568

>  <r_i_glide_erotb>  (292) 
0.360762

>  <r_i_glide_esite>  (292) 
0

>  <r_i_glide_emodel>  (292) 
-44.3887

>  <r_i_glide_energy>  (292) 
-41.0809

>  <r_i_glide_einternal>  (292) 
5.32054

>  <r_i_glide_intrahb_reward>  (292) 
-0

>  <i_i_glide_confnum>  (292) 
2

>  <i_i_glide_posenum>  (292) 
24

>  <r_i_glide_eff_state_penalty>  (292) 
0

>  <ligand_id>  (292) 
89

>  <original_smiles>  (292) 
CC=C1C2=NN(C)C(c3cccnc3)C2CN(S(=O)(=O)c2ccc(C)cc2)C1c1ccccn1

>  <smiles>  (292) 
[H]C(=C1C2=NN(C([H])([H])[H])C([H])(c3c([H])nc([H])c([H])c3[H])C2([H])C([H])([H])N(S(=O)(=O)c2c([H])c([H])c(C([H])([H])[H])c([H])c2[H])C1([H])c1nc([H])c([H])c([H])c1[H])C([H])([H])[H]

$$$$
89:1:2
     RDKit          3D

 61 65  0  0  1  0  0  0  0  0999 V2000
    5.4867   -6.2824    4.0705 C   0  0  0  0  0  0  0  0  0  0  0  0
    5.9920   -5.3497    2.9803 C   0  0  0  0  0  0  0  0  0  0  0  0
    5.2919   -4.3604    2.3827 C   0  0  0  0  0  0  0  0  0  0  0  0
    5.9800   -3.4686    1.4574 C   0  0  0  0  0  0  0  0  0  0  0  0
    7.0751   -3.7241    0.8293 N   0  0  0  0  0  0  0  0  0  0  0  0
    7.3268   -2.7701   -0.1264 N   0  0  0  0  0  0  0  0  0  0  0  0
    8.6736   -2.2210   -0.0410 C   0  0  0  0  0  0  0  0  0  0  0  0
    6.1499   -1.9093   -0.2501 C   0  0  1  0  0  0  0  0  0  0  0  0
    5.2853   -2.1097   -1.4983 C   0  0  0  0  0  0  0  0  0  0  0  0
    4.3361   -1.1342   -1.8663 C   0  0  0  0  0  0  0  0  0  0  0  0
    3.5238   -1.3501   -2.9921 C   0  0  0  0  0  0  0  0  0  0  0  0
    3.7037   -2.5360   -3.7258 C   0  0  0  0  0  0  0  0  0  0  0  0
    4.6432   -3.4533   -3.4236 N   0  0  0  0  0  0  0  0  0  0  0  0
    5.3968   -3.2545   -2.3231 C   0  0  0  0  0  0  0  0  0  0  0  0
    5.4513   -2.1316    1.0805 C   0  0  1  0  0  0  0  0  0  0  0  0
    3.9231   -2.0624    1.1781 C   0  0  0  0  0  0  0  0  0  0  0  0
    3.4863   -2.5243    2.5166 N   0  0  0  0  0  0  0  0  0  0  0  0
    3.4147   -1.3860    3.8461 S   0  0  0  0  0  0  0  0  0  0  0  0
    3.1458   -2.1289    5.0862 O   0  0  0  0  0  0  0  0  0  0  0  0
    4.5962   -0.5176    3.7598 O   0  0  0  0  0  0  0  0  0  0  0  0
    1.9478   -0.4175    3.4831 C   0  0  0  0  0  0  0  0  0  0  0  0
    1.9657    0.5066    2.4177 C   0  0  0  0  0  0  0  0  0  0  0  0
    0.8119    1.2521    2.1153 C   0  0  0  0  0  0  0  0  0  0  0  0
   -0.3484    1.1071    2.9015 C   0  0  0  0  0  0  0  0  0  0  0  0
   -1.5696    1.9237    2.5625 C   0  0  0  0  0  0  0  0  0  0  0  0
   -0.3583    0.2087    3.9920 C   0  0  0  0  0  0  0  0  0  0  0  0
    0.7901   -0.5601    4.2801 C   0  0  0  0  0  0  0  0  0  0  0  0
    3.8698   -3.9380    2.7967 C   0  0  1  0  0  0  0  0  0  0  0  0
    2.8140   -4.8983    2.2414 C   0  0  0  0  0  0  0  0  0  0  0  0
    1.9300   -5.5827    3.1027 C   0  0  0  0  0  0  0  0  0  0  0  0
    0.9806   -6.4552    2.5440 C   0  0  0  0  0  0  0  0  0  0  0  0
    0.9199   -6.5850    1.1467 C   0  0  0  0  0  0  0  0  0  0  0  0
    1.8363   -5.8543    0.3727 C   0  0  0  0  0  0  0  0  0  0  0  0
    2.7648   -5.0403    0.9000 N   0  0  0  0  0  0  0  0  0  0  0  0
    5.5570   -7.3127    3.7330 H   0  0  0  0  0  0  0  0  0  0  0  0
    4.4530   -6.1057    4.3508 H   0  0  0  0  0  0  0  0  0  0  0  0
    6.0862   -6.1849    4.9741 H   0  0  0  0  0  0  0  0  0  0  0  0
    7.0281   -5.5154    2.7142 H   0  0  0  0  0  0  0  0  0  0  0  0
    8.8634   -1.5669   -0.8850 H   0  0  0  0  0  0  0  0  0  0  0  0
    9.4243   -3.0076   -0.0575 H   0  0  0  0  0  0  0  0  0  0  0  0
    8.7753   -1.6259    0.8673 H   0  0  0  0  0  0  0  0  0  0  0  0
    6.4876   -0.8750   -0.2881 H   0  0  0  0  0  0  0  0  0  0  0  0
    4.2200   -0.2427   -1.2688 H   0  0  0  0  0  0  0  0  0  0  0  0
    2.7648   -0.6375   -3.2735 H   0  0  0  0  0  0  0  0  0  0  0  0
    3.0931   -2.7594   -4.5872 H   0  0  0  0  0  0  0  0  0  0  0  0
    6.1071   -4.0324   -2.1046 H   0  0  0  0  0  0  0  0  0  0  0  0
    5.8865   -1.4230    1.7867 H   0  0  0  0  0  0  0  0  0  0  0  0
    3.6036   -1.0480    0.9671 H   0  0  0  0  0  0  0  0  0  0  0  0
    3.4637   -2.6856    0.4094 H   0  0  0  0  0  0  0  0  0  0  0  0
    2.8598    0.6756    1.8421 H   0  0  0  0  0  0  0  0  0  0  0  0
    0.8234    1.9503    1.2889 H   0  0  0  0  0  0  0  0  0  0  0  0
   -2.2801    1.9343    3.3867 H   0  0  0  0  0  0  0  0  0  0  0  0
   -2.0641    1.5006    1.6882 H   0  0  0  0  0  0  0  0  0  0  0  0
   -1.2887    2.9534    2.3384 H   0  0  0  0  0  0  0  0  0  0  0  0
   -1.2428    0.1188    4.6077 H   0  0  0  0  0  0  0  0  0  0  0  0
    0.7853   -1.2305    5.1260 H   0  0  0  0  0  0  0  0  0  0  0  0
    3.8651   -4.0624    3.8798 H   0  0  0  0  0  0  0  0  0  0  0  0
    2.0024   -5.4574    4.1724 H   0  0  0  0  0  0  0  0  0  0  0  0
    0.3062   -7.0082    3.1793 H   0  0  0  0  0  0  0  0  0  0  0  0
    0.2007   -7.2410    0.6796 H   0  0  0  0  0  0  0  0  0  0  0  0
    1.8134   -5.9084   -0.7028 H   0  0  0  0  0  0  0  0  0  0  0  0
  1  2  1  0
  1 35  1  0
  1 36  1  0
  1 37  1  0
  2  3  2  3
  2 38  1  0
  3 28  1  0
  3  4  1  0
  4 15  1  0
  4  5  2  0
  5  6  1  0
  6  7  1  0
  6  8  1  0
  7 39  1  0
  7 40  1  0
  7 41  1  0
  8  9  1  0
  8 15  1  0
  8 42  1  1
  9 14  1  0
  9 10  2  0
 10 11  1  0
 10 43  1  0
 11 12  2  0
 11 44  1  0
 12 13  1  0
 12 45  1  0
 13 14  2  0
 14 46  1  0
 15 16  1  0
 15 47  1  1
 16 17  1  0
 16 48  1  0
 16 49  1  0
 17 18  1  0
 17 28  1  0
 18 19  2  0
 18 20  2  0
 18 21  1  0
 21 27  1  0
 21 22  2  0
 22 23  1  0
 22 50  1  0
 23 24  2  0
 23 51  1  0
 24 25  1  0
 24 26  1  0
 25 52  1  0
 25 53  1  0
 25 54  1  0
 26 27  2  0
 26 55  1  0
 27 56  1  0
 28 29  1  0
 28 57  1  1
 29 34  1  0
 29 30  2  0
 30 31  1  0
 30 58  1  0
 31 32  2  0
 31 59  1  0
 32 33  1  0
 32 60  1  0
 33 34  2  0
 33 61  1  0
M  END
>  <i_m_ct_stereo_status>  (293) 
1

>  <s_m_source_file>  (293) 
/var/tmp/pbs.5076255.sched01/tmpb6g28bo8/1236hu3uqnd.sdf

>  <i_m_source_file_index>  (293) 
5

>  <i_lp_mmshare_version>  (293) 
48012

>  <i_f3d_flags>  (293) 
0

>  <s_epik_input>  (293) 
W2NIXTFbY0hdYyhbQ0gzXSlbY0hdW2NIXWMxUyg9TykoPU8pTihbQ0BIXShDXDI9W0NIXVxbQ0gzXSljM1tjSF1bY0hdW2NIXVtjSF1uMylbQ0gyXVtDQEBIXShDMj00KVtDQEBIXShOKE40KVtDSDNdKWM1W2NIXVtjSF1bY0hdbltjSF01

>  <s_epik_cmdline>  (293) 
J2VwaWtfcHl0aG9uJywgJy1waHQnLCAnMi4wJywgJy1waCcsICc3LjAnLCAnLXRuJywgJzgnLCAnLW1hJywgJzIwMCcsICctaW1hZScsICc8aW5maWxlLm1hZT4nLCAnLW9tYWUnLCAnPG91dGZpbGUubWFlPic=

>  <r_epik_Ionization_Penalty>  (293) 
0.0062666

>  <r_epik_Ionization_Penalty_Charging>  (293) 
0

>  <r_epik_Ionization_Penalty_Neutral>  (293) 
0.0062666

>  <r_epik_State_Penalty>  (293) 
0.00438448

>  <r_epik_Charging_Adjusted_Penalty>  (293) 
0.00438448

>  <i_epik_Tot_Q>  (293) 
0

>  <i_epik_Tot_abs_Q>  (293) 
0

>  <s_epik_Chemistry_Notes>  (293) 
This compound has an imine and may undergo hydrolysis.

>  <s_lp_Force_Field>  (293) 
OPLS3e

>  <r_lp_Energy>  (293) 
49.3241

>  <b_lp_Chiralities_Consistent>  (293) 
1

>  <s_lp_Variant>  (293) 
89:0-2

>  <s_i_glide_gridfile>  (293) 
pfpi4k_grid

>  <i_i_glide_lignum>  (293) 
5

>  <i_i_glide_rotatable_bonds>  (293) 
4

>  <r_i_docking_score>  (293) 
-2.53159

>  <r_i_glide_ligand_efficiency>  (293) 
-0.0744586

>  <r_i_glide_ligand_efficiency_sa>  (293) 
-0.241217

>  <r_i_glide_ligand_efficiency_ln>  (293) 
-0.5593

>  <r_i_glide_gscore>  (293) 
-2.53159

>  <r_i_glide_lipo>  (293) 
-0.479485

>  <r_i_glide_hbond>  (293) 
0

>  <r_i_glide_metal>  (293) 
-0

>  <r_i_glide_rewards>  (293) 
-0.377698

>  <r_i_glide_evdw>  (293) 
-40.4636

>  <r_i_glide_ecoul>  (293) 
-0.0799523

>  <r_i_glide_erotb>  (293) 
0.360762

>  <r_i_glide_esite>  (293) 
0

>  <r_i_glide_emodel>  (293) 
-44.0242

>  <r_i_glide_energy>  (293) 
-40.5435

>  <r_i_glide_einternal>  (293) 
5.28902

>  <r_i_glide_intrahb_reward>  (293) 
-0

>  <i_i_glide_confnum>  (293) 
3

>  <i_i_glide_posenum>  (293) 
18

>  <r_i_glide_eff_state_penalty>  (293) 
0

>  <ligand_id>  (293) 
89

>  <original_smiles>  (293) 
CC=C1C2=NN(C)C(c3cccnc3)C2CN(S(=O)(=O)c2ccc(C)cc2)C1c1ccccn1

>  <smiles>  (293) 
[H]C(=C1C2=NN(C([H])([H])[H])C([H])(c3c([H])nc([H])c([H])c3[H])C2([H])C([H])([H])N(S(=O)(=O)c2c([H])c([H])c(C([H])([H])[H])c([H])c2[H])C1([H])c1nc([H])c([H])c([H])c1[H])C([H])([H])[H]

$$$$
90:0:0
     RDKit          3D

 51 57  0  0  1  0  0  0  0  0999 V2000
    0.1907   -1.6517    4.2137 C   0  0  0  0  0  0  0  0  0  0  0  0
    1.2482   -2.1337    3.3897 O   0  0  0  0  0  0  0  0  0  0  0  0
    2.0266   -1.1324    2.7365 C   0  0  2  0  0  0  0  0  0  0  0  0
    2.7645   -1.7586    1.5618 C   0  0  0  0  0  0  0  0  0  0  0  0
    3.8935   -2.4964    1.5377 C   0  0  0  0  0  0  0  0  0  0  0  0
    4.3938   -3.1926    0.2738 C   0  0  2  0  0  0  0  0  0  0  0  0
    3.9234   -4.6604    0.2727 C   0  0  0  0  0  0  0  0  0  0  0  0
    4.9425   -5.7833    0.6245 C   0  0  0  0  0  0  0  0  0  0  0  0
    5.9182   -5.5983    1.7404 N   0  0  1  0  0  0  0  0  0  0  0  0
    7.0258   -4.7359    1.4727 C   0  0  0  0  0  0  0  0  0  0  0  0
    6.2163   -3.4593    1.9360 C   0  0  1  0  0  0  0  0  0  0  0  0
    5.7301   -4.6941    2.8261 C   0  0  1  0  0  0  0  0  0  0  0  0
    4.3887   -4.2113    3.2506 C   0  0  0  0  0  0  0  0  0  0  0  0
    4.8755   -2.8917    2.6832 C   0  0  2  0  0  0  0  0  0  0  0  0
    5.1146   -1.7511    3.7177 C   0  0  1  0  0  0  0  0  0  0  0  0
    5.7773   -0.6538    3.1117 O   0  0  0  0  0  0  0  0  0  0  0  0
    3.8861   -1.2413    4.5073 C   0  0  1  0  0  0  0  0  0  0  0  0
    4.3518   -0.4972    5.6159 O   0  0  0  0  0  0  0  0  0  0  0  0
    2.9174   -0.3524    3.7180 C   0  0  0  0  0  0  0  0  0  0  0  0
    5.8140   -2.8156    0.6332 C   0  0  1  0  0  0  0  0  0  0  0  0
    6.2583   -2.9994   -0.7206 O   0  0  0  0  0  0  0  0  0  0  0  0
    4.8993   -2.6082   -1.0745 C   0  0  2  0  0  0  0  0  0  0  0  0
    4.6799   -1.1491   -1.3583 C   0  0  0  0  0  0  0  0  0  0  0  0
    4.0976   -1.0123   -2.5573 C   0  0  0  0  0  0  0  0  0  0  0  0
    3.9225   -2.3486   -3.1348 C   0  0  0  0  0  0  0  0  0  0  0  0
    3.4529   -2.6054   -4.2375 O   0  0  0  0  0  0  0  0  0  0  0  0
    4.4005   -3.2444   -2.2439 O   0  0  0  0  0  0  0  0  0  0  0  0
   -0.2861   -2.4941    4.7132 H   0  0  0  0  0  0  0  0  0  0  0  0
   -0.5676   -1.1276    3.6347 H   0  0  0  0  0  0  0  0  0  0  0  0
    0.5234   -0.9812    5.0040 H   0  0  0  0  0  0  0  0  0  0  0  0
    1.3339   -0.4233    2.2794 H   0  0  0  0  0  0  0  0  0  0  0  0
    2.2422   -1.6382    0.6232 H   0  0  0  0  0  0  0  0  0  0  0  0
    3.0013   -4.7609    0.8475 H   0  0  0  0  0  0  0  0  0  0  0  0
    3.5637   -4.9201   -0.7182 H   0  0  0  0  0  0  0  0  0  0  0  0
    4.3480   -6.6595    0.8709 H   0  0  0  0  0  0  0  0  0  0  0  0
    5.4885   -6.0572   -0.2760 H   0  0  0  0  0  0  0  0  0  0  0  0
    7.9100   -4.9419    2.0764 H   0  0  0  0  0  0  0  0  0  0  0  0
    7.3349   -4.7636    0.4299 H   0  0  0  0  0  0  0  0  0  0  0  0
    6.3635   -4.9069    3.6874 H   0  0  0  0  0  0  0  0  0  0  0  0
    3.5374   -4.7169    2.8106 H   0  0  0  0  0  0  0  0  0  0  0  0
    4.2935   -4.1897    4.3341 H   0  0  0  0  0  0  0  0  0  0  0  0
    5.8084   -2.1454    4.4604 H   0  0  0  0  0  0  0  0  0  0  0  0
    5.2092   -0.2706    2.4654 H   0  0  0  0  0  0  0  0  0  0  0  0
    3.3438   -2.0848    4.9340 H   0  0  0  0  0  0  0  0  0  0  0  0
    4.7875    0.2755    5.2949 H   0  0  0  0  0  0  0  0  0  0  0  0
    3.4304    0.4624    3.2061 H   0  0  0  0  0  0  0  0  0  0  0  0
    2.2801    0.1647    4.4298 H   0  0  0  0  0  0  0  0  0  0  0  0
    5.9794   -1.7483    0.8313 H   0  0  0  0  0  0  0  0  0  0  0  0
    4.9279   -0.3238   -0.7150 H   0  0  0  0  0  0  0  0  0  0  0  0
    3.7977   -0.0969   -3.0308 H   0  0  0  0  0  0  0  0  0  0  0  0
    6.2698   -6.4958    2.0475 H   0  0  0  0  0  0  0  0  0  0  0  0
  1  2  1  0
  1 28  1  0
  1 29  1  0
  1 30  1  0
  2  3  1  0
  3 19  1  0
  3  4  1  0
  3 31  1  6
  4  5  2  0
  4 32  1  0
  5 14  1  0
  6  5  1  1
  6 20  1  0
  6 22  1  0
  6  7  1  0
  7  8  1  0
  7 33  1  0
  7 34  1  0
  8  9  1  0
  8 35  1  0
  8 36  1  0
  9 12  1  0
  9 10  1  0
  9 51  1  1
 11 10  1  6
 10 37  1  0
 10 38  1  0
 11 14  1  0
 11 12  1  0
 11 20  1  0
 12 13  1  0
 12 39  1  1
 14 13  1  1
 13 40  1  0
 13 41  1  0
 14 15  1  0
 15 16  1  0
 15 17  1  0
 15 42  1  1
 16 43  1  0
 17 18  1  0
 17 19  1  0
 17 44  1  1
 18 45  1  0
 19 46  1  0
 19 47  1  0
 20 21  1  0
 20 48  1  1
 22 21  1  1
 22 27  1  0
 22 23  1  0
 23 24  2  0
 23 49  1  0
 24 25  1  0
 24 50  1  0
 25 26  2  0
 25 27  1  0
M  CHG  1   9   1
M  END
>  <i_m_ct_stereo_status>  (294) 
1

>  <s_m_source_file>  (294) 
/var/tmp/pbs.5076255.sched01/tmpb6g28bo8/1236hu3uqnd.sdf

>  <i_m_source_file_index>  (294) 
6

>  <i_lp_mmshare_version>  (294) 
48012

>  <i_f3d_flags>  (294) 
0

>  <s_epik_input>  (294) 
W09IXVtDQEhdMVtDQEBIXShbT0hdKVtDSDJdW0NASF0oT1tDSDNdKVtDSF09QzJbQ0BAXTEoW0NIMl1bQ0BIXTNOKFtDSDJdNClbQ0gyXVtDSDJdNSlbQ0BdMzRbQ0BIXTZPW0NAQF03KFtDQEBdMjU2KVtDSF09W0NIXUMoPU8pTzc=

>  <s_epik_cmdline>  (294) 
J2VwaWtfcHl0aG9uJywgJy1waHQnLCAnMi4wJywgJy1waCcsICc3LjAnLCAnLXRuJywgJzgnLCAnLW1hJywgJzIwMCcsICctaW1hZScsICc8aW5maWxlLm1hZT4nLCAnLW9tYWUnLCAnPG91dGZpbGUubWFlPic=

>  <r_lp_tautomer_probability>  (294) 
1

>  <r_epik_Ionization_Penalty>  (294) 
0.0279382

>  <r_epik_Ionization_Penalty_Charging>  (294) 
0.0279374

>  <r_epik_Ionization_Penalty_Neutral>  (294) 
8.56339e-07

>  <r_epik_State_Penalty>  (294) 
0.0228957

>  <r_epik_Charging_Adjusted_Penalty>  (294) 
0.0508331

>  <i_epik_Tot_Q>  (294) 
1

>  <i_epik_Tot_abs_Q>  (294) 
1

>  <s_epik_Chemistry_Notes>  (294) 
This compound has an ester and may undergo hydrolysis at high or low pH.

>  <s_lp_Force_Field>  (294) 
OPLS3e

>  <r_lp_Energy>  (294) 
193.677

>  <b_lp_Chiralities_Consistent>  (294) 
1

>  <s_lp_Variant>  (294) 
90:0-1

>  <s_i_glide_gridfile>  (294) 
pfpi4k_grid

>  <i_i_glide_lignum>  (294) 
6

>  <i_i_glide_rotatable_bonds>  (294) 
3

>  <r_i_docking_score>  (294) 
-3.59055

>  <r_i_glide_ligand_efficiency>  (294) 
-0.132983

>  <r_i_glide_ligand_efficiency_sa>  (294) 
-0.39895

>  <r_i_glide_ligand_efficiency_ln>  (294) 
-0.83582

>  <r_i_glide_gscore>  (294) 
-3.59055

>  <r_i_glide_lipo>  (294) 
-0.462375

>  <r_i_glide_hbond>  (294) 
-0.309364

>  <r_i_glide_metal>  (294) 
-0

>  <r_i_glide_rewards>  (294) 
-1.05551

>  <r_i_glide_evdw>  (294) 
-24.4285

>  <r_i_glide_ecoul>  (294) 
-3.55145

>  <r_i_glide_erotb>  (294) 
0

>  <r_i_glide_esite>  (294) 
-0.00915682

>  <r_i_glide_emodel>  (294) 
-32.9682

>  <r_i_glide_energy>  (294) 
-27.9799

>  <r_i_glide_einternal>  (294) 
2.71083

>  <r_i_glide_intrahb_reward>  (294) 
-0

>  <i_i_glide_confnum>  (294) 
2

>  <i_i_glide_posenum>  (294) 
1

>  <r_i_glide_eff_state_penalty>  (294) 
0

>  <ligand_id>  (294) 
90

>  <original_smiles>  (294) 
COC1C=C2C34CCN5CC6(C5CC26C(O)C(O)C1)C3OC41C=CC(=O)O1

>  <smiles>  (294) 
[H]OC1([H])C([H])([H])C([H])(OC([H])([H])[H])C([H])=C2C34C5(OC(=O)C([H])=C5[H])OC3([H])C35C2(C([H])([H])C3([H])[N+]([H])(C([H])([H])C4([H])[H])C5([H])[H])C1([H])O[H]

$$$$
90:0:1
     RDKit          3D

 51 57  0  0  1  0  0  0  0  0999 V2000
    3.1511   -1.0657    3.5181 C   0  0  0  0  0  0  0  0  0  0  0  0
    3.7436   -1.1234    2.2271 O   0  0  0  0  0  0  0  0  0  0  0  0
    3.0265   -1.8963    1.2693 C   0  0  2  0  0  0  0  0  0  0  0  0
    3.0566   -3.3717    1.6097 C   0  0  0  0  0  0  0  0  0  0  0  0
    4.0501   -4.2796    1.4380 C   0  0  0  0  0  0  0  0  0  0  0  0
    3.9797   -5.6789    2.0074 C   0  0  2  0  0  0  0  0  0  0  0  0
    4.7218   -5.7294    3.3590 C   0  0  0  0  0  0  0  0  0  0  0  0
    6.1297   -6.3749    3.4208 C   0  0  0  0  0  0  0  0  0  0  0  0
    7.1322   -6.1333    2.3407 N   0  0  1  0  0  0  0  0  0  0  0  0
    6.9039   -6.8291    1.1041 C   0  0  0  0  0  0  0  0  0  0  0  0
    5.9892   -5.6708    0.5384 C   0  0  1  0  0  0  0  0  0  0  0  0
    7.1049   -4.9997    1.4550 C   0  0  1  0  0  0  0  0  0  0  0  0
    6.4297   -3.7296    1.8172 C   0  0  0  0  0  0  0  0  0  0  0  0
    5.4420   -4.1414    0.7510 C   0  0  2  0  0  0  0  0  0  0  0  0
    5.4378   -3.2558   -0.5260 C   0  0  1  0  0  0  0  0  0  0  0  0
    4.6824   -3.8634   -1.5566 O   0  0  0  0  0  0  0  0  0  0  0  0
    5.0263   -1.7686   -0.3570 C   0  0  1  0  0  0  0  0  0  0  0  0
    5.4118   -1.0640   -1.5229 O   0  0  0  0  0  0  0  0  0  0  0  0
    3.5298   -1.5292   -0.1261 C   0  0  0  0  0  0  0  0  0  0  0  0
    4.5955   -6.2262    0.7396 C   0  0  1  0  0  0  0  0  0  0  0  0
    4.0958   -7.5454    1.0167 O   0  0  0  0  0  0  0  0  0  0  0  0
    3.0067   -6.8522    1.6924 C   0  0  2  0  0  0  0  0  0  0  0  0
    1.7712   -6.5564    0.8785 C   0  0  0  0  0  0  0  0  0  0  0  0
    0.7016   -7.0472    1.5033 C   0  0  0  0  0  0  0  0  0  0  0  0
    1.1437   -7.6721    2.7437 C   0  0  0  0  0  0  0  0  0  0  0  0
    0.4169   -8.1994    3.5892 O   0  0  0  0  0  0  0  0  0  0  0  0
    2.4883   -7.5458    2.8204 O   0  0  0  0  0  0  0  0  0  0  0  0
    3.7521   -0.4207    4.1586 H   0  0  0  0  0  0  0  0  0  0  0  0
    3.1059   -2.0467    3.9919 H   0  0  0  0  0  0  0  0  0  0  0  0
    2.1445   -0.6472    3.4812 H   0  0  0  0  0  0  0  0  0  0  0  0
    1.9790   -1.5824    1.3037 H   0  0  0  0  0  0  0  0  0  0  0  0
    2.1796   -3.7036    2.1359 H   0  0  0  0  0  0  0  0  0  0  0  0
    4.7117   -4.7476    3.8307 H   0  0  0  0  0  0  0  0  0  0  0  0
    4.1300   -6.2944    4.0755 H   0  0  0  0  0  0  0  0  0  0  0  0
    6.5878   -6.0230    4.3407 H   0  0  0  0  0  0  0  0  0  0  0  0
    6.0307   -7.4522    3.5517 H   0  0  0  0  0  0  0  0  0  0  0  0
    7.8160   -6.9999    0.5216 H   0  0  0  0  0  0  0  0  0  0  0  0
    6.4341   -7.7989    1.2611 H   0  0  0  0  0  0  0  0  0  0  0  0
    8.0514   -4.8226    0.9458 H   0  0  0  0  0  0  0  0  0  0  0  0
    6.0992   -3.6347    2.8461 H   0  0  0  0  0  0  0  0  0  0  0  0
    7.0187   -2.8576    1.5292 H   0  0  0  0  0  0  0  0  0  0  0  0
    6.4591   -3.2407   -0.9122 H   0  0  0  0  0  0  0  0  0  0  0  0
    3.7790   -3.9524   -1.2902 H   0  0  0  0  0  0  0  0  0  0  0  0
    5.5898   -1.3090    0.4557 H   0  0  0  0  0  0  0  0  0  0  0  0
    5.0152   -0.2021   -1.4975 H   0  0  0  0  0  0  0  0  0  0  0  0
    2.9255   -2.0041   -0.8993 H   0  0  0  0  0  0  0  0  0  0  0  0
    3.3436   -0.4645   -0.2328 H   0  0  0  0  0  0  0  0  0  0  0  0
    4.0895   -5.9366   -0.1924 H   0  0  0  0  0  0  0  0  0  0  0  0
    1.7567   -6.0568   -0.0760 H   0  0  0  0  0  0  0  0  0  0  0  0
   -0.3205   -7.0279    1.1667 H   0  0  0  0  0  0  0  0  0  0  0  0
    8.0641   -6.3491    2.6560 H   0  0  0  0  0  0  0  0  0  0  0  0
  1  2  1  0
  1 28  1  0
  1 29  1  0
  1 30  1  0
  2  3  1  0
  3 19  1  0
  3  4  1  0
  3 31  1  6
  4  5  2  0
  4 32  1  0
  5 14  1  0
  6  5  1  6
  6 20  1  0
  6 22  1  0
  6  7  1  0
  7  8  1  0
  7 33  1  0
  7 34  1  0
  8  9  1  0
  8 35  1  0
  8 36  1  0
  9 12  1  0
  9 10  1  0
  9 51  1  1
 11 10  1  1
 10 37  1  0
 10 38  1  0
 11 14  1  0
 11 12  1  0
 11 20  1  0
 12 13  1  0
 12 39  1  6
 14 13  1  1
 13 40  1  0
 13 41  1  0
 14 15  1  0
 15 16  1  0
 15 17  1  0
 15 42  1  6
 16 43  1  0
 17 18  1  0
 17 19  1  0
 17 44  1  1
 18 45  1  0
 19 46  1  0
 19 47  1  0
 20 21  1  0
 20 48  1  6
 22 21  1  6
 22 27  1  0
 22 23  1  0
 23 24  2  0
 23 49  1  0
 24 25  1  0
 24 50  1  0
 25 26  2  0
 25 27  1  0
M  CHG  1   9   1
M  END
>  <i_m_ct_stereo_status>  (295) 
1

>  <s_m_source_file>  (295) 
/var/tmp/pbs.5076255.sched01/tmpb6g28bo8/1236hu3uqnd.sdf

>  <i_m_source_file_index>  (295) 
6

>  <i_lp_mmshare_version>  (295) 
48012

>  <i_f3d_flags>  (295) 
0

>  <s_epik_input>  (295) 
W09IXVtDQEhdMVtDQEBIXShbT0hdKVtDSDJdW0NASF0oT1tDSDNdKVtDSF09QzJbQ0BAXTEoW0NIMl1bQ0BIXTNOKFtDSDJdNClbQ0gyXVtDSDJdNSlbQ0BdMzRbQ0BIXTZPW0NAQF03KFtDQEBdMjU2KVtDSF09W0NIXUMoPU8pTzc=

>  <s_epik_cmdline>  (295) 
J2VwaWtfcHl0aG9uJywgJy1waHQnLCAnMi4wJywgJy1waCcsICc3LjAnLCAnLXRuJywgJzgnLCAnLW1hJywgJzIwMCcsICctaW1hZScsICc8aW5maWxlLm1hZT4nLCAnLW9tYWUnLCAnPG91dGZpbGUubWFlPic=

>  <r_lp_tautomer_probability>  (295) 
1

>  <r_epik_Ionization_Penalty>  (295) 
0.0279382

>  <r_epik_Ionization_Penalty_Charging>  (295) 
0.0279374

>  <r_epik_Ionization_Penalty_Neutral>  (295) 
8.56339e-07

>  <r_epik_State_Penalty>  (295) 
0.0228957

>  <r_epik_Charging_Adjusted_Penalty>  (295) 
0.0508331

>  <i_epik_Tot_Q>  (295) 
1

>  <i_epik_Tot_abs_Q>  (295) 
1

>  <s_epik_Chemistry_Notes>  (295) 
This compound has an ester and may undergo hydrolysis at high or low pH.

>  <s_lp_Force_Field>  (295) 
OPLS3e

>  <r_lp_Energy>  (295) 
193.677

>  <b_lp_Chiralities_Consistent>  (295) 
1

>  <s_lp_Variant>  (295) 
90:0-1

>  <s_i_glide_gridfile>  (295) 
pfpi4k_grid

>  <i_i_glide_lignum>  (295) 
6

>  <i_i_glide_rotatable_bonds>  (295) 
3

>  <r_i_docking_score>  (295) 
-3.22363

>  <r_i_glide_ligand_efficiency>  (295) 
-0.119394

>  <r_i_glide_ligand_efficiency_sa>  (295) 
-0.358181

>  <r_i_glide_ligand_efficiency_ln>  (295) 
-0.750407

>  <r_i_glide_gscore>  (295) 
-3.22363

>  <r_i_glide_lipo>  (295) 
-0.570138

>  <r_i_glide_hbond>  (295) 
0

>  <r_i_glide_metal>  (295) 
-0

>  <r_i_glide_rewards>  (295) 
-0.900436

>  <r_i_glide_evdw>  (295) 
-21.3643

>  <r_i_glide_ecoul>  (295) 
-4.40216

>  <r_i_glide_erotb>  (295) 
0

>  <r_i_glide_esite>  (295) 
-0.024514

>  <r_i_glide_emodel>  (295) 
-31.143

>  <r_i_glide_energy>  (295) 
-25.7665

>  <r_i_glide_einternal>  (295) 
0.568001

>  <r_i_glide_intrahb_reward>  (295) 
-0

>  <i_i_glide_confnum>  (295) 
1

>  <i_i_glide_posenum>  (295) 
8

>  <r_i_glide_eff_state_penalty>  (295) 
0

>  <ligand_id>  (295) 
90

>  <original_smiles>  (295) 
COC1C=C2C34CCN5CC6(C5CC26C(O)C(O)C1)C3OC41C=CC(=O)O1

>  <smiles>  (295) 
[H]OC1([H])C([H])([H])C([H])(OC([H])([H])[H])C([H])=C2C34C5(OC(=O)C([H])=C5[H])OC3([H])C35C2(C([H])([H])C3([H])[N+]([H])(C([H])([H])C4([H])[H])C5([H])[H])C1([H])O[H]

$$$$
90:0:2
     RDKit          3D

 51 57  0  0  1  0  0  0  0  0999 V2000
    3.5863    0.0851    2.2414 C   0  0  0  0  0  0  0  0  0  0  0  0
    3.9397   -1.2876    2.1234 O   0  0  0  0  0  0  0  0  0  0  0  0
    3.2332   -2.0056    1.1176 C   0  0  2  0  0  0  0  0  0  0  0  0
    3.1226   -3.4643    1.5298 C   0  0  0  0  0  0  0  0  0  0  0  0
    4.0316   -4.4589    1.4543 C   0  0  0  0  0  0  0  0  0  0  0  0
    3.8094   -5.8269    2.0857 C   0  0  2  0  0  0  0  0  0  0  0  0
    4.4807   -5.8765    3.4724 C   0  0  0  0  0  0  0  0  0  0  0  0
    5.8256   -6.6380    3.6386 C   0  0  0  0  0  0  0  0  0  0  0  0
    6.8927   -6.5303    2.5965 N   0  0  1  0  0  0  0  0  0  0  0  0
    6.6700   -7.2663    1.3893 C   0  0  0  0  0  0  0  0  0  0  0  0
    5.8832   -6.0646    0.7298 C   0  0  1  0  0  0  0  0  0  0  0  0
    7.0106   -5.4447    1.6722 C   0  0  1  0  0  0  0  0  0  0  0  0
    6.4276   -4.1047    1.9419 C   0  0  0  0  0  0  0  0  0  0  0  0
    5.4645   -4.4848    0.8396 C   0  0  2  0  0  0  0  0  0  0  0  0
    5.6007   -3.6574   -0.4744 C   0  0  1  0  0  0  0  0  0  0  0  0
    4.8531   -4.2422   -1.5221 O   0  0  0  0  0  0  0  0  0  0  0  0
    5.3054   -2.1382   -0.3964 C   0  0  1  0  0  0  0  0  0  0  0  0
    5.8156   -1.5327   -1.5677 O   0  0  0  0  0  0  0  0  0  0  0  0
    3.8269   -1.7528   -0.2742 C   0  0  0  0  0  0  0  0  0  0  0  0
    4.4394   -6.4847    0.8780 C   0  0  1  0  0  0  0  0  0  0  0  0
    3.8192   -7.7456    1.1897 O   0  0  0  0  0  0  0  0  0  0  0  0
    2.7595   -6.9306    1.7721 C   0  0  2  0  0  0  0  0  0  0  0  0
    1.6005   -6.5817    0.8769 C   0  0  0  0  0  0  0  0  0  0  0  0
    0.4601   -6.9490    1.4592 C   0  0  0  0  0  0  0  0  0  0  0  0
    0.7801   -7.5502    2.7618 C   0  0  0  0  0  0  0  0  0  0  0  0
   -0.0284   -7.9592    3.5792 O   0  0  0  0  0  0  0  0  0  0  0  0
    2.1274   -7.5242    2.8993 O   0  0  0  0  0  0  0  0  0  0  0  0
    4.2418    0.5600    2.9708 H   0  0  0  0  0  0  0  0  0  0  0  0
    2.5608    0.1966    2.5944 H   0  0  0  0  0  0  0  0  0  0  0  0
    3.6920    0.6388    1.3080 H   0  0  0  0  0  0  0  0  0  0  0  0
    2.2025   -1.6419    1.1036 H   0  0  0  0  0  0  0  0  0  0  0  0
    2.1929   -3.6869    2.0284 H   0  0  0  0  0  0  0  0  0  0  0  0
    4.5307   -4.8767    3.9035 H   0  0  0  0  0  0  0  0  0  0  0  0
    3.8063   -6.3585    4.1836 H   0  0  0  0  0  0  0  0  0  0  0  0
    6.2623   -6.2813    4.5645 H   0  0  0  0  0  0  0  0  0  0  0  0
    5.6234   -7.6943    3.8096 H   0  0  0  0  0  0  0  0  0  0  0  0
    7.5932   -7.5403    0.8782 H   0  0  0  0  0  0  0  0  0  0  0  0
    6.1109   -8.1851    1.5568 H   0  0  0  0  0  0  0  0  0  0  0  0
    7.9878   -5.3712    1.2026 H   0  0  0  0  0  0  0  0  0  0  0  0
    6.0558   -3.9357    2.9471 H   0  0  0  0  0  0  0  0  0  0  0  0
    7.1040   -3.3043    1.6500 H   0  0  0  0  0  0  0  0  0  0  0  0
    6.6370   -3.7496   -0.7990 H   0  0  0  0  0  0  0  0  0  0  0  0
    3.9427   -4.3229   -1.2776 H   0  0  0  0  0  0  0  0  0  0  0  0
    5.8663   -1.6922    0.4229 H   0  0  0  0  0  0  0  0  0  0  0  0
    5.2924   -1.8390   -2.2948 H   0  0  0  0  0  0  0  0  0  0  0  0
    3.2104   -2.2264   -1.0412 H   0  0  0  0  0  0  0  0  0  0  0  0
    3.7368   -0.6873   -0.4850 H   0  0  0  0  0  0  0  0  0  0  0  0
    4.0072   -6.2017   -0.0921 H   0  0  0  0  0  0  0  0  0  0  0  0
    1.6722   -6.1279   -0.0955 H   0  0  0  0  0  0  0  0  0  0  0  0
   -0.5361   -6.8598    1.0711 H   0  0  0  0  0  0  0  0  0  0  0  0
    7.7882   -6.8055    2.9788 H   0  0  0  0  0  0  0  0  0  0  0  0
  1  2  1  0
  1 28  1  0
  1 29  1  0
  1 30  1  0
  2  3  1  0
  3 19  1  0
  3  4  1  0
  3 31  1  6
  4  5  2  0
  4 32  1  0
  5 14  1  0
  6  5  1  6
  6 20  1  0
  6 22  1  0
  6  7  1  0
  7  8  1  0
  7 33  1  0
  7 34  1  0
  8  9  1  0
  8 35  1  0
  8 36  1  0
  9 12  1  0
  9 10  1  0
  9 51  1  1
 11 10  1  1
 10 37  1  0
 10 38  1  0
 11 14  1  0
 11 12  1  0
 11 20  1  0
 12 13  1  0
 12 39  1  6
 14 13  1  1
 13 40  1  0
 13 41  1  0
 14 15  1  0
 15 16  1  0
 15 17  1  0
 15 42  1  6
 16 43  1  0
 17 18  1  0
 17 19  1  0
 17 44  1  1
 18 45  1  0
 19 46  1  0
 19 47  1  0
 20 21  1  0
 20 48  1  6
 22 21  1  6
 22 27  1  0
 22 23  1  0
 23 24  2  0
 23 49  1  0
 24 25  1  0
 24 50  1  0
 25 26  2  0
 25 27  1  0
M  CHG  1   9   1
M  END
>  <i_m_ct_stereo_status>  (296) 
1

>  <s_m_source_file>  (296) 
/var/tmp/pbs.5076255.sched01/tmpb6g28bo8/1236hu3uqnd.sdf

>  <i_m_source_file_index>  (296) 
6

>  <i_lp_mmshare_version>  (296) 
48012

>  <i_f3d_flags>  (296) 
0

>  <s_epik_input>  (296) 
W09IXVtDQEhdMVtDQEBIXShbT0hdKVtDSDJdW0NASF0oT1tDSDNdKVtDSF09QzJbQ0BAXTEoW0NIMl1bQ0BIXTNOKFtDSDJdNClbQ0gyXVtDSDJdNSlbQ0BdMzRbQ0BIXTZPW0NAQF03KFtDQEBdMjU2KVtDSF09W0NIXUMoPU8pTzc=

>  <s_epik_cmdline>  (296) 
J2VwaWtfcHl0aG9uJywgJy1waHQnLCAnMi4wJywgJy1waCcsICc3LjAnLCAnLXRuJywgJzgnLCAnLW1hJywgJzIwMCcsICctaW1hZScsICc8aW5maWxlLm1hZT4nLCAnLW9tYWUnLCAnPG91dGZpbGUubWFlPic=

>  <r_lp_tautomer_probability>  (296) 
1

>  <r_epik_Ionization_Penalty>  (296) 
0.0279382

>  <r_epik_Ionization_Penalty_Charging>  (296) 
0.0279374

>  <r_epik_Ionization_Penalty_Neutral>  (296) 
8.56339e-07

>  <r_epik_State_Penalty>  (296) 
0.0228957

>  <r_epik_Charging_Adjusted_Penalty>  (296) 
0.0508331

>  <i_epik_Tot_Q>  (296) 
1

>  <i_epik_Tot_abs_Q>  (296) 
1

>  <s_epik_Chemistry_Notes>  (296) 
This compound has an ester and may undergo hydrolysis at high or low pH.

>  <s_lp_Force_Field>  (296) 
OPLS3e

>  <r_lp_Energy>  (296) 
193.677

>  <b_lp_Chiralities_Consistent>  (296) 
1

>  <s_lp_Variant>  (296) 
90:0-1

>  <s_i_glide_gridfile>  (296) 
pfpi4k_grid

>  <i_i_glide_lignum>  (296) 
6

>  <i_i_glide_rotatable_bonds>  (296) 
3

>  <r_i_docking_score>  (296) 
-3.15717

>  <r_i_glide_ligand_efficiency>  (296) 
-0.116932

>  <r_i_glide_ligand_efficiency_sa>  (296) 
-0.350796

>  <r_i_glide_ligand_efficiency_ln>  (296) 
-0.734936

>  <r_i_glide_gscore>  (296) 
-3.15717

>  <r_i_glide_lipo>  (296) 
-0.585992

>  <r_i_glide_hbond>  (296) 
0

>  <r_i_glide_metal>  (296) 
-0

>  <r_i_glide_rewards>  (296) 
-0.863327

>  <r_i_glide_evdw>  (296) 
-22.0763

>  <r_i_glide_ecoul>  (296) 
-3.80214

>  <r_i_glide_erotb>  (296) 
0

>  <r_i_glide_esite>  (296) 
-0.0337109

>  <r_i_glide_emodel>  (296) 
-30.2167

>  <r_i_glide_energy>  (296) 
-25.8784

>  <r_i_glide_einternal>  (296) 
2.40738

>  <r_i_glide_intrahb_reward>  (296) 
-0

>  <i_i_glide_confnum>  (296) 
2

>  <i_i_glide_posenum>  (296) 
18

>  <r_i_glide_eff_state_penalty>  (296) 
0

>  <ligand_id>  (296) 
90

>  <original_smiles>  (296) 
COC1C=C2C34CCN5CC6(C5CC26C(O)C(O)C1)C3OC41C=CC(=O)O1

>  <smiles>  (296) 
[H]OC1([H])C([H])([H])C([H])(OC([H])([H])[H])C([H])=C2C34C5(OC(=O)C([H])=C5[H])OC3([H])C35C2(C([H])([H])C3([H])[N+]([H])(C([H])([H])C4([H])[H])C5([H])[H])C1([H])O[H]

$$$$
90:1:0
     RDKit          3D

 50 56  0  0  1  0  0  0  0  0999 V2000
    0.1904   -1.8004    4.2187 C   0  0  0  0  0  0  0  0  0  0  0  0
    1.2372   -2.2349    3.3568 O   0  0  0  0  0  0  0  0  0  0  0  0
    1.9925   -1.2036    2.7227 C   0  0  2  0  0  0  0  0  0  0  0  0
    2.7493   -1.7802    1.5338 C   0  0  0  0  0  0  0  0  0  0  0  0
    3.8952   -2.4948    1.5036 C   0  0  0  0  0  0  0  0  0  0  0  0
    4.4329   -3.1513    0.2365 C   0  0  2  0  0  0  0  0  0  0  0  0
    4.0187   -4.6364    0.2046 C   0  0  0  0  0  0  0  0  0  0  0  0
    5.0688   -5.7272    0.5565 C   0  0  0  0  0  0  0  0  0  0  0  0
    6.0256   -5.5622    1.6638 N   0  0  0  0  0  0  0  0  0  0  0  0
    7.0987   -4.6455    1.4344 C   0  0  0  0  0  0  0  0  0  0  0  0
    6.2176   -3.4203    1.9196 C   0  0  1  0  0  0  0  0  0  0  0  0
    5.7230   -4.7053    2.7542 C   0  0  1  0  0  0  0  0  0  0  0  0
    4.4054   -4.2207    3.2203 C   0  0  0  0  0  0  0  0  0  0  0  0
    4.8610   -2.8923    2.6610 C   0  0  2  0  0  0  0  0  0  0  0  0
    5.0848   -1.7727    3.7136 C   0  0  1  0  0  0  0  0  0  0  0  0
    5.7221   -0.6425    3.1385 O   0  0  0  0  0  0  0  0  0  0  0  0
    3.8418   -1.3033    4.5081 C   0  0  1  0  0  0  0  0  0  0  0  0
    4.2771   -0.5682    5.6354 O   0  0  0  0  0  0  0  0  0  0  0  0
    2.8568   -0.4230    3.7252 C   0  0  0  0  0  0  0  0  0  0  0  0
    5.8372   -2.7525    0.6158 C   0  0  1  0  0  0  0  0  0  0  0  0
    6.2898   -2.9055   -0.7467 O   0  0  0  0  0  0  0  0  0  0  0  0
    4.9277   -2.5334   -1.1007 C   0  0  2  0  0  0  0  0  0  0  0  0
    4.6816   -1.0709   -1.3620 C   0  0  0  0  0  0  0  0  0  0  0  0
    4.1155   -0.9230   -2.5538 C   0  0  0  0  0  0  0  0  0  0  0  0
    3.9651   -2.2470   -3.1586 C   0  0  0  0  0  0  0  0  0  0  0  0
    3.4982   -2.4929   -4.2656 O   0  0  0  0  0  0  0  0  0  0  0  0
    4.4522   -3.1539   -2.2877 O   0  0  0  0  0  0  0  0  0  0  0  0
   -0.2723   -2.6730    4.6818 H   0  0  0  0  0  0  0  0  0  0  0  0
   -0.5817   -1.2549    3.6789 H   0  0  0  0  0  0  0  0  0  0  0  0
    0.5470   -1.1677    5.0301 H   0  0  0  0  0  0  0  0  0  0  0  0
    1.2860   -0.5017    2.2764 H   0  0  0  0  0  0  0  0  0  0  0  0
    2.2363   -1.6549    0.5923 H   0  0  0  0  0  0  0  0  0  0  0  0
    3.0952   -4.7874    0.7612 H   0  0  0  0  0  0  0  0  0  0  0  0
    3.6958   -4.8954   -0.7984 H   0  0  0  0  0  0  0  0  0  0  0  0
    4.4975   -6.6199    0.8173 H   0  0  0  0  0  0  0  0  0  0  0  0
    5.6414   -5.9918   -0.3317 H   0  0  0  0  0  0  0  0  0  0  0  0
    7.9554   -4.8734    2.0718 H   0  0  0  0  0  0  0  0  0  0  0  0
    7.4066   -4.6764    0.3918 H   0  0  0  0  0  0  0  0  0  0  0  0
    6.3671   -4.9365    3.6040 H   0  0  0  0  0  0  0  0  0  0  0  0
    3.5407   -4.7123    2.7840 H   0  0  0  0  0  0  0  0  0  0  0  0
    4.3213   -4.2380    4.3056 H   0  0  0  0  0  0  0  0  0  0  0  0
    5.7879   -2.1680    4.4534 H   0  0  0  0  0  0  0  0  0  0  0  0
    5.1470   -0.2714    2.4878 H   0  0  0  0  0  0  0  0  0  0  0  0
    3.3173   -2.1684    4.9124 H   0  0  0  0  0  0  0  0  0  0  0  0
    4.6890    0.2247    5.3256 H   0  0  0  0  0  0  0  0  0  0  0  0
    3.3632    0.4052    3.2287 H   0  0  0  0  0  0  0  0  0  0  0  0
    2.2006    0.0693    4.4403 H   0  0  0  0  0  0  0  0  0  0  0  0
    5.9771   -1.6855    0.8367 H   0  0  0  0  0  0  0  0  0  0  0  0
    4.9259   -0.2675   -0.6838 H   0  0  0  0  0  0  0  0  0  0  0  0
    3.8018   -0.0024   -3.0162 H   0  0  0  0  0  0  0  0  0  0  0  0
  1  2  1  0
  1 28  1  0
  1 29  1  0
  1 30  1  0
  2  3  1  0
  3 19  1  0
  3  4  1  0
  3 31  1  6
  4  5  2  0
  4 32  1  0
  5 14  1  0
  6  5  1  1
  6 20  1  0
  6 22  1  0
  6  7  1  0
  7  8  1  0
  7 33  1  0
  7 34  1  0
  8  9  1  0
  8 35  1  0
  8 36  1  0
  9 12  1  0
  9 10  1  0
 11 10  1  6
 10 37  1  0
 10 38  1  0
 11 14  1  0
 11 12  1  0
 11 20  1  0
 12 13  1  0
 12 39  1  1
 14 13  1  1
 13 40  1  0
 13 41  1  0
 14 15  1  0
 15 16  1  0
 15 17  1  0
 15 42  1  1
 16 43  1  0
 17 18  1  0
 17 19  1  0
 17 44  1  1
 18 45  1  0
 19 46  1  0
 19 47  1  0
 20 21  1  0
 20 48  1  1
 22 21  1  1
 22 27  1  0
 22 23  1  0
 23 24  2  0
 23 49  1  0
 24 25  1  0
 24 50  1  0
 25 26  2  0
 25 27  1  0
M  END
>  <i_m_ct_stereo_status>  (297) 
1

>  <s_m_source_file>  (297) 
/var/tmp/pbs.5076255.sched01/tmpb6g28bo8/1236hu3uqnd.sdf

>  <i_m_source_file_index>  (297) 
7

>  <i_lp_mmshare_version>  (297) 
48012

>  <i_f3d_flags>  (297) 
0

>  <s_epik_input>  (297) 
W09IXVtDQEhdMVtDQEBIXShbT0hdKVtDSDJdW0NASF0oT1tDSDNdKVtDSF09QzJbQ0BAXTEoW0NIMl1bQ0BIXTNOKFtDSDJdNClbQ0gyXVtDSDJdNSlbQ0BdMzRbQ0BIXTZPW0NAQF03KFtDQEBdMjU2KVtDSF09W0NIXUMoPU8pTzc=

>  <s_epik_cmdline>  (297) 
J2VwaWtfcHl0aG9uJywgJy1waHQnLCAnMi4wJywgJy1waCcsICc3LjAnLCAnLXRuJywgJzgnLCAnLW1hJywgJzIwMCcsICctaW1hZScsICc8aW5maWxlLm1hZT4nLCAnLW9tYWUnLCAnPG91dGZpbGUubWFlPic=

>  <r_lp_tautomer_probability>  (297) 
1

>  <r_epik_Ionization_Penalty>  (297) 
1.82358

>  <r_epik_Ionization_Penalty_Charging>  (297) 
0

>  <r_epik_Ionization_Penalty_Neutral>  (297) 
1.82358

>  <r_epik_State_Penalty>  (297) 
1.93899

>  <r_epik_Charging_Adjusted_Penalty>  (297) 
1.93899

>  <i_epik_Tot_Q>  (297) 
0

>  <i_epik_Tot_abs_Q>  (297) 
0

>  <s_epik_Chemistry_Notes>  (297) 
This compound has an ester and may undergo hydrolysis at high or low pH.

>  <s_lp_Force_Field>  (297) 
OPLS3e

>  <r_lp_Energy>  (297) 
178.887

>  <b_lp_Chiralities_Consistent>  (297) 
1

>  <s_lp_Variant>  (297) 
90:0-2

>  <s_i_glide_gridfile>  (297) 
pfpi4k_grid

>  <i_i_glide_lignum>  (297) 
7

>  <i_i_glide_rotatable_bonds>  (297) 
3

>  <r_i_docking_score>  (297) 
-3.53256

>  <r_i_glide_ligand_efficiency>  (297) 
-0.130835

>  <r_i_glide_ligand_efficiency_sa>  (297) 
-0.392506

>  <r_i_glide_ligand_efficiency_ln>  (297) 
-0.822321

>  <r_i_glide_gscore>  (297) 
-3.53256

>  <r_i_glide_lipo>  (297) 
-0.495401

>  <r_i_glide_hbond>  (297) 
-0.32

>  <r_i_glide_metal>  (297) 
-0

>  <r_i_glide_rewards>  (297) 
-1.05918

>  <r_i_glide_evdw>  (297) 
-24.8222

>  <r_i_glide_ecoul>  (297) 
-2.70138

>  <r_i_glide_erotb>  (297) 
0

>  <r_i_glide_esite>  (297) 
-0.0116571

>  <r_i_glide_emodel>  (297) 
-31.8823

>  <r_i_glide_energy>  (297) 
-27.5236

>  <r_i_glide_einternal>  (297) 
2.97744

>  <r_i_glide_intrahb_reward>  (297) 
-0

>  <i_i_glide_confnum>  (297) 
1

>  <i_i_glide_posenum>  (297) 
1

>  <r_i_glide_eff_state_penalty>  (297) 
0

>  <ligand_id>  (297) 
90

>  <original_smiles>  (297) 
COC1C=C2C34CCN5CC6(C5CC26C(O)C(O)C1)C3OC41C=CC(=O)O1

>  <smiles>  (297) 
[H]OC1([H])C([H])([H])C([H])(OC([H])([H])[H])C([H])=C2C34C5(OC(=O)C([H])=C5[H])OC3([H])C35C([H])([H])N(C([H])([H])C4([H])[H])C3([H])C([H])([H])C25C1([H])O[H]

$$$$
90:1:1
     RDKit          3D

 50 56  0  0  1  0  0  0  0  0999 V2000
    3.1976    0.2845    2.4507 C   0  0  0  0  0  0  0  0  0  0  0  0
    3.6049   -1.0696    2.2923 O   0  0  0  0  0  0  0  0  0  0  0  0
    2.9142   -1.7939    1.2775 C   0  0  2  0  0  0  0  0  0  0  0  0
    2.8803   -3.2700    1.6383 C   0  0  0  0  0  0  0  0  0  0  0  0
    3.8381   -4.2110    1.5097 C   0  0  0  0  0  0  0  0  0  0  0  0
    3.7076   -5.6163    2.0856 C   0  0  2  0  0  0  0  0  0  0  0  0
    4.4161   -5.6955    3.4505 C   0  0  0  0  0  0  0  0  0  0  0  0
    5.8116   -6.3778    3.5384 C   0  0  0  0  0  0  0  0  0  0  0  0
    6.8478   -6.1817    2.5104 N   0  0  0  0  0  0  0  0  0  0  0  0
    6.6363   -6.8673    1.2734 C   0  0  0  0  0  0  0  0  0  0  0  0
    5.7627   -5.6654    0.7094 C   0  0  1  0  0  0  0  0  0  0  0  0
    6.8542   -5.0156    1.7003 C   0  0  1  0  0  0  0  0  0  0  0  0
    6.2245   -3.7028    1.9610 C   0  0  0  0  0  0  0  0  0  0  0  0
    5.2656   -4.1167    0.8730 C   0  0  2  0  0  0  0  0  0  0  0  0
    5.3369   -3.2629   -0.4196 C   0  0  1  0  0  0  0  0  0  0  0  0
    4.5489   -3.8545   -1.4355 O   0  0  0  0  0  0  0  0  0  0  0  0
    4.9718   -1.7608   -0.2871 C   0  0  1  0  0  0  0  0  0  0  0  0
    5.4195   -1.0630   -1.4390 O   0  0  0  0  0  0  0  0  0  0  0  0
    3.4776   -1.4712   -0.1123 C   0  0  0  0  0  0  0  0  0  0  0  0
    4.3493   -6.1925    0.8438 C   0  0  1  0  0  0  0  0  0  0  0  0
    3.8098   -7.4938    1.1237 O   0  0  0  0  0  0  0  0  0  0  0  0
    2.7151   -6.7602    1.7491 C   0  0  2  0  0  0  0  0  0  0  0  0
    1.5279   -6.4496    0.8795 C   0  0  0  0  0  0  0  0  0  0  0  0
    0.4212   -6.8995    1.4640 C   0  0  0  0  0  0  0  0  0  0  0  0
    0.7933   -7.5174    2.7376 C   0  0  0  0  0  0  0  0  0  0  0  0
    0.0187   -8.0015    3.5547 O   0  0  0  0  0  0  0  0  0  0  0  0
    2.1329   -7.4308    2.8608 O   0  0  0  0  0  0  0  0  0  0  0  0
    3.8426    0.7679    3.1846 H   0  0  0  0  0  0  0  0  0  0  0  0
    2.1704    0.3470    2.8114 H   0  0  0  0  0  0  0  0  0  0  0  0
    3.2752    0.8609    1.5282 H   0  0  0  0  0  0  0  0  0  0  0  0
    1.8665   -1.4866    1.2904 H   0  0  0  0  0  0  0  0  0  0  0  0
    1.9731   -3.5655    2.1386 H   0  0  0  0  0  0  0  0  0  0  0  0
    4.4340   -4.7165    3.9262 H   0  0  0  0  0  0  0  0  0  0  0  0
    3.7990   -6.2525    4.1513 H   0  0  0  0  0  0  0  0  0  0  0  0
    6.2662   -6.0113    4.4601 H   0  0  0  0  0  0  0  0  0  0  0  0
    5.6909   -7.4541    3.6797 H   0  0  0  0  0  0  0  0  0  0  0  0
    7.5781   -7.0299    0.7531 H   0  0  0  0  0  0  0  0  0  0  0  0
    6.1393   -7.8186    1.4452 H   0  0  0  0  0  0  0  0  0  0  0  0
    7.8285   -4.8901    1.2285 H   0  0  0  0  0  0  0  0  0  0  0  0
    5.8401   -3.5487    2.9619 H   0  0  0  0  0  0  0  0  0  0  0  0
    6.8717   -2.8782    1.6772 H   0  0  0  0  0  0  0  0  0  0  0  0
    6.3715   -3.2987   -0.7749 H   0  0  0  0  0  0  0  0  0  0  0  0
    4.7788   -4.7662   -1.5242 H   0  0  0  0  0  0  0  0  0  0  0  0
    5.5150   -1.3149    0.5448 H   0  0  0  0  0  0  0  0  0  0  0  0
    5.0304   -0.1988   -1.4332 H   0  0  0  0  0  0  0  0  0  0  0  0
    2.8881   -1.9519   -0.8920 H   0  0  0  0  0  0  0  0  0  0  0  0
    3.3280   -0.4094   -0.2729 H   0  0  0  0  0  0  0  0  0  0  0  0
    3.8846   -5.8963   -0.1059 H   0  0  0  0  0  0  0  0  0  0  0  0
    1.5782   -5.9640   -0.0809 H   0  0  0  0  0  0  0  0  0  0  0  0
   -0.5837   -6.8528    1.0852 H   0  0  0  0  0  0  0  0  0  0  0  0
  1  2  1  0
  1 28  1  0
  1 29  1  0
  1 30  1  0
  2  3  1  0
  3 19  1  0
  3  4  1  0
  3 31  1  6
  4  5  2  0
  4 32  1  0
  5 14  1  0
  6  5  1  6
  6 20  1  0
  6 22  1  0
  6  7  1  0
  7  8  1  0
  7 33  1  0
  7 34  1  0
  8  9  1  0
  8 35  1  0
  8 36  1  0
  9 12  1  0
  9 10  1  0
 11 10  1  1
 10 37  1  0
 10 38  1  0
 11 14  1  0
 11 12  1  0
 11 20  1  0
 12 13  1  0
 12 39  1  6
 14 13  1  1
 13 40  1  0
 13 41  1  0
 14 15  1  0
 15 16  1  0
 15 17  1  0
 15 42  1  6
 16 43  1  0
 17 18  1  0
 17 19  1  0
 17 44  1  1
 18 45  1  0
 19 46  1  0
 19 47  1  0
 20 21  1  0
 20 48  1  6
 22 21  1  6
 22 27  1  0
 22 23  1  0
 23 24  2  0
 23 49  1  0
 24 25  1  0
 24 50  1  0
 25 26  2  0
 25 27  1  0
M  END
>  <i_m_ct_stereo_status>  (298) 
1

>  <s_m_source_file>  (298) 
/var/tmp/pbs.5076255.sched01/tmpb6g28bo8/1236hu3uqnd.sdf

>  <i_m_source_file_index>  (298) 
7

>  <i_lp_mmshare_version>  (298) 
48012

>  <i_f3d_flags>  (298) 
0

>  <s_epik_input>  (298) 
W09IXVtDQEhdMVtDQEBIXShbT0hdKVtDSDJdW0NASF0oT1tDSDNdKVtDSF09QzJbQ0BAXTEoW0NIMl1bQ0BIXTNOKFtDSDJdNClbQ0gyXVtDSDJdNSlbQ0BdMzRbQ0BIXTZPW0NAQF03KFtDQEBdMjU2KVtDSF09W0NIXUMoPU8pTzc=

>  <s_epik_cmdline>  (298) 
J2VwaWtfcHl0aG9uJywgJy1waHQnLCAnMi4wJywgJy1waCcsICc3LjAnLCAnLXRuJywgJzgnLCAnLW1hJywgJzIwMCcsICctaW1hZScsICc8aW5maWxlLm1hZT4nLCAnLW9tYWUnLCAnPG91dGZpbGUubWFlPic=

>  <r_lp_tautomer_probability>  (298) 
1

>  <r_epik_Ionization_Penalty>  (298) 
1.82358

>  <r_epik_Ionization_Penalty_Charging>  (298) 
0

>  <r_epik_Ionization_Penalty_Neutral>  (298) 
1.82358

>  <r_epik_State_Penalty>  (298) 
1.93899

>  <r_epik_Charging_Adjusted_Penalty>  (298) 
1.93899

>  <i_epik_Tot_Q>  (298) 
0

>  <i_epik_Tot_abs_Q>  (298) 
0

>  <s_epik_Chemistry_Notes>  (298) 
This compound has an ester and may undergo hydrolysis at high or low pH.

>  <s_lp_Force_Field>  (298) 
OPLS3e

>  <r_lp_Energy>  (298) 
178.887

>  <b_lp_Chiralities_Consistent>  (298) 
1

>  <s_lp_Variant>  (298) 
90:0-2

>  <s_i_glide_gridfile>  (298) 
pfpi4k_grid

>  <i_i_glide_lignum>  (298) 
7

>  <i_i_glide_rotatable_bonds>  (298) 
3

>  <r_i_docking_score>  (298) 
-3.07599

>  <r_i_glide_ligand_efficiency>  (298) 
-0.113926

>  <r_i_glide_ligand_efficiency_sa>  (298) 
-0.341777

>  <r_i_glide_ligand_efficiency_ln>  (298) 
-0.71604

>  <r_i_glide_gscore>  (298) 
-3.07599

>  <r_i_glide_lipo>  (298) 
-0.562936

>  <r_i_glide_hbond>  (298) 
0

>  <r_i_glide_metal>  (298) 
-0

>  <r_i_glide_rewards>  (298) 
-0.863184

>  <r_i_glide_evdw>  (298) 
-23.1113

>  <r_i_glide_ecoul>  (298) 
-3.06737

>  <r_i_glide_erotb>  (298) 
0

>  <r_i_glide_esite>  (298) 
-0.0342025

>  <r_i_glide_emodel>  (298) 
-29.6018

>  <r_i_glide_energy>  (298) 
-26.1787

>  <r_i_glide_einternal>  (298) 
3.23733

>  <r_i_glide_intrahb_reward>  (298) 
-0

>  <i_i_glide_confnum>  (298) 
2

>  <i_i_glide_posenum>  (298) 
14

>  <r_i_glide_eff_state_penalty>  (298) 
0

>  <ligand_id>  (298) 
90

>  <original_smiles>  (298) 
COC1C=C2C34CCN5CC6(C5CC26C(O)C(O)C1)C3OC41C=CC(=O)O1

>  <smiles>  (298) 
[H]OC1([H])C([H])([H])C([H])(OC([H])([H])[H])C([H])=C2C34C5(OC(=O)C([H])=C5[H])OC3([H])C35C([H])([H])N(C([H])([H])C4([H])[H])C3([H])C([H])([H])C25C1([H])O[H]

$$$$
90:1:2
     RDKit          3D

 50 56  0  0  1  0  0  0  0  0999 V2000
    2.9718   -0.9957    3.5397 C   0  0  0  0  0  0  0  0  0  0  0  0
    3.6083   -1.0706    2.2716 O   0  0  0  0  0  0  0  0  0  0  0  0
    2.9091   -1.8303    1.2915 C   0  0  2  0  0  0  0  0  0  0  0  0
    2.8836   -3.3097    1.6408 C   0  0  0  0  0  0  0  0  0  0  0  0
    3.8546   -4.2338    1.5119 C   0  0  0  0  0  0  0  0  0  0  0  0
    3.7391   -5.6398    2.0824 C   0  0  2  0  0  0  0  0  0  0  0  0
    4.4472   -5.7115    3.4500 C   0  0  0  0  0  0  0  0  0  0  0  0
    5.8489   -6.3809    3.5379 C   0  0  0  0  0  0  0  0  0  0  0  0
    6.8824   -6.1757    2.5092 N   0  0  0  0  0  0  0  0  0  0  0  0
    6.6746   -6.8599    1.2710 C   0  0  0  0  0  0  0  0  0  0  0  0
    5.7958   -5.6654    0.7076 C   0  0  1  0  0  0  0  0  0  0  0  0
    6.8785   -5.0076    1.7019 C   0  0  1  0  0  0  0  0  0  0  0  0
    6.2376   -3.7018    1.9629 C   0  0  0  0  0  0  0  0  0  0  0  0
    5.2796   -4.1207    0.8759 C   0  0  2  0  0  0  0  0  0  0  0  0
    5.3452   -3.2577   -0.4140 C   0  0  1  0  0  0  0  0  0  0  0  0
    4.6112   -3.8540   -1.4648 O   0  0  0  0  0  0  0  0  0  0  0  0
    4.9676   -1.7598   -0.2756 C   0  0  1  0  0  0  0  0  0  0  0  0
    5.4042   -1.0587   -1.4323 O   0  0  0  0  0  0  0  0  0  0  0  0
    3.4714   -1.4850   -0.0884 C   0  0  0  0  0  0  0  0  0  0  0  0
    4.3869   -6.2072    0.8396 C   0  0  1  0  0  0  0  0  0  0  0  0
    3.8523   -7.5125    1.1182 O   0  0  0  0  0  0  0  0  0  0  0  0
    2.7543   -6.7887    1.7474 C   0  0  2  0  0  0  0  0  0  0  0  0
    1.5628   -6.4823    0.8812 C   0  0  0  0  0  0  0  0  0  0  0  0
    0.4572   -6.9411    1.4623 C   0  0  0  0  0  0  0  0  0  0  0  0
    0.8362   -7.5592    2.7322 C   0  0  0  0  0  0  0  0  0  0  0  0
    0.0672   -8.0505    3.5492 O   0  0  0  0  0  0  0  0  0  0  0  0
    2.1761   -7.4619    2.8572 O   0  0  0  0  0  0  0  0  0  0  0  0
    3.5613   -0.3559    4.1966 H   0  0  0  0  0  0  0  0  0  0  0  0
    2.8928   -1.9729    4.0173 H   0  0  0  0  0  0  0  0  0  0  0  0
    1.9745   -0.5607    3.4631 H   0  0  0  0  0  0  0  0  0  0  0  0
    1.8696   -1.4982    1.2866 H   0  0  0  0  0  0  0  0  0  0  0  0
    1.9804   -3.6183    2.1394 H   0  0  0  0  0  0  0  0  0  0  0  0
    4.4561   -4.7329    3.9263 H   0  0  0  0  0  0  0  0  0  0  0  0
    3.8339   -6.2736    4.1506 H   0  0  0  0  0  0  0  0  0  0  0  0
    6.2995   -6.0098    4.4601 H   0  0  0  0  0  0  0  0  0  0  0  0
    5.7372   -7.4572    3.6811 H   0  0  0  0  0  0  0  0  0  0  0  0
    7.6180   -7.0161    0.7487 H   0  0  0  0  0  0  0  0  0  0  0  0
    6.1852   -7.8150    1.4398 H   0  0  0  0  0  0  0  0  0  0  0  0
    7.8544   -4.8743    1.2315 H   0  0  0  0  0  0  0  0  0  0  0  0
    5.8559   -3.5524    2.9655 H   0  0  0  0  0  0  0  0  0  0  0  0
    6.8790   -2.8718    1.6774 H   0  0  0  0  0  0  0  0  0  0  0  0
    6.3830   -3.2781   -0.7581 H   0  0  0  0  0  0  0  0  0  0  0  0
    3.7028   -3.9247   -1.2170 H   0  0  0  0  0  0  0  0  0  0  0  0
    5.5140   -1.3109    0.5530 H   0  0  0  0  0  0  0  0  0  0  0  0
    5.0160   -0.1956   -1.4237 H   0  0  0  0  0  0  0  0  0  0  0  0
    2.8833   -1.9529   -0.8771 H   0  0  0  0  0  0  0  0  0  0  0  0
    3.3136   -0.4166   -0.2027 H   0  0  0  0  0  0  0  0  0  0  0  0
    3.9236   -5.9121   -0.1115 H   0  0  0  0  0  0  0  0  0  0  0  0
    1.6111   -5.9972   -0.0792 H   0  0  0  0  0  0  0  0  0  0  0  0
   -0.5507   -6.9016    1.0864 H   0  0  0  0  0  0  0  0  0  0  0  0
  1  2  1  0
  1 28  1  0
  1 29  1  0
  1 30  1  0
  2  3  1  0
  3 19  1  0
  3  4  1  0
  3 31  1  6
  4  5  2  0
  4 32  1  0
  5 14  1  0
  6  5  1  6
  6 20  1  0
  6 22  1  0
  6  7  1  0
  7  8  1  0
  7 33  1  0
  7 34  1  0
  8  9  1  0
  8 35  1  0
  8 36  1  0
  9 12  1  0
  9 10  1  0
 11 10  1  1
 10 37  1  0
 10 38  1  0
 11 14  1  0
 11 12  1  0
 11 20  1  0
 12 13  1  0
 12 39  1  6
 14 13  1  1
 13 40  1  0
 13 41  1  0
 14 15  1  0
 15 16  1  0
 15 17  1  0
 15 42  1  6
 16 43  1  0
 17 18  1  0
 17 19  1  0
 17 44  1  1
 18 45  1  0
 19 46  1  0
 19 47  1  0
 20 21  1  0
 20 48  1  6
 22 21  1  6
 22 27  1  0
 22 23  1  0
 23 24  2  0
 23 49  1  0
 24 25  1  0
 24 50  1  0
 25 26  2  0
 25 27  1  0
M  END
>  <i_m_ct_stereo_status>  (299) 
1

>  <s_m_source_file>  (299) 
/var/tmp/pbs.5076255.sched01/tmpb6g28bo8/1236hu3uqnd.sdf

>  <i_m_source_file_index>  (299) 
7

>  <i_lp_mmshare_version>  (299) 
48012

>  <i_f3d_flags>  (299) 
0

>  <s_epik_input>  (299) 
W09IXVtDQEhdMVtDQEBIXShbT0hdKVtDSDJdW0NASF0oT1tDSDNdKVtDSF09QzJbQ0BAXTEoW0NIMl1bQ0BIXTNOKFtDSDJdNClbQ0gyXVtDSDJdNSlbQ0BdMzRbQ0BIXTZPW0NAQF03KFtDQEBdMjU2KVtDSF09W0NIXUMoPU8pTzc=

>  <s_epik_cmdline>  (299) 
J2VwaWtfcHl0aG9uJywgJy1waHQnLCAnMi4wJywgJy1waCcsICc3LjAnLCAnLXRuJywgJzgnLCAnLW1hJywgJzIwMCcsICctaW1hZScsICc8aW5maWxlLm1hZT4nLCAnLW9tYWUnLCAnPG91dGZpbGUubWFlPic=

>  <r_lp_tautomer_probability>  (299) 
1

>  <r_epik_Ionization_Penalty>  (299) 
1.82358

>  <r_epik_Ionization_Penalty_Charging>  (299) 
0

>  <r_epik_Ionization_Penalty_Neutral>  (299) 
1.82358

>  <r_epik_State_Penalty>  (299) 
1.93899

>  <r_epik_Charging_Adjusted_Penalty>  (299) 
1.93899

>  <i_epik_Tot_Q>  (299) 
0

>  <i_epik_Tot_abs_Q>  (299) 
0

>  <s_epik_Chemistry_Notes>  (299) 
This compound has an ester and may undergo hydrolysis at high or low pH.

>  <s_lp_Force_Field>  (299) 
OPLS3e

>  <r_lp_Energy>  (299) 
178.887

>  <b_lp_Chiralities_Consistent>  (299) 
1

>  <s_lp_Variant>  (299) 
90:0-2

>  <s_i_glide_gridfile>  (299) 
pfpi4k_grid

>  <i_i_glide_lignum>  (299) 
7

>  <i_i_glide_rotatable_bonds>  (299) 
3

>  <r_i_docking_score>  (299) 
-2.97257

>  <r_i_glide_ligand_efficiency>  (299) 
-0.110095

>  <r_i_glide_ligand_efficiency_sa>  (299) 
-0.330285

>  <r_i_glide_ligand_efficiency_ln>  (299) 
-0.691964

>  <r_i_glide_gscore>  (299) 
-2.97257

>  <r_i_glide_lipo>  (299) 
-0.519125

>  <r_i_glide_hbond>  (299) 
0

>  <r_i_glide_metal>  (299) 
-0

>  <r_i_glide_rewards>  (299) 
-0.868079

>  <r_i_glide_evdw>  (299) 
-22.3812

>  <r_i_glide_ecoul>  (299) 
-2.89093

>  <r_i_glide_erotb>  (299) 
0

>  <r_i_glide_esite>  (299) 
-0.0326609

>  <r_i_glide_emodel>  (299) 
-29.8223

>  <r_i_glide_energy>  (299) 
-25.2722

>  <r_i_glide_einternal>  (299) 
0.5777

>  <r_i_glide_intrahb_reward>  (299) 
-0

>  <i_i_glide_confnum>  (299) 
1

>  <i_i_glide_posenum>  (299) 
11

>  <r_i_glide_eff_state_penalty>  (299) 
0

>  <ligand_id>  (299) 
90

>  <original_smiles>  (299) 
COC1C=C2C34CCN5CC6(C5CC26C(O)C(O)C1)C3OC41C=CC(=O)O1

>  <smiles>  (299) 
[H]OC1([H])C([H])([H])C([H])(OC([H])([H])[H])C([H])=C2C34C5(OC(=O)C([H])=C5[H])OC3([H])C35C([H])([H])N(C([H])([H])C4([H])[H])C3([H])C([H])([H])C25C1([H])O[H]

$$$$
91:0:0
     RDKit          3D

 45 48  0  0  1  0  0  0  0  0999 V2000
    1.8887   -6.5230    1.7392 C   0  0  0  0  0  0  0  0  0  0  0  0
    2.8255   -5.6974    1.2496 C   0  0  0  0  0  0  0  0  0  0  0  0
    4.2915   -5.9146    1.5674 C   0  0  2  0  0  0  0  0  0  0  0  0
    4.7815   -4.9353    2.6531 C   0  0  0  0  0  0  0  0  0  0  0  0
    4.3682   -3.4597    2.4341 C   0  0  1  0  0  0  0  0  0  0  0  0
    5.1189   -2.5373    3.4031 C   0  0  0  0  0  0  0  0  0  0  0  0
    4.5143   -2.9959    0.9788 C   0  0  1  0  0  0  0  0  0  0  0  0
    5.8072   -3.3390    0.2264 C   0  0  2  0  0  0  0  0  0  0  0  0
    6.4692   -2.2894   -0.6520 C   0  0  0  0  0  0  0  0  0  0  0  0
    5.6686   -1.8756   -1.8969 C   0  0  0  0  0  0  0  0  0  0  0  0
    4.1997   -1.4978   -1.6487 C   0  0  1  0  0  0  0  0  0  0  0  0
    3.6630   -0.6667   -2.8353 C   0  0  0  0  0  0  0  0  0  0  0  0
    3.2917   -2.7316   -1.3387 C   0  0  1  0  0  0  0  0  0  0  0  0
    3.2167   -3.4476   -2.5618 O   0  0  0  0  0  0  0  0  0  0  0  0
    3.7235   -3.6889   -0.1741 C   0  0  2  0  0  0  0  0  0  0  0  0
    2.4896   -4.5217    0.3218 C   0  0  1  0  0  0  0  0  0  0  0  0
    1.6404   -5.0121   -0.7003 O   0  0  0  0  0  0  0  0  0  0  0  0
    5.0201   -4.4953   -0.3993 C   0  0  2  0  0  0  0  0  0  0  0  0
    5.1121   -5.8556    0.2694 C   0  0  0  0  0  0  0  0  0  0  0  0
    0.8396   -6.3954    1.5121 H   0  0  0  0  0  0  0  0  0  0  0  0
    2.1609   -7.3537    2.3798 H   0  0  0  0  0  0  0  0  0  0  0  0
    4.4093   -6.9235    1.9672 H   0  0  0  0  0  0  0  0  0  0  0  0
    4.3815   -5.2546    3.6158 H   0  0  0  0  0  0  0  0  0  0  0  0
    5.8673   -5.0144    2.7433 H   0  0  0  0  0  0  0  0  0  0  0  0
    3.3176   -3.3697    2.7126 H   0  0  0  0  0  0  0  0  0  0  0  0
    6.1829   -2.5381    3.1789 H   0  0  0  0  0  0  0  0  0  0  0  0
    4.9880   -2.8579    4.4372 H   0  0  0  0  0  0  0  0  0  0  0  0
    4.7729   -1.5075    3.3297 H   0  0  0  0  0  0  0  0  0  0  0  0
    4.3473   -1.9201    0.9475 H   0  0  0  0  0  0  0  0  0  0  0  0
    6.5476   -3.7379    0.9274 H   0  0  0  0  0  0  0  0  0  0  0  0
    6.6863   -1.4025   -0.0529 H   0  0  0  0  0  0  0  0  0  0  0  0
    7.4457   -2.6496   -0.9825 H   0  0  0  0  0  0  0  0  0  0  0  0
    6.1623   -1.0066   -2.3141 H   0  0  0  0  0  0  0  0  0  0  0  0
    5.7393   -2.6442   -2.6671 H   0  0  0  0  0  0  0  0  0  0  0  0
    4.1692   -0.8067   -0.8065 H   0  0  0  0  0  0  0  0  0  0  0  0
    3.7223   -1.1969   -3.7857 H   0  0  0  0  0  0  0  0  0  0  0  0
    4.2248    0.2656   -2.9434 H   0  0  0  0  0  0  0  0  0  0  0  0
    2.6188   -0.3863   -2.6818 H   0  0  0  0  0  0  0  0  0  0  0  0
    2.2994   -2.3480   -1.1091 H   0  0  0  0  0  0  0  0  0  0  0  0
    3.0059   -4.3559   -2.3877 H   0  0  0  0  0  0  0  0  0  0  0  0
    1.8673   -3.8612    0.9289 H   0  0  0  0  0  0  0  0  0  0  0  0
    2.1764   -5.4881   -1.3415 H   0  0  0  0  0  0  0  0  0  0  0  0
    5.2544   -4.5681   -1.4640 H   0  0  0  0  0  0  0  0  0  0  0  0
    6.1537   -6.1221    0.4631 H   0  0  0  0  0  0  0  0  0  0  0  0
    4.7336   -6.6162   -0.4150 H   0  0  0  0  0  0  0  0  0  0  0  0
  1  2  2  0
  1 20  1  0
  1 21  1  0
  2 16  1  0
  2  3  1  0
  3 19  1  0
  3  4  1  0
  3 22  1  1
  4  5  1  0
  4 23  1  0
  4 24  1  0
  5  6  1  0
  5  7  1  0
  5 25  1  1
  6 26  1  0
  6 27  1  0
  6 28  1  0
  7 15  1  0
  7  8  1  0
  7 29  1  1
  8 18  1  0
  8  9  1  0
  8 30  1  1
  9 10  1  0
  9 31  1  0
  9 32  1  0
 10 11  1  0
 10 33  1  0
 10 34  1  0
 11 12  1  0
 11 13  1  0
 11 35  1  1
 12 36  1  0
 12 37  1  0
 12 38  1  0
 13 14  1  0
 13 15  1  0
 13 39  1  1
 14 40  1  0
 15 16  1  1
 15 18  1  0
 16 17  1  0
 16 41  1  1
 17 42  1  0
 18 19  1  0
 18 43  1  6
 19 44  1  0
 19 45  1  0
M  END
>  <i_m_ct_stereo_status>  (300) 
1

>  <s_m_source_file>  (300) 
/var/tmp/pbs.5076255.sched01/tmpb6g28bo8/1236hu3uqnd.sdf

>  <i_m_source_file_index>  (300) 
8

>  <i_lp_mmshare_version>  (300) 
48012

>  <i_f3d_flags>  (300) 
0

>  <s_epik_input>  (300) 
W0NIM11bQ0BASF0xW0NIMl1bQ0BASF0oQyg9W0NIMl0pW0NAQEhdMltPSF0pW0NIMl1bQ0BASF0zW0NASF0oW0NASF0xW0NAXTIzNClbQ0gyXVtDSDJdW0NAQEhdKFtDSDNdKVtDQEhdNFtPSF0=

>  <s_epik_cmdline>  (300) 
J2VwaWtfcHl0aG9uJywgJy1waHQnLCAnMi4wJywgJy1waCcsICc3LjAnLCAnLXRuJywgJzgnLCAnLW1hJywgJzIwMCcsICctaW1hZScsICc8aW5maWxlLm1hZT4nLCAnLW9tYWUnLCAnPG91dGZpbGUubWFlPic=

>  <r_lp_tautomer_probability>  (300) 
1

>  <r_epik_Ionization_Penalty>  (300) 
9.02289e-07

>  <r_epik_Ionization_Penalty_Charging>  (300) 
0

>  <r_epik_Ionization_Penalty_Neutral>  (300) 
9.02289e-07

>  <r_epik_State_Penalty>  (300) 
-0

>  <r_epik_Charging_Adjusted_Penalty>  (300) 
0

>  <i_epik_Tot_Q>  (300) 
0

>  <i_epik_Tot_abs_Q>  (300) 
0

>  <s_lp_Force_Field>  (300) 
OPLS3e

>  <r_lp_Energy>  (300) 
49.603

>  <b_lp_Chiralities_Consistent>  (300) 
1

>  <s_lp_Variant>  (300) 
91:0-1

>  <s_i_glide_gridfile>  (300) 
pfpi4k_grid

>  <i_i_glide_lignum>  (300) 
8

>  <i_i_glide_rotatable_bonds>  (300) 
2

>  <r_i_docking_score>  (300) 
-4.33569

>  <r_i_glide_ligand_efficiency>  (300) 
-0.228194

>  <r_i_glide_ligand_efficiency_sa>  (300) 
-0.608914

>  <r_i_glide_ligand_efficiency_ln>  (300) 
-1.09919

>  <r_i_glide_gscore>  (300) 
-4.33569

>  <r_i_glide_lipo>  (300) 
-0.384795

>  <r_i_glide_hbond>  (300) 
0

>  <r_i_glide_metal>  (300) 
-0

>  <r_i_glide_rewards>  (300) 
-1.62009

>  <r_i_glide_evdw>  (300) 
-15.4466

>  <r_i_glide_ecoul>  (300) 
-10.3898

>  <r_i_glide_erotb>  (300) 
0

>  <r_i_glide_esite>  (300) 
0

>  <r_i_glide_emodel>  (300) 
-32.0191

>  <r_i_glide_energy>  (300) 
-25.8365

>  <r_i_glide_einternal>  (300) 
1.22199

>  <r_i_glide_intrahb_reward>  (300) 
-0

>  <i_i_glide_confnum>  (300) 
1

>  <i_i_glide_posenum>  (300) 
3

>  <r_i_glide_eff_state_penalty>  (300) 
0

>  <ligand_id>  (300) 
91

>  <original_smiles>  (300) 
C=C1C2CC(C)C3C4CCC(C)C(O)C3(C1O)C4C2

>  <smiles>  (300) 
[H]OC1([H])C(=C([H])[H])C2([H])C([H])([H])C([H])(C([H])([H])[H])C3([H])C4([H])C([H])([H])C([H])([H])C([H])(C([H])([H])[H])C([H])(O[H])C13C4([H])C2([H])[H]

$$$$
91:0:1
     RDKit          3D

 45 48  0  0  1  0  0  0  0  0999 V2000
    1.3372   -7.2631    1.6726 C   0  0  0  0  0  0  0  0  0  0  0  0
    2.4986   -6.6090    1.4932 C   0  0  0  0  0  0  0  0  0  0  0  0
    3.8151   -7.2683    1.8592 C   0  0  2  0  0  0  0  0  0  0  0  0
    4.3613   -6.7301    3.1956 C   0  0  0  0  0  0  0  0  0  0  0  0
    4.3425   -5.1930    3.3369 C   0  0  1  0  0  0  0  0  0  0  0  0
    5.1496   -4.7507    4.5697 C   0  0  0  0  0  0  0  0  0  0  0  0
    4.7888   -4.4473    2.0688 C   0  0  1  0  0  0  0  0  0  0  0  0
    6.0546   -4.9314    1.3516 C   0  0  2  0  0  0  0  0  0  0  0  0
    7.0591   -3.9099    0.8266 C   0  0  0  0  0  0  0  0  0  0  0  0
    6.5741   -3.0120   -0.3213 C   0  0  0  0  0  0  0  0  0  0  0  0
    5.2016   -2.3440   -0.0901 C   0  0  1  0  0  0  0  0  0  0  0  0
    5.0270   -1.1478   -1.0474 C   0  0  0  0  0  0  0  0  0  0  0  0
    3.9938   -3.3299   -0.1773 C   0  0  1  0  0  0  0  0  0  0  0  0
    3.9488   -3.6882   -1.5461 O   0  0  0  0  0  0  0  0  0  0  0  0
    4.0185   -4.6225    0.7264 C   0  0  2  0  0  0  0  0  0  0  0  0
    2.5668   -5.1967    0.8803 C   0  0  1  0  0  0  0  0  0  0  0  0
    1.8142   -5.1903   -0.3079 O   0  0  0  0  0  0  0  0  0  0  0  0
    5.1151   -5.6600    0.3907 C   0  0  2  0  0  0  0  0  0  0  0  0
    4.8056   -7.1209    0.6980 C   0  0  0  0  0  0  0  0  0  0  0  0
    0.3899   -6.8233    1.4015 H   0  0  0  0  0  0  0  0  0  0  0  0
    1.3273   -8.2584    2.0850 H   0  0  0  0  0  0  0  0  0  0  0  0
    3.6399   -8.3386    1.9884 H   0  0  0  0  0  0  0  0  0  0  0  0
    3.7677   -7.1527    4.0089 H   0  0  0  0  0  0  0  0  0  0  0  0
    5.3764   -7.1077    3.3453 H   0  0  0  0  0  0  0  0  0  0  0  0
    3.3115   -4.9019    3.5493 H   0  0  0  0  0  0  0  0  0  0  0  0
    6.2070   -4.9854    4.4606 H   0  0  0  0  0  0  0  0  0  0  0  0
    4.7863   -5.2502    5.4719 H   0  0  0  0  0  0  0  0  0  0  0  0
    5.0587   -3.6789    4.7347 H   0  0  0  0  0  0  0  0  0  0  0  0
    4.8765   -3.3919    2.3051 H   0  0  0  0  0  0  0  0  0  0  0  0
    6.5796   -5.6539    1.9786 H   0  0  0  0  0  0  0  0  0  0  0  0
    7.3897   -3.2742    1.6522 H   0  0  0  0  0  0  0  0  0  0  0  0
    7.9687   -4.4224    0.4967 H   0  0  0  0  0  0  0  0  0  0  0  0
    7.3321   -2.2347   -0.4581 H   0  0  0  0  0  0  0  0  0  0  0  0
    6.5697   -3.5730   -1.2582 H   0  0  0  0  0  0  0  0  0  0  0  0
    5.2127   -1.8920    0.8996 H   0  0  0  0  0  0  0  0  0  0  0  0
    5.0973   -1.4396   -2.0979 H   0  0  0  0  0  0  0  0  0  0  0  0
    5.7961   -0.3986   -0.8667 H   0  0  0  0  0  0  0  0  0  0  0  0
    4.0614   -0.6625   -0.9044 H   0  0  0  0  0  0  0  0  0  0  0  0
    3.0857   -2.7630    0.0544 H   0  0  0  0  0  0  0  0  0  0  0  0
    3.3280   -4.3900   -1.6735 H   0  0  0  0  0  0  0  0  0  0  0  0
    2.0260   -4.5534    1.5842 H   0  0  0  0  0  0  0  0  0  0  0  0
    2.3132   -5.6464   -0.9981 H   0  0  0  0  0  0  0  0  0  0  0  0
    5.4678   -5.5458   -0.6332 H   0  0  0  0  0  0  0  0  0  0  0  0
    5.7198   -7.6841    0.9127 H   0  0  0  0  0  0  0  0  0  0  0  0
    4.3795   -7.5923   -0.1924 H   0  0  0  0  0  0  0  0  0  0  0  0
  1  2  2  0
  1 20  1  0
  1 21  1  0
  2 16  1  0
  2  3  1  0
  3 19  1  0
  3  4  1  0
  3 22  1  1
  4  5  1  0
  4 23  1  0
  4 24  1  0
  5  6  1  0
  5  7  1  0
  5 25  1  1
  6 26  1  0
  6 27  1  0
  6 28  1  0
  7 15  1  0
  7  8  1  0
  7 29  1  1
  8 18  1  0
  8  9  1  0
  8 30  1  1
  9 10  1  0
  9 31  1  0
  9 32  1  0
 10 11  1  0
 10 33  1  0
 10 34  1  0
 11 12  1  0
 11 13  1  0
 11 35  1  1
 12 36  1  0
 12 37  1  0
 12 38  1  0
 13 14  1  0
 13 15  1  0
 13 39  1  1
 14 40  1  0
 15 16  1  1
 15 18  1  0
 16 17  1  0
 16 41  1  1
 17 42  1  0
 18 19  1  0
 18 43  1  6
 19 44  1  0
 19 45  1  0
M  END
>  <i_m_ct_stereo_status>  (301) 
1

>  <s_m_source_file>  (301) 
/var/tmp/pbs.5076255.sched01/tmpb6g28bo8/1236hu3uqnd.sdf

>  <i_m_source_file_index>  (301) 
8

>  <i_lp_mmshare_version>  (301) 
48012

>  <i_f3d_flags>  (301) 
0

>  <s_epik_input>  (301) 
W0NIM11bQ0BASF0xW0NIMl1bQ0BASF0oQyg9W0NIMl0pW0NAQEhdMltPSF0pW0NIMl1bQ0BASF0zW0NASF0oW0NASF0xW0NAXTIzNClbQ0gyXVtDSDJdW0NAQEhdKFtDSDNdKVtDQEhdNFtPSF0=

>  <s_epik_cmdline>  (301) 
J2VwaWtfcHl0aG9uJywgJy1waHQnLCAnMi4wJywgJy1waCcsICc3LjAnLCAnLXRuJywgJzgnLCAnLW1hJywgJzIwMCcsICctaW1hZScsICc8aW5maWxlLm1hZT4nLCAnLW9tYWUnLCAnPG91dGZpbGUubWFlPic=

>  <r_lp_tautomer_probability>  (301) 
1

>  <r_epik_Ionization_Penalty>  (301) 
9.02289e-07

>  <r_epik_Ionization_Penalty_Charging>  (301) 
0

>  <r_epik_Ionization_Penalty_Neutral>  (301) 
9.02289e-07

>  <r_epik_State_Penalty>  (301) 
-0

>  <r_epik_Charging_Adjusted_Penalty>  (301) 
0

>  <i_epik_Tot_Q>  (301) 
0

>  <i_epik_Tot_abs_Q>  (301) 
0

>  <s_lp_Force_Field>  (301) 
OPLS3e

>  <r_lp_Energy>  (301) 
49.603

>  <b_lp_Chiralities_Consistent>  (301) 
1

>  <s_lp_Variant>  (301) 
91:0-1

>  <s_i_glide_gridfile>  (301) 
pfpi4k_grid

>  <i_i_glide_lignum>  (301) 
8

>  <i_i_glide_rotatable_bonds>  (301) 
2

>  <r_i_docking_score>  (301) 
-4.14181

>  <r_i_glide_ligand_efficiency>  (301) 
-0.21799

>  <r_i_glide_ligand_efficiency_sa>  (301) 
-0.581685

>  <r_i_glide_ligand_efficiency_ln>  (301) 
-1.05004

>  <r_i_glide_gscore>  (301) 
-4.14181

>  <r_i_glide_lipo>  (301) 
-0.57408

>  <r_i_glide_hbond>  (301) 
0

>  <r_i_glide_metal>  (301) 
-0

>  <r_i_glide_rewards>  (301) 
-1.62009

>  <r_i_glide_evdw>  (301) 
-19.1388

>  <r_i_glide_ecoul>  (301) 
-6.60467

>  <r_i_glide_erotb>  (301) 
0

>  <r_i_glide_esite>  (301) 
0

>  <r_i_glide_emodel>  (301) 
-31.9321

>  <r_i_glide_energy>  (301) 
-25.7435

>  <r_i_glide_einternal>  (301) 
0.888231

>  <r_i_glide_intrahb_reward>  (301) 
-0

>  <i_i_glide_confnum>  (301) 
1

>  <i_i_glide_posenum>  (301) 
15

>  <r_i_glide_eff_state_penalty>  (301) 
0

>  <ligand_id>  (301) 
91

>  <original_smiles>  (301) 
C=C1C2CC(C)C3C4CCC(C)C(O)C3(C1O)C4C2

>  <smiles>  (301) 
[H]OC1([H])C(=C([H])[H])C2([H])C([H])([H])C([H])(C([H])([H])[H])C3([H])C4([H])C([H])([H])C([H])([H])C([H])(C([H])([H])[H])C([H])(O[H])C13C4([H])C2([H])[H]

$$$$
91:0:2
     RDKit          3D

 45 48  0  0  1  0  0  0  0  0999 V2000
    1.7493   -5.7027    2.0074 C   0  0  0  0  0  0  0  0  0  0  0  0
    2.7014   -5.1223    1.1749 C   0  0  0  0  0  0  0  0  0  0  0  0
    4.1396   -5.5051    1.3084 C   0  0  2  0  0  0  0  0  0  0  0  0
    4.9063   -4.3756    2.0297 C   0  0  0  0  0  0  0  0  0  0  0  0
    4.6191   -2.9448    1.5342 C   0  0  1  0  0  0  0  0  0  0  0  0
    5.6352   -1.9554    2.1119 C   0  0  0  0  0  0  0  0  0  0  0  0
    4.5465   -2.8279    0.0005 C   0  0  1  0  0  0  0  0  0  0  0  0
    5.6539   -3.5254   -0.7964 C   0  0  2  0  0  0  0  0  0  0  0  0
    6.2042   -2.8154   -2.0257 C   0  0  0  0  0  0  0  0  0  0  0  0
    5.1738   -2.6547   -3.1500 C   0  0  0  0  0  0  0  0  0  0  0  0
    3.8877   -1.9149   -2.7985 C   0  0  1  0  0  0  0  0  0  0  0  0
    3.2756   -1.2671   -4.0646 C   0  0  0  0  0  0  0  0  0  0  0  0
    2.9151   -2.8614   -2.0675 C   0  0  1  0  0  0  0  0  0  0  0  0
    2.3830   -3.6548   -3.0908 O   0  0  0  0  0  0  0  0  0  0  0  0
    3.4894   -3.6415   -0.8056 C   0  0  2  0  0  0  0  0  0  0  0  0
    2.3086   -4.2053    0.0474 C   0  0  1  0  0  0  0  0  0  0  0  0
    1.4124   -4.9677   -0.7359 O   0  0  0  0  0  0  0  0  0  0  0  0
    4.6421   -4.6571   -1.0354 C   0  0  2  0  0  0  0  0  0  0  0  0
    4.7070   -5.8388   -0.0764 C   0  0  0  0  0  0  0  0  0  0  0  0
    0.7132   -5.4756    1.8942 H   0  0  0  0  0  0  0  0  0  0  0  0
    2.0454   -6.4001    2.7428 H   0  0  0  0  0  0  0  0  0  0  0  0
    4.2095   -6.4054    1.9056 H   0  0  0  0  0  0  0  0  0  0  0  0
    4.6459   -4.4228    3.0891 H   0  0  0  0  0  0  0  0  0  0  0  0
    5.9739   -4.5997    1.9684 H   0  0  0  0  0  0  0  0  0  0  0  0
    3.6486   -2.6398    1.9266 H   0  0  0  0  0  0  0  0  0  0  0  0
    6.6395   -2.1659    1.7510 H   0  0  0  0  0  0  0  0  0  0  0  0
    5.6486   -2.0159    3.2041 H   0  0  0  0  0  0  0  0  0  0  0  0
    5.3930   -0.9284    1.8450 H   0  0  0  0  0  0  0  0  0  0  0  0
    4.4920   -1.7745   -0.2533 H   0  0  0  0  0  0  0  0  0  0  0  0
    6.4668   -3.8643   -0.1605 H   0  0  0  0  0  0  0  0  0  0  0  0
    6.6114   -1.8495   -1.7227 H   0  0  0  0  0  0  0  0  0  0  0  0
    7.0626   -3.3686   -2.4079 H   0  0  0  0  0  0  0  0  0  0  0  0
    5.5252   -1.9984   -3.9007 H   0  0  0  0  0  0  0  0  0  0  0  0
    5.0278   -3.5894   -3.7118 H   0  0  0  0  0  0  0  0  0  0  0  0
    4.1205   -1.0597   -2.1630 H   0  0  0  0  0  0  0  0  0  0  0  0
    3.1082   -2.0072   -4.8440 H   0  0  0  0  0  0  0  0  0  0  0  0
    3.9125   -0.4889   -4.4954 H   0  0  0  0  0  0  0  0  0  0  0  0
    2.3146   -0.8083   -3.8522 H   0  0  0  0  0  0  0  0  0  0  0  0
    2.0617   -2.2531   -1.7954 H   0  0  0  0  0  0  0  0  0  0  0  0
    2.4992   -4.5909   -2.8753 H   0  0  0  0  0  0  0  0  0  0  0  0
    1.8085   -3.3440    0.4883 H   0  0  0  0  0  0  0  0  0  0  0  0
    1.8033   -5.1774   -1.5513 H   0  0  0  0  0  0  0  0  0  0  0  0
    4.6864   -4.9863   -2.0572 H   0  0  0  0  0  0  0  0  0  0  0  0
    5.7306   -6.2116    0.0080 H   0  0  0  0  0  0  0  0  0  0  0  0
    4.1299   -6.6648   -0.5071 H   0  0  0  0  0  0  0  0  0  0  0  0
  1  2  2  0
  1 20  1  0
  1 21  1  0
  2 16  1  0
  2  3  1  0
  3 19  1  0
  3  4  1  0
  3 22  1  1
  4  5  1  0
  4 23  1  0
  4 24  1  0
  5  6  1  0
  5  7  1  0
  5 25  1  1
  6 26  1  0
  6 27  1  0
  6 28  1  0
  7 15  1  0
  7  8  1  0
  7 29  1  1
  8 18  1  0
  8  9  1  0
  8 30  1  1
  9 10  1  0
  9 31  1  0
  9 32  1  0
 10 11  1  0
 10 33  1  0
 10 34  1  0
 11 12  1  0
 11 13  1  0
 11 35  1  1
 12 36  1  0
 12 37  1  0
 12 38  1  0
 13 14  1  0
 13 15  1  0
 13 39  1  1
 14 40  1  0
 15 16  1  1
 15 18  1  0
 16 17  1  0
 16 41  1  1
 17 42  1  0
 18 19  1  0
 18 43  1  6
 19 44  1  0
 19 45  1  0
M  END
>  <i_m_ct_stereo_status>  (302) 
1

>  <s_m_source_file>  (302) 
/var/tmp/pbs.5076255.sched01/tmpb6g28bo8/1236hu3uqnd.sdf

>  <i_m_source_file_index>  (302) 
8

>  <i_lp_mmshare_version>  (302) 
48012

>  <i_f3d_flags>  (302) 
0

>  <s_epik_input>  (302) 
W0NIM11bQ0BASF0xW0NIMl1bQ0BASF0oQyg9W0NIMl0pW0NAQEhdMltPSF0pW0NIMl1bQ0BASF0zW0NASF0oW0NASF0xW0NAXTIzNClbQ0gyXVtDSDJdW0NAQEhdKFtDSDNdKVtDQEhdNFtPSF0=

>  <s_epik_cmdline>  (302) 
J2VwaWtfcHl0aG9uJywgJy1waHQnLCAnMi4wJywgJy1waCcsICc3LjAnLCAnLXRuJywgJzgnLCAnLW1hJywgJzIwMCcsICctaW1hZScsICc8aW5maWxlLm1hZT4nLCAnLW9tYWUnLCAnPG91dGZpbGUubWFlPic=

>  <r_lp_tautomer_probability>  (302) 
1

>  <r_epik_Ionization_Penalty>  (302) 
9.02289e-07

>  <r_epik_Ionization_Penalty_Charging>  (302) 
0

>  <r_epik_Ionization_Penalty_Neutral>  (302) 
9.02289e-07

>  <r_epik_State_Penalty>  (302) 
-0

>  <r_epik_Charging_Adjusted_Penalty>  (302) 
0

>  <i_epik_Tot_Q>  (302) 
0

>  <i_epik_Tot_abs_Q>  (302) 
0

>  <s_lp_Force_Field>  (302) 
OPLS3e

>  <r_lp_Energy>  (302) 
49.603

>  <b_lp_Chiralities_Consistent>  (302) 
1

>  <s_lp_Variant>  (302) 
91:0-1

>  <s_i_glide_gridfile>  (302) 
pfpi4k_grid

>  <i_i_glide_lignum>  (302) 
8

>  <i_i_glide_rotatable_bonds>  (302) 
2

>  <r_i_docking_score>  (302) 
-3.76955

>  <r_i_glide_ligand_efficiency>  (302) 
-0.198397

>  <r_i_glide_ligand_efficiency_sa>  (302) 
-0.529404

>  <r_i_glide_ligand_efficiency_ln>  (302) 
-0.955662

>  <r_i_glide_gscore>  (302) 
-3.76955

>  <r_i_glide_lipo>  (302) 
-0.459838

>  <r_i_glide_hbond>  (302) 
0

>  <r_i_glide_metal>  (302) 
-0

>  <r_i_glide_rewards>  (302) 
-1.62009

>  <r_i_glide_evdw>  (302) 
-6.26031

>  <r_i_glide_ecoul>  (302) 
-9.17739

>  <r_i_glide_erotb>  (302) 
0

>  <r_i_glide_esite>  (302) 
0

>  <r_i_glide_emodel>  (302) 
-18.2225

>  <r_i_glide_energy>  (302) 
-15.4377

>  <r_i_glide_einternal>  (302) 
1.51675

>  <r_i_glide_intrahb_reward>  (302) 
-0

>  <i_i_glide_confnum>  (302) 
2

>  <i_i_glide_posenum>  (302) 
37

>  <r_i_glide_eff_state_penalty>  (302) 
0

>  <ligand_id>  (302) 
91

>  <original_smiles>  (302) 
C=C1C2CC(C)C3C4CCC(C)C(O)C3(C1O)C4C2

>  <smiles>  (302) 
[H]OC1([H])C(=C([H])[H])C2([H])C([H])([H])C([H])(C([H])([H])[H])C3([H])C4([H])C([H])([H])C([H])([H])C([H])(C([H])([H])[H])C([H])(O[H])C13C4([H])C2([H])[H]

$$$$
92:0:0
     RDKit          3D

 48 52  0  0  1  0  0  0  0  0999 V2000
    7.3997   -7.5457    1.7321 C   0  0  0  0  0  0  0  0  0  0  0  0
    5.9088   -7.1336    1.6812 C   0  0  1  0  0  0  0  0  0  0  0  0
    5.1688   -8.3418    1.2494 N   0  0  0  0  0  0  0  0  0  0  0  0
    5.3907   -6.7211    3.0784 C   0  0  1  0  0  0  0  0  0  0  0  0
    5.7835   -7.6690    4.0489 O   0  0  0  0  0  0  0  0  0  0  0  0
    5.9301   -5.3534    3.5003 C   0  0  0  0  0  0  0  0  0  0  0  0
    5.5060   -4.2597    2.5039 C   0  0  0  0  0  0  0  0  0  0  0  0
    6.0083   -4.5007    1.0414 C   0  0  2  0  0  0  0  0  0  0  0  0
    7.5157   -4.0505    0.9265 C   0  0  1  0  0  0  0  0  0  0  0  0
    8.3979   -5.0271    0.4015 O   0  0  0  0  0  0  0  0  0  0  0  0
    7.7060   -2.7289    0.1215 C   0  0  1  0  0  0  0  0  0  0  0  0
    7.3204   -3.0113   -1.3447 C   0  0  0  0  0  0  0  0  0  0  0  0
    5.8039   -3.2671   -1.3429 C   0  0  2  0  0  0  0  0  0  0  0  0
    4.9668   -1.9935   -1.2316 C   0  0  0  0  0  0  0  0  0  0  0  0
    5.2866   -2.0920    0.2598 C   0  0  2  0  0  0  0  0  0  0  0  0
    6.7169   -1.6514    0.6620 C   0  0  0  0  0  0  0  0  0  0  0  0
    5.1880   -3.6246    0.0488 C   0  0  2  0  0  0  0  0  0  0  0  0
    3.8475   -4.3643   -0.0039 C   0  0  0  0  0  0  0  0  0  0  0  0
    4.1606   -5.8527    0.2306 C   0  0  0  0  0  0  0  0  0  0  0  0
    5.6378   -5.9688    0.6571 C   0  0  2  0  0  0  0  0  0  0  0  0
    8.0321   -6.8034    2.2150 H   0  0  0  0  0  0  0  0  0  0  0  0
    7.8114   -7.7534    0.7429 H   0  0  0  0  0  0  0  0  0  0  0  0
    7.5420   -8.4575    2.3062 H   0  0  0  0  0  0  0  0  0  0  0  0
    4.1858   -8.1328    1.2092 H   0  0  0  0  0  0  0  0  0  0  0  0
    5.3314   -9.0893    1.9028 H   0  0  0  0  0  0  0  0  0  0  0  0
    4.3007   -6.6535    3.0795 H   0  0  0  0  0  0  0  0  0  0  0  0
    5.2966   -8.4733    3.9503 H   0  0  0  0  0  0  0  0  0  0  0  0
    5.5402   -5.0997    4.4860 H   0  0  0  0  0  0  0  0  0  0  0  0
    7.0170   -5.3834    3.6172 H   0  0  0  0  0  0  0  0  0  0  0  0
    4.4157   -4.2049    2.5500 H   0  0  0  0  0  0  0  0  0  0  0  0
    5.8373   -3.2946    2.8733 H   0  0  0  0  0  0  0  0  0  0  0  0
    7.9048   -3.8754    1.9275 H   0  0  0  0  0  0  0  0  0  0  0  0
    8.4014   -5.7739    0.9840 H   0  0  0  0  0  0  0  0  0  0  0  0
    8.7283   -2.3808    0.1907 H   0  0  0  0  0  0  0  0  0  0  0  0
    7.5552   -2.1628   -1.9761 H   0  0  0  0  0  0  0  0  0  0  0  0
    7.8966   -3.8112   -1.7635 H   0  0  0  0  0  0  0  0  0  0  0  0
    5.4472   -3.8964   -2.1386 H   0  0  0  0  0  0  0  0  0  0  0  0
    5.4005   -1.1248   -1.7168 H   0  0  0  0  0  0  0  0  0  0  0  0
    3.9029   -2.1117   -1.4782 H   0  0  0  0  0  0  0  0  0  0  0  0
    4.4830   -1.6850    0.8631 H   0  0  0  0  0  0  0  0  0  0  0  0
    6.7977   -1.5303    1.7411 H   0  0  0  0  0  0  0  0  0  0  0  0
    6.9343   -0.6810    0.2335 H   0  0  0  0  0  0  0  0  0  0  0  0
    3.1663   -3.9914    0.7654 H   0  0  0  0  0  0  0  0  0  0  0  0
    3.3270   -4.2334   -0.9534 H   0  0  0  0  0  0  0  0  0  0  0  0
    3.4590   -6.2415    0.9677 H   0  0  0  0  0  0  0  0  0  0  0  0
    4.0198   -6.4182   -0.6883 H   0  0  0  0  0  0  0  0  0  0  0  0
    6.1821   -6.1749   -0.2602 H   0  0  0  0  0  0  0  0  0  0  0  0
    5.4953   -8.6287    0.3434 H   0  0  0  0  0  0  0  0  0  0  0  0
  2  1  1  1
  1 21  1  0
  1 22  1  0
  1 23  1  0
  2 20  1  0
  2  3  1  0
  2  4  1  0
  3 24  1  0
  3 25  1  0
  3 48  1  0
  4  5  1  0
  4  6  1  0
  4 26  1  6
  5 27  1  0
  6  7  1  0
  6 28  1  0
  6 29  1  0
  8  7  1  1
  7 30  1  0
  7 31  1  0
  8 17  1  0
  8 20  1  0
  8  9  1  0
  9 10  1  0
  9 11  1  0
  9 32  1  1
 10 33  1  0
 11 16  1  0
 11 12  1  0
 11 34  1  6
 12 13  1  0
 12 35  1  0
 12 36  1  0
 13 17  1  0
 13 14  1  0
 13 37  1  6
 14 15  1  0
 14 38  1  0
 14 39  1  0
 15 16  1  0
 15 17  1  0
 15 40  1  1
 16 41  1  0
 16 42  1  0
 17 18  1  6
 18 19  1  0
 18 43  1  0
 18 44  1  0
 19 20  1  0
 19 45  1  0
 19 46  1  0
 20 47  1  6
M  CHG  1   3   1
M  END
>  <i_m_ct_stereo_status>  (303) 
1

>  <s_m_source_file>  (303) 
/var/tmp/pbs.5076255.sched01/tmpb6g28bo8/1236hu3uqnd.sdf

>  <i_m_source_file_index>  (303) 
9

>  <i_lp_mmshare_version>  (303) 
48012

>  <i_f3d_flags>  (303) 
0

>  <s_epik_input>  (303) 
W0NIMl0xW0NIMl1bQ0BIXShbT0hdKVtDQEBdKFtDSDNdKShbTkgyXSlbQ0BIXTJbQ0gyXVtDSDJdW0NAQF0zKFtDQEBdMTI0KVtDQEBIXTVbQ0gyXVtDQEhdKFtDQEBIXTRbT0hdKVtDSDJdW0NASF0zW0NIMl01

>  <s_epik_cmdline>  (303) 
J2VwaWtfcHl0aG9uJywgJy1waHQnLCAnMi4wJywgJy1waCcsICc3LjAnLCAnLXRuJywgJzgnLCAnLW1hJywgJzIwMCcsICctaW1hZScsICc8aW5maWxlLm1hZT4nLCAnLW9tYWUnLCAnPG91dGZpbGUubWFlPic=

>  <r_epik_Ionization_Penalty>  (303) 
0.0056603

>  <r_epik_Ionization_Penalty_Charging>  (303) 
0.00565933

>  <r_epik_Ionization_Penalty_Neutral>  (303) 
9.65896e-07

>  <r_epik_State_Penalty>  (303) 
0.00414918

>  <r_epik_Charging_Adjusted_Penalty>  (303) 
0.00980851

>  <i_epik_Tot_Q>  (303) 
1

>  <i_epik_Tot_abs_Q>  (303) 
1

>  <s_lp_Force_Field>  (303) 
OPLS3e

>  <r_lp_Energy>  (303) 
64.9587

>  <b_lp_Chiralities_Consistent>  (303) 
1

>  <s_lp_Variant>  (303) 
92:0-1

>  <s_i_glide_gridfile>  (303) 
pfpi4k_grid

>  <i_i_glide_lignum>  (303) 
9

>  <i_i_glide_rotatable_bonds>  (303) 
2

>  <r_i_docking_score>  (303) 
-3.57716

>  <r_i_glide_ligand_efficiency>  (303) 
-0.178858

>  <r_i_glide_ligand_efficiency_sa>  (303) 
-0.485495

>  <r_i_glide_ligand_efficiency_ln>  (303) 
-0.895244

>  <r_i_glide_gscore>  (303) 
-3.57716

>  <r_i_glide_lipo>  (303) 
-0.796852

>  <r_i_glide_hbond>  (303) 
0

>  <r_i_glide_metal>  (303) 
-0

>  <r_i_glide_rewards>  (303) 
-1.51084

>  <r_i_glide_evdw>  (303) 
-19.9481

>  <r_i_glide_ecoul>  (303) 
-1.8137

>  <r_i_glide_erotb>  (303) 
0

>  <r_i_glide_esite>  (303) 
0

>  <r_i_glide_emodel>  (303) 
-27.1103

>  <r_i_glide_energy>  (303) 
-21.7618

>  <r_i_glide_einternal>  (303) 
0.65333

>  <r_i_glide_intrahb_reward>  (303) 
-0

>  <i_i_glide_confnum>  (303) 
1

>  <i_i_glide_posenum>  (303) 
12

>  <r_i_glide_eff_state_penalty>  (303) 
0

>  <ligand_id>  (303) 
92

>  <original_smiles>  (303) 
CC1(N)C(O)CCC23C(O)C4CC5CC(C4)C52CCC13

>  <smiles>  (303) 
[H]OC1([H])C2([H])C([H])([H])C3([H])C([H])([H])C([H])(C2([H])[H])C32C([H])([H])C([H])([H])C3([H])C12C([H])([H])C([H])([H])C([H])(O[H])C3(C([H])([H])[H])[N+]([H])([H])[H]

$$$$
92:0:1
     RDKit          3D

 48 52  0  0  1  0  0  0  0  0999 V2000
    5.7371   -4.3306    2.3961 C   0  0  0  0  0  0  0  0  0  0  0  0
    4.2426   -4.3617    2.0181 C   0  0  1  0  0  0  0  0  0  0  0  0
    3.7587   -5.6912    2.4476 N   0  0  0  0  0  0  0  0  0  0  0  0
    3.4349   -3.2814    2.7813 C   0  0  1  0  0  0  0  0  0  0  0  0
    3.7046   -3.3495    4.1628 O   0  0  0  0  0  0  0  0  0  0  0  0
    3.7173   -1.8688    2.2507 C   0  0  0  0  0  0  0  0  0  0  0  0
    3.3273   -1.7840    0.7704 C   0  0  0  0  0  0  0  0  0  0  0  0
    4.0919   -2.7842   -0.1548 C   0  0  2  0  0  0  0  0  0  0  0  0
    5.5146   -2.1770   -0.4275 C   0  0  1  0  0  0  0  0  0  0  0  0
    6.5988   -3.0510   -0.1857 O   0  0  0  0  0  0  0  0  0  0  0  0
    5.6502   -1.6974   -1.8874 C   0  0  1  0  0  0  0  0  0  0  0  0
    5.5829   -2.9142   -2.8201 C   0  0  0  0  0  0  0  0  0  0  0  0
    4.1655   -3.3992   -2.7737 C   0  0  2  0  0  0  0  0  0  0  0  0
    3.1660   -2.5640   -3.5779 C   0  0  0  0  0  0  0  0  0  0  0  0
    3.2186   -1.6348   -2.3746 C   0  0  2  0  0  0  0  0  0  0  0  0
    4.4730   -0.7540   -2.2711 C   0  0  0  0  0  0  0  0  0  0  0  0
    3.3539   -2.9351   -1.5198 C   0  0  2  0  0  0  0  0  0  0  0  0
    2.1626   -3.7968   -1.1353 C   0  0  0  0  0  0  0  0  0  0  0  0
    2.6138   -4.7012    0.0254 C   0  0  0  0  0  0  0  0  0  0  0  0
    4.0091   -4.2112    0.4767 C   0  0  2  0  0  0  0  0  0  0  0  0
    6.1692   -3.3389    2.2857 H   0  0  0  0  0  0  0  0  0  0  0  0
    6.3250   -5.0231    1.7933 H   0  0  0  0  0  0  0  0  0  0  0  0
    5.8921   -4.6178    3.4349 H   0  0  0  0  0  0  0  0  0  0  0  0
    2.7802   -5.7767    2.2307 H   0  0  0  0  0  0  0  0  0  0  0  0
    3.8941   -5.7573    3.4451 H   0  0  0  0  0  0  0  0  0  0  0  0
    2.3650   -3.4669    2.6670 H   0  0  0  0  0  0  0  0  0  0  0  0
    3.1520   -2.7233    4.6101 H   0  0  0  0  0  0  0  0  0  0  0  0
    3.1226   -1.1457    2.8080 H   0  0  0  0  0  0  0  0  0  0  0  0
    4.7585   -1.5782    2.3987 H   0  0  0  0  0  0  0  0  0  0  0  0
    2.2497   -1.9443    0.7247 H   0  0  0  0  0  0  0  0  0  0  0  0
    3.4574   -0.7578    0.4271 H   0  0  0  0  0  0  0  0  0  0  0  0
    5.6838   -1.3118    0.2184 H   0  0  0  0  0  0  0  0  0  0  0  0
    6.5560   -3.7532   -0.8190 H   0  0  0  0  0  0  0  0  0  0  0  0
    6.6029   -1.2157   -2.0083 H   0  0  0  0  0  0  0  0  0  0  0  0
    5.7835   -2.6319   -3.8374 H   0  0  0  0  0  0  0  0  0  0  0  0
    6.2930   -3.7024   -2.5803 H   0  0  0  0  0  0  0  0  0  0  0  0
    4.1333   -4.4363   -3.0585 H   0  0  0  0  0  0  0  0  0  0  0  0
    3.5478   -2.1085   -4.4889 H   0  0  0  0  0  0  0  0  0  0  0  0
    2.1864   -3.0219   -3.7374 H   0  0  0  0  0  0  0  0  0  0  0  0
    2.2756   -1.0987   -2.3206 H   0  0  0  0  0  0  0  0  0  0  0  0
    4.3478    0.0314   -1.5299 H   0  0  0  0  0  0  0  0  0  0  0  0
    4.6416   -0.2566   -3.2214 H   0  0  0  0  0  0  0  0  0  0  0  0
    1.3521   -3.1470   -0.8335 H   0  0  0  0  0  0  0  0  0  0  0  0
    1.7641   -4.3575   -1.9738 H   0  0  0  0  0  0  0  0  0  0  0  0
    1.8615   -4.6552    0.8131 H   0  0  0  0  0  0  0  0  0  0  0  0
    2.6767   -5.7441   -0.2922 H   0  0  0  0  0  0  0  0  0  0  0  0
    4.7259   -4.8420   -0.0501 H   0  0  0  0  0  0  0  0  0  0  0  0
    4.2854   -6.4092    1.9737 H   0  0  0  0  0  0  0  0  0  0  0  0
  2  1  1  6
  1 21  1  0
  1 22  1  0
  1 23  1  0
  2 20  1  0
  2  3  1  0
  2  4  1  0
  3 24  1  0
  3 25  1  0
  3 48  1  0
  4  5  1  0
  4  6  1  0
  4 26  1  1
  5 27  1  0
  6  7  1  0
  6 28  1  0
  6 29  1  0
  8  7  1  1
  7 30  1  0
  7 31  1  0
  8 17  1  0
  8 20  1  0
  8  9  1  0
  9 10  1  0
  9 11  1  0
  9 32  1  1
 10 33  1  0
 11 16  1  0
 11 12  1  0
 11 34  1  1
 12 13  1  0
 12 35  1  0
 12 36  1  0
 13 17  1  0
 13 14  1  0
 13 37  1  6
 14 15  1  0
 14 38  1  0
 14 39  1  0
 15 16  1  0
 15 17  1  0
 15 40  1  1
 16 41  1  0
 16 42  1  0
 17 18  1  1
 18 19  1  0
 18 43  1  0
 18 44  1  0
 19 20  1  0
 19 45  1  0
 19 46  1  0
 20 47  1  6
M  CHG  1   3   1
M  END
>  <i_m_ct_stereo_status>  (304) 
1

>  <s_m_source_file>  (304) 
/var/tmp/pbs.5076255.sched01/tmpb6g28bo8/1236hu3uqnd.sdf

>  <i_m_source_file_index>  (304) 
9

>  <i_lp_mmshare_version>  (304) 
48012

>  <i_f3d_flags>  (304) 
0

>  <s_epik_input>  (304) 
W0NIMl0xW0NIMl1bQ0BIXShbT0hdKVtDQEBdKFtDSDNdKShbTkgyXSlbQ0BIXTJbQ0gyXVtDSDJdW0NAQF0zKFtDQEBdMTI0KVtDQEBIXTVbQ0gyXVtDQEhdKFtDQEBIXTRbT0hdKVtDSDJdW0NASF0zW0NIMl01

>  <s_epik_cmdline>  (304) 
J2VwaWtfcHl0aG9uJywgJy1waHQnLCAnMi4wJywgJy1waCcsICc3LjAnLCAnLXRuJywgJzgnLCAnLW1hJywgJzIwMCcsICctaW1hZScsICc8aW5maWxlLm1hZT4nLCAnLW9tYWUnLCAnPG91dGZpbGUubWFlPic=

>  <r_epik_Ionization_Penalty>  (304) 
0.0056603

>  <r_epik_Ionization_Penalty_Charging>  (304) 
0.00565933

>  <r_epik_Ionization_Penalty_Neutral>  (304) 
9.65896e-07

>  <r_epik_State_Penalty>  (304) 
0.00414918

>  <r_epik_Charging_Adjusted_Penalty>  (304) 
0.00980851

>  <i_epik_Tot_Q>  (304) 
1

>  <i_epik_Tot_abs_Q>  (304) 
1

>  <s_lp_Force_Field>  (304) 
OPLS3e

>  <r_lp_Energy>  (304) 
64.9587

>  <b_lp_Chiralities_Consistent>  (304) 
1

>  <s_lp_Variant>  (304) 
92:0-1

>  <s_i_glide_gridfile>  (304) 
pfpi4k_grid

>  <i_i_glide_lignum>  (304) 
9

>  <i_i_glide_rotatable_bonds>  (304) 
2

>  <r_i_docking_score>  (304) 
-2.92199

>  <r_i_glide_ligand_efficiency>  (304) 
-0.146099

>  <r_i_glide_ligand_efficiency_sa>  (304) 
-0.396575

>  <r_i_glide_ligand_efficiency_ln>  (304) 
-0.731277

>  <r_i_glide_gscore>  (304) 
-2.92199

>  <r_i_glide_lipo>  (304) 
-0.436788

>  <r_i_glide_hbond>  (304) 
0

>  <r_i_glide_metal>  (304) 
-0

>  <r_i_glide_rewards>  (304) 
-1.51084

>  <r_i_glide_evdw>  (304) 
-14.9587

>  <r_i_glide_ecoul>  (304) 
-1.50949

>  <r_i_glide_erotb>  (304) 
0

>  <r_i_glide_esite>  (304) 
0

>  <r_i_glide_emodel>  (304) 
-20.3216

>  <r_i_glide_energy>  (304) 
-16.4681

>  <r_i_glide_einternal>  (304) 
0.39583

>  <r_i_glide_intrahb_reward>  (304) 
-0

>  <i_i_glide_confnum>  (304) 
1

>  <i_i_glide_posenum>  (304) 
13

>  <r_i_glide_eff_state_penalty>  (304) 
0

>  <ligand_id>  (304) 
92

>  <original_smiles>  (304) 
CC1(N)C(O)CCC23C(O)C4CC5CC(C4)C52CCC13

>  <smiles>  (304) 
[H]OC1([H])C2([H])C([H])([H])C3([H])C([H])([H])C([H])(C2([H])[H])C32C([H])([H])C([H])([H])C3([H])C12C([H])([H])C([H])([H])C([H])(O[H])C3(C([H])([H])[H])[N+]([H])([H])[H]

$$$$
93:0:0
     RDKit          3D

 57 62  0  0  1  0  0  0  0  0999 V2000
    5.4118   -3.0708   -2.4994 C   0  0  0  0  0  0  0  0  0  0  0  0
    4.7108   -2.6189   -1.2003 C   0  0  2  0  0  0  0  0  0  0  0  0
    5.0972   -1.1707   -0.8865 C   0  0  0  0  0  0  0  0  0  0  0  0
    4.3400   -0.6608    0.3352 C   0  0  0  0  0  0  0  0  0  0  0  0
    4.6892   -1.4851    1.5880 C   0  0  1  0  0  0  0  0  0  0  0  0
    4.0149   -0.8960    2.8650 C   0  0  2  0  0  0  0  0  0  0  0  0
    5.0520   -0.2078    3.7792 C   0  0  0  0  0  0  0  0  0  0  0  0
    4.4629    0.6926    4.8783 C   0  0  0  0  0  0  0  0  0  0  0  0
    3.9636   -0.0660    6.0839 C   0  0  1  0  0  0  0  0  0  0  0  0
    2.6162    0.2521    6.6782 C   0  0  0  0  0  0  0  0  0  0  0  0
    2.8438   -1.0779    5.9836 C   0  0  2  0  0  0  0  0  0  0  0  0
    2.8983   -2.3249    6.8487 C   0  0  0  0  0  0  0  0  0  0  0  0
    2.1837   -1.3524    4.6395 C   0  0  0  0  0  0  0  0  0  0  0  0
    3.1445   -1.9528    3.5832 C   0  0  1  0  0  0  0  0  0  0  0  0
    2.3284   -2.5299    2.5772 O   0  0  0  0  0  0  0  0  0  0  0  0
    2.9383   -3.3578    1.6204 C   0  0  2  0  0  0  0  0  0  0  0  0
    2.6995   -4.7089    1.8654 O   0  0  0  0  0  0  0  0  0  0  0  0
    3.8291   -5.4931    2.1675 C   0  0  1  0  0  0  0  0  0  0  0  0
    3.3203   -6.6765    2.9965 C   0  0  0  0  0  0  0  0  0  0  0  0
    4.5017   -5.9911    0.8698 C   0  0  0  0  0  0  0  0  0  0  0  0
    4.4948   -4.9877   -0.2949 C   0  0  0  0  0  0  0  0  0  0  0  0
    4.9780   -3.5605    0.0083 C   0  0  2  0  0  0  0  0  0  0  0  0
    4.4611   -3.0113    1.3870 C   0  0  1  0  0  0  0  0  0  0  0  0
    5.3525   -3.6400    2.3210 O   0  0  0  0  0  0  0  0  0  0  0  0
    4.7007   -4.8048    3.0356 O   0  0  0  0  0  0  0  0  0  0  0  0
    6.4919   -3.1692   -2.3748 H   0  0  0  0  0  0  0  0  0  0  0  0
    5.2365   -2.3526   -3.3005 H   0  0  0  0  0  0  0  0  0  0  0  0
    5.0266   -4.0268   -2.8555 H   0  0  0  0  0  0  0  0  0  0  0  0
    3.6378   -2.6238   -1.4043 H   0  0  0  0  0  0  0  0  0  0  0  0
    6.1722   -1.0898   -0.7187 H   0  0  0  0  0  0  0  0  0  0  0  0
    4.8597   -0.5349   -1.7412 H   0  0  0  0  0  0  0  0  0  0  0  0
    4.5986    0.3855    0.4951 H   0  0  0  0  0  0  0  0  0  0  0  0
    3.2670   -0.6946    0.1304 H   0  0  0  0  0  0  0  0  0  0  0  0
    5.7688   -1.3695    1.7130 H   0  0  0  0  0  0  0  0  0  0  0  0
    3.3288   -0.1147    2.5333 H   0  0  0  0  0  0  0  0  0  0  0  0
    5.7407   -0.9354    4.2032 H   0  0  0  0  0  0  0  0  0  0  0  0
    5.6590    0.4432    3.1529 H   0  0  0  0  0  0  0  0  0  0  0  0
    5.2290    1.3808    5.2344 H   0  0  0  0  0  0  0  0  0  0  0  0
    3.6698    1.3210    4.4743 H   0  0  0  0  0  0  0  0  0  0  0  0
    4.7484   -0.3322    6.7884 H   0  0  0  0  0  0  0  0  0  0  0  0
    2.5449    0.2607    7.7626 H   0  0  0  0  0  0  0  0  0  0  0  0
    2.0028    0.9954    6.1750 H   0  0  0  0  0  0  0  0  0  0  0  0
    1.8902   -2.6931    7.0549 H   0  0  0  0  0  0  0  0  0  0  0  0
    3.3793   -2.0964    7.8029 H   0  0  0  0  0  0  0  0  0  0  0  0
    3.4733   -3.1107    6.3547 H   0  0  0  0  0  0  0  0  0  0  0  0
    1.3441   -2.0288    4.8111 H   0  0  0  0  0  0  0  0  0  0  0  0
    1.7467   -0.4263    4.2624 H   0  0  0  0  0  0  0  0  0  0  0  0
    3.7487   -2.7272    4.0492 H   0  0  0  0  0  0  0  0  0  0  0  0
    2.3968   -3.1360    0.6993 H   0  0  0  0  0  0  0  0  0  0  0  0
    2.8856   -6.3167    3.9313 H   0  0  0  0  0  0  0  0  0  0  0  0
    4.1300   -7.3685    3.2479 H   0  0  0  0  0  0  0  0  0  0  0  0
    2.5510   -7.2413    2.4657 H   0  0  0  0  0  0  0  0  0  0  0  0
    5.5086   -6.3590    1.0686 H   0  0  0  0  0  0  0  0  0  0  0  0
    3.9528   -6.8626    0.5051 H   0  0  0  0  0  0  0  0  0  0  0  0
    5.0863   -5.4160   -1.1010 H   0  0  0  0  0  0  0  0  0  0  0  0
    3.4792   -4.9352   -0.6944 H   0  0  0  0  0  0  0  0  0  0  0  0
    6.0628   -3.6150    0.1109 H   0  0  0  0  0  0  0  0  0  0  0  0
  1  2  1  0
  1 26  1  0
  1 27  1  0
  1 28  1  0
  2 22  1  0
  2  3  1  0
  2 29  1  6
  3  4  1  0
  3 30  1  0
  3 31  1  0
  4  5  1  0
  4 32  1  0
  4 33  1  0
  5 23  1  0
  5  6  1  0
  5 34  1  1
  6 14  1  0
  6  7  1  0
  6 35  1  6
  7  8  1  0
  7 36  1  0
  7 37  1  0
  8  9  1  0
  8 38  1  0
  8 39  1  0
  9 11  1  0
  9 10  1  0
  9 40  1  1
 10 11  1  0
 10 41  1  0
 10 42  1  0
 11 12  1  1
 11 13  1  0
 12 43  1  0
 12 44  1  0
 12 45  1  0
 13 14  1  0
 13 46  1  0
 13 47  1  0
 14 15  1  0
 14 48  1  1
 15 16  1  0
 16 23  1  0
 16 17  1  0
 16 49  1  6
 17 18  1  0
 18 25  1  0
 18 19  1  1
 18 20  1  0
 19 50  1  0
 19 51  1  0
 19 52  1  0
 20 21  1  0
 20 53  1  0
 20 54  1  0
 21 22  1  0
 21 55  1  0
 21 56  1  0
 22 23  1  0
 22 57  1  1
 23 24  1  1
 24 25  1  0
M  END
>  <i_m_ct_stereo_status>  (305) 
1

>  <s_m_source_file>  (305) 
/var/tmp/pbs.5076255.sched01/tmpb6g28bo8/1236hu3uqnd.sdf

>  <i_m_source_file_index>  (305) 
10

>  <i_lp_mmshare_version>  (305) 
48012

>  <i_f3d_flags>  (305) 
0

>  <s_epik_input>  (305) 
W0NIMl0xW0NIMl1bQ0BASF0oW0NIM10pW0NAQEhdMltDSDJdW0NIMl1bQ0BAXShbQ0gzXSkoT08zKU9bQ0BIXTRPW0NAQEhdKFtDQEBIXTVbQ0BIXTFbQ0BAXTIzNClbQ0gyXVtDQEBdNihbQ0gzXSlbQ0BIXShbQ0gyXTYpW0NIMl1bQ0gyXTU=

>  <s_epik_cmdline>  (305) 
J2VwaWtfcHl0aG9uJywgJy1waHQnLCAnMi4wJywgJy1waCcsICc3LjAnLCAnLXRuJywgJzgnLCAnLW1hJywgJzIwMCcsICctaW1hZScsICc8aW5maWxlLm1hZT4nLCAnLW9tYWUnLCAnPG91dGZpbGUubWFlPic=

>  <r_lp_tautomer_probability>  (305) 
1

>  <r_epik_Ionization_Penalty>  (305) 
4.69663e-14

>  <r_epik_Ionization_Penalty_Charging>  (305) 
0

>  <r_epik_Ionization_Penalty_Neutral>  (305) 
4.69663e-14

>  <r_epik_State_Penalty>  (305) 
-0

>  <r_epik_Charging_Adjusted_Penalty>  (305) 
0

>  <i_epik_Tot_Q>  (305) 
0

>  <i_epik_Tot_abs_Q>  (305) 
0

>  <s_epik_Chemistry_Notes>  (305) 
This compound contains an acetal/aminal-like group ( X-CH(R)-Y where X, Y are N, S, or O) that may be acid/base labile, releasing an aldehyde.

>  <s_lp_Force_Field>  (305) 
OPLS3e

>  <r_lp_Energy>  (305) 
47.3991

>  <b_lp_Chiralities_Consistent>  (305) 
1

>  <s_lp_Variant>  (305) 
93:0-1

>  <s_i_glide_gridfile>  (305) 
pfpi4k_grid

>  <i_i_glide_lignum>  (305) 
10

>  <i_i_glide_rotatable_bonds>  (305) 
0

>  <r_i_docking_score>  (305) 
-2.78965

>  <r_i_glide_ligand_efficiency>  (305) 
-0.111586

>  <r_i_glide_ligand_efficiency_sa>  (305) 
-0.326279

>  <r_i_glide_ligand_efficiency_ln>  (305) 
-0.66123

>  <r_i_glide_gscore>  (305) 
-2.78965

>  <r_i_glide_lipo>  (305) 
-0.618548

>  <r_i_glide_hbond>  (305) 
0

>  <r_i_glide_metal>  (305) 
-0

>  <r_i_glide_rewards>  (305) 
-1.04034

>  <r_i_glide_evdw>  (305) 
-22.9665

>  <r_i_glide_ecoul>  (305) 
0.13315

>  <r_i_glide_erotb>  (305) 
0

>  <r_i_glide_esite>  (305) 
-0.00241143

>  <r_i_glide_emodel>  (305) 
-27.1454

>  <r_i_glide_energy>  (305) 
-22.8333

>  <r_i_glide_einternal>  (305) 
0

>  <r_i_glide_intrahb_reward>  (305) 
-0

>  <i_i_glide_confnum>  (305) 
1

>  <i_i_glide_posenum>  (305) 
1

>  <r_i_glide_eff_state_penalty>  (305) 
0

>  <ligand_id>  (305) 
93

>  <original_smiles>  (305) 
CC1CCC2C3CCC4CC4(C)CC3OC3OC4(C)CCC1C32OO4

>  <smiles>  (305) 
[H]C([H])([H])C12OOC34C([H])(OC5([H])C([H])([H])C6(C([H])([H])[H])C([H])([H])C6([H])C([H])([H])C([H])([H])C5([H])C3([H])C([H])([H])C([H])([H])C([H])(C([H])([H])[H])C4([H])C([H])([H])C1([H])[H])O2

$$$$
93:0:1
     RDKit          3D

 57 62  0  0  1  0  0  0  0  0999 V2000
    7.0115   -9.7064    4.5023 C   0  0  0  0  0  0  0  0  0  0  0  0
    6.7175   -8.7257    3.3489 C   0  0  2  0  0  0  0  0  0  0  0  0
    7.9912   -7.9441    3.0106 C   0  0  0  0  0  0  0  0  0  0  0  0
    7.7602   -7.0482    1.7966 C   0  0  0  0  0  0  0  0  0  0  0  0
    6.6704   -5.9988    2.0839 C   0  0  1  0  0  0  0  0  0  0  0  0
    6.5070   -4.9982    0.9011 C   0  0  2  0  0  0  0  0  0  0  0  0
    7.0901   -3.6187    1.2479 C   0  0  0  0  0  0  0  0  0  0  0  0
    7.3040   -2.6498    0.0722 C   0  0  0  0  0  0  0  0  0  0  0  0
    6.0403   -1.9516   -0.3729 C   0  0  1  0  0  0  0  0  0  0  0  0
    5.6855   -1.8933   -1.8354 C   0  0  0  0  0  0  0  0  0  0  0  0
    4.8528   -2.7275   -0.8890 C   0  0  2  0  0  0  0  0  0  0  0  0
    3.4497   -2.2407   -0.5714 C   0  0  0  0  0  0  0  0  0  0  0  0
    4.9117   -4.2417   -0.9772 C   0  0  0  0  0  0  0  0  0  0  0  0
    5.0555   -4.9519    0.3876 C   0  0  1  0  0  0  0  0  0  0  0  0
    4.6785   -6.3053    0.1940 O   0  0  0  0  0  0  0  0  0  0  0  0
    4.4828   -7.1083    1.3306 C   0  0  2  0  0  0  0  0  0  0  0  0
    3.1300   -7.2915    1.6126 O   0  0  0  0  0  0  0  0  0  0  0  0
    2.6755   -6.7765    2.8401 C   0  0  1  0  0  0  0  0  0  0  0  0
    1.1758   -6.5249    2.6568 C   0  0  0  0  0  0  0  0  0  0  0  0
    2.9227   -7.7847    3.9841 C   0  0  0  0  0  0  0  0  0  0  0  0
    4.2309   -8.5850    3.8846 C   0  0  0  0  0  0  0  0  0  0  0  0
    5.5174   -7.7787    3.6300 C   0  0  2  0  0  0  0  0  0  0  0  0
    5.3341   -6.6308    2.5722 C   0  0  1  0  0  0  0  0  0  0  0  0
    4.7054   -5.5951    3.3462 O   0  0  0  0  0  0  0  0  0  0  0  0
    3.2201   -5.4985    3.0770 O   0  0  0  0  0  0  0  0  0  0  0  0
    7.2019   -9.1863    5.4430 H   0  0  0  0  0  0  0  0  0  0  0  0
    7.8907  -10.3119    4.2781 H   0  0  0  0  0  0  0  0  0  0  0  0
    6.1900  -10.4054    4.6629 H   0  0  0  0  0  0  0  0  0  0  0  0
    6.4704   -9.3323    2.4755 H   0  0  0  0  0  0  0  0  0  0  0  0
    8.3211   -7.3478    3.8641 H   0  0  0  0  0  0  0  0  0  0  0  0
    8.8007   -8.6434    2.7956 H   0  0  0  0  0  0  0  0  0  0  0  0
    8.6963   -6.5521    1.5452 H   0  0  0  0  0  0  0  0  0  0  0  0
    7.4915   -7.6658    0.9374 H   0  0  0  0  0  0  0  0  0  0  0  0
    7.0487   -5.4334    2.9382 H   0  0  0  0  0  0  0  0  0  0  0  0
    7.1130   -5.3821    0.0788 H   0  0  0  0  0  0  0  0  0  0  0  0
    6.5084   -3.1406    2.0352 H   0  0  0  0  0  0  0  0  0  0  0  0
    8.0785   -3.8031    1.6682 H   0  0  0  0  0  0  0  0  0  0  0  0
    8.0097   -1.8717    0.3652 H   0  0  0  0  0  0  0  0  0  0  0  0
    7.7661   -3.1649   -0.7690 H   0  0  0  0  0  0  0  0  0  0  0  0
    5.7823   -1.0794    0.2248 H   0  0  0  0  0  0  0  0  0  0  0  0
    5.2674   -0.9618   -2.2085 H   0  0  0  0  0  0  0  0  0  0  0  0
    6.3314   -2.4174   -2.5358 H   0  0  0  0  0  0  0  0  0  0  0  0
    2.7507   -2.5469   -1.3526 H   0  0  0  0  0  0  0  0  0  0  0  0
    3.4337   -1.1498   -0.5172 H   0  0  0  0  0  0  0  0  0  0  0  0
    3.1098   -2.6364    0.3867 H   0  0  0  0  0  0  0  0  0  0  0  0
    4.0038   -4.5767   -1.4750 H   0  0  0  0  0  0  0  0  0  0  0  0
    5.7312   -4.5217   -1.6362 H   0  0  0  0  0  0  0  0  0  0  0  0
    4.3853   -4.4843    1.1059 H   0  0  0  0  0  0  0  0  0  0  0  0
    4.8418   -8.0925    1.0261 H   0  0  0  0  0  0  0  0  0  0  0  0
    1.0240   -5.7845    1.8706 H   0  0  0  0  0  0  0  0  0  0  0  0
    0.7191   -6.1458    3.5756 H   0  0  0  0  0  0  0  0  0  0  0  0
    0.6497   -7.4367    2.3675 H   0  0  0  0  0  0  0  0  0  0  0  0
    2.8328   -7.2961    4.9551 H   0  0  0  0  0  0  0  0  0  0  0  0
    2.1236   -8.5292    3.9717 H   0  0  0  0  0  0  0  0  0  0  0  0
    4.3353   -9.1543    4.8068 H   0  0  0  0  0  0  0  0  0  0  0  0
    4.1171   -9.3345    3.0982 H   0  0  0  0  0  0  0  0  0  0  0  0
    5.7562   -7.2694    4.5656 H   0  0  0  0  0  0  0  0  0  0  0  0
  1  2  1  0
  1 26  1  0
  1 27  1  0
  1 28  1  0
  2 22  1  0
  2  3  1  0
  2 29  1  6
  3  4  1  0
  3 30  1  0
  3 31  1  0
  4  5  1  0
  4 32  1  0
  4 33  1  0
  5 23  1  0
  5  6  1  0
  5 34  1  1
  6 14  1  0
  6  7  1  0
  6 35  1  6
  7  8  1  0
  7 36  1  0
  7 37  1  0
  8  9  1  0
  8 38  1  0
  8 39  1  0
  9 11  1  0
  9 10  1  0
  9 40  1  1
 10 11  1  0
 10 41  1  0
 10 42  1  0
 11 12  1  1
 11 13  1  0
 12 43  1  0
 12 44  1  0
 12 45  1  0
 13 14  1  0
 13 46  1  0
 13 47  1  0
 14 15  1  0
 14 48  1  1
 15 16  1  0
 16 23  1  0
 16 17  1  0
 16 49  1  6
 17 18  1  0
 18 25  1  0
 18 19  1  6
 18 20  1  0
 19 50  1  0
 19 51  1  0
 19 52  1  0
 20 21  1  0
 20 53  1  0
 20 54  1  0
 21 22  1  0
 21 55  1  0
 21 56  1  0
 22 23  1  0
 22 57  1  1
 23 24  1  1
 24 25  1  0
M  END
>  <i_m_ct_stereo_status>  (306) 
1

>  <s_m_source_file>  (306) 
/var/tmp/pbs.5076255.sched01/tmpb6g28bo8/1236hu3uqnd.sdf

>  <i_m_source_file_index>  (306) 
10

>  <i_lp_mmshare_version>  (306) 
48012

>  <i_f3d_flags>  (306) 
0

>  <s_epik_input>  (306) 
W0NIMl0xW0NIMl1bQ0BASF0oW0NIM10pW0NAQEhdMltDSDJdW0NIMl1bQ0BAXShbQ0gzXSkoT08zKU9bQ0BIXTRPW0NAQEhdKFtDQEBIXTVbQ0BIXTFbQ0BAXTIzNClbQ0gyXVtDQEBdNihbQ0gzXSlbQ0BIXShbQ0gyXTYpW0NIMl1bQ0gyXTU=

>  <s_epik_cmdline>  (306) 
J2VwaWtfcHl0aG9uJywgJy1waHQnLCAnMi4wJywgJy1waCcsICc3LjAnLCAnLXRuJywgJzgnLCAnLW1hJywgJzIwMCcsICctaW1hZScsICc8aW5maWxlLm1hZT4nLCAnLW9tYWUnLCAnPG91dGZpbGUubWFlPic=

>  <r_lp_tautomer_probability>  (306) 
1

>  <r_epik_Ionization_Penalty>  (306) 
4.69663e-14

>  <r_epik_Ionization_Penalty_Charging>  (306) 
0

>  <r_epik_Ionization_Penalty_Neutral>  (306) 
4.69663e-14

>  <r_epik_State_Penalty>  (306) 
-0

>  <r_epik_Charging_Adjusted_Penalty>  (306) 
0

>  <i_epik_Tot_Q>  (306) 
0

>  <i_epik_Tot_abs_Q>  (306) 
0

>  <s_epik_Chemistry_Notes>  (306) 
This compound contains an acetal/aminal-like group ( X-CH(R)-Y where X, Y are N, S, or O) that may be acid/base labile, releasing an aldehyde.

>  <s_lp_Force_Field>  (306) 
OPLS3e

>  <r_lp_Energy>  (306) 
47.3991

>  <b_lp_Chiralities_Consistent>  (306) 
1

>  <s_lp_Variant>  (306) 
93:0-1

>  <s_i_glide_gridfile>  (306) 
pfpi4k_grid

>  <i_i_glide_lignum>  (306) 
10

>  <i_i_glide_rotatable_bonds>  (306) 
0

>  <r_i_docking_score>  (306) 
-2.69913

>  <r_i_glide_ligand_efficiency>  (306) 
-0.107965

>  <r_i_glide_ligand_efficiency_sa>  (306) 
-0.315692

>  <r_i_glide_ligand_efficiency_ln>  (306) 
-0.639774

>  <r_i_glide_gscore>  (306) 
-2.69913

>  <r_i_glide_lipo>  (306) 
-0.400978

>  <r_i_glide_hbond>  (306) 
0

>  <r_i_glide_metal>  (306) 
-0

>  <r_i_glide_rewards>  (306) 
-1.15261

>  <r_i_glide_evdw>  (306) 
-22.8143

>  <r_i_glide_ecoul>  (306) 
-0.0110908

>  <r_i_glide_erotb>  (306) 
0

>  <r_i_glide_esite>  (306) 
-0.00316088

>  <r_i_glide_emodel>  (306) 
-26.9561

>  <r_i_glide_energy>  (306) 
-22.8254

>  <r_i_glide_einternal>  (306) 
0

>  <r_i_glide_intrahb_reward>  (306) 
-0

>  <i_i_glide_confnum>  (306) 
1

>  <i_i_glide_posenum>  (306) 
23

>  <r_i_glide_eff_state_penalty>  (306) 
0

>  <ligand_id>  (306) 
93

>  <original_smiles>  (306) 
CC1CCC2C3CCC4CC4(C)CC3OC3OC4(C)CCC1C32OO4

>  <smiles>  (306) 
[H]C([H])([H])C12OOC34C([H])(OC5([H])C([H])([H])C6(C([H])([H])[H])C([H])([H])C6([H])C([H])([H])C([H])([H])C5([H])C3([H])C([H])([H])C([H])([H])C([H])(C([H])([H])[H])C4([H])C([H])([H])C1([H])[H])O2

$$$$
93:0:2
     RDKit          3D

 57 62  0  0  1  0  0  0  0  0999 V2000
    3.8457   -1.8911    7.1001 C   0  0  0  0  0  0  0  0  0  0  0  0
    3.7609   -2.2918    5.6124 C   0  0  2  0  0  0  0  0  0  0  0  0
    4.9999   -3.1105    5.2365 C   0  0  0  0  0  0  0  0  0  0  0  0
    4.9012   -3.6063    3.7961 C   0  0  0  0  0  0  0  0  0  0  0  0
    4.8353   -2.4301    2.8040 C   0  0  1  0  0  0  0  0  0  0  0  0
    4.8549   -2.9238    1.3234 C   0  0  2  0  0  0  0  0  0  0  0  0
    6.2142   -2.6252    0.6529 C   0  0  0  0  0  0  0  0  0  0  0  0
    6.4635   -3.3593   -0.6750 C   0  0  0  0  0  0  0  0  0  0  0  0
    5.7779   -2.7281   -1.8621 C   0  0  1  0  0  0  0  0  0  0  0  0
    5.0198   -3.5838   -2.8448 C   0  0  0  0  0  0  0  0  0  0  0  0
    4.2730   -2.6162   -1.9515 C   0  0  2  0  0  0  0  0  0  0  0  0
    3.6667   -1.3916   -2.6047 C   0  0  0  0  0  0  0  0  0  0  0  0
    3.4036   -3.1375   -0.8153 C   0  0  0  0  0  0  0  0  0  0  0  0
    3.6270   -2.4088    0.5351 C   0  0  1  0  0  0  0  0  0  0  0  0
    2.5062   -2.7070    1.3531 O   0  0  0  0  0  0  0  0  0  0  0  0
    2.3279   -1.9672    2.5340 C   0  0  2  0  0  0  0  0  0  0  0  0
    1.3427   -0.9876    2.4139 O   0  0  0  0  0  0  0  0  0  0  0  0
    1.7782    0.3445    2.5317 C   0  0  1  0  0  0  0  0  0  0  0  0
    0.7667    1.2049    1.7706 C   0  0  0  0  0  0  0  0  0  0  0  0
    1.8096    0.7632    4.0190 C   0  0  0  0  0  0  0  0  0  0  0  0
    2.2526   -0.3345    5.0000 C   0  0  0  0  0  0  0  0  0  0  0  0
    3.5520   -1.0838    4.6575 C   0  0  2  0  0  0  0  0  0  0  0  0
    3.6872   -1.4300    3.1301 C   0  0  1  0  0  0  0  0  0  0  0  0
    4.1189   -0.1845    2.5673 O   0  0  0  0  0  0  0  0  0  0  0  0
    2.9975    0.5380    1.8530 O   0  0  0  0  0  0  0  0  0  0  0  0
    4.6399   -1.1652    7.2842 H   0  0  0  0  0  0  0  0  0  0  0  0
    4.0478   -2.7631    7.7226 H   0  0  0  0  0  0  0  0  0  0  0  0
    2.9089   -1.4659    7.4613 H   0  0  0  0  0  0  0  0  0  0  0  0
    2.8993   -2.9552    5.5130 H   0  0  0  0  0  0  0  0  0  0  0  0
    5.9052   -2.5175    5.3735 H   0  0  0  0  0  0  0  0  0  0  0  0
    5.0875   -3.9690    5.9033 H   0  0  0  0  0  0  0  0  0  0  0  0
    5.7698   -4.2261    3.5776 H   0  0  0  0  0  0  0  0  0  0  0  0
    4.0225   -4.2482    3.6986 H   0  0  0  0  0  0  0  0  0  0  0  0
    5.7595   -1.8689    2.9671 H   0  0  0  0  0  0  0  0  0  0  0  0
    4.7581   -4.0105    1.3478 H   0  0  0  0  0  0  0  0  0  0  0  0
    6.3600   -1.5535    0.5364 H   0  0  0  0  0  0  0  0  0  0  0  0
    6.9938   -2.9616    1.3350 H   0  0  0  0  0  0  0  0  0  0  0  0
    7.5314   -3.3705   -0.8945 H   0  0  0  0  0  0  0  0  0  0  0  0
    6.1726   -4.4057   -0.5885 H   0  0  0  0  0  0  0  0  0  0  0  0
    6.3116   -1.8773   -2.2730 H   0  0  0  0  0  0  0  0  0  0  0  0
    5.1131   -3.3390   -3.8972 H   0  0  0  0  0  0  0  0  0  0  0  0
    4.9355   -4.6467   -2.6312 H   0  0  0  0  0  0  0  0  0  0  0  0
    2.6818   -1.6208   -3.0193 H   0  0  0  0  0  0  0  0  0  0  0  0
    4.3092   -1.0299   -3.4103 H   0  0  0  0  0  0  0  0  0  0  0  0
    3.5602   -0.5997   -1.8663 H   0  0  0  0  0  0  0  0  0  0  0  0
    2.3598   -3.0394   -1.1213 H   0  0  0  0  0  0  0  0  0  0  0  0
    3.5779   -4.2080   -0.6972 H   0  0  0  0  0  0  0  0  0  0  0  0
    3.6730   -1.3364    0.3597 H   0  0  0  0  0  0  0  0  0  0  0  0
    1.9114   -2.6904    3.2350 H   0  0  0  0  0  0  0  0  0  0  0  0
    0.7806    0.9432    0.7153 H   0  0  0  0  0  0  0  0  0  0  0  0
    1.0041    2.2690    1.8406 H   0  0  0  0  0  0  0  0  0  0  0  0
   -0.2521    1.0604    2.1307 H   0  0  0  0  0  0  0  0  0  0  0  0
    2.3929    1.6755    4.1533 H   0  0  0  0  0  0  0  0  0  0  0  0
    0.7963    1.0337    4.3234 H   0  0  0  0  0  0  0  0  0  0  0  0
    2.3464    0.1244    5.9833 H   0  0  0  0  0  0  0  0  0  0  0  0
    1.4390   -1.0569    5.0994 H   0  0  0  0  0  0  0  0  0  0  0  0
    4.3726   -0.3935    4.8645 H   0  0  0  0  0  0  0  0  0  0  0  0
  1  2  1  0
  1 26  1  0
  1 27  1  0
  1 28  1  0
  2 22  1  0
  2  3  1  0
  2 29  1  1
  3  4  1  0
  3 30  1  0
  3 31  1  0
  4  5  1  0
  4 32  1  0
  4 33  1  0
  5 23  1  0
  5  6  1  0
  5 34  1  6
  6 14  1  0
  6  7  1  0
  6 35  1  1
  7  8  1  0
  7 36  1  0
  7 37  1  0
  8  9  1  0
  8 38  1  0
  8 39  1  0
  9 11  1  0
  9 10  1  0
  9 40  1  6
 10 11  1  0
 10 41  1  0
 10 42  1  0
 11 12  1  6
 11 13  1  0
 12 43  1  0
 12 44  1  0
 12 45  1  0
 13 14  1  0
 13 46  1  0
 13 47  1  0
 14 15  1  0
 14 48  1  6
 15 16  1  0
 16 23  1  0
 16 17  1  0
 16 49  1  1
 17 18  1  0
 18 25  1  0
 18 19  1  6
 18 20  1  0
 19 50  1  0
 19 51  1  0
 19 52  1  0
 20 21  1  0
 20 53  1  0
 20 54  1  0
 21 22  1  0
 21 55  1  0
 21 56  1  0
 22 23  1  0
 22 57  1  1
 23 24  1  6
 24 25  1  0
M  END
>  <i_m_ct_stereo_status>  (307) 
1

>  <s_m_source_file>  (307) 
/var/tmp/pbs.5076255.sched01/tmpb6g28bo8/1236hu3uqnd.sdf

>  <i_m_source_file_index>  (307) 
10

>  <i_lp_mmshare_version>  (307) 
48012

>  <i_f3d_flags>  (307) 
0

>  <s_epik_input>  (307) 
W0NIMl0xW0NIMl1bQ0BASF0oW0NIM10pW0NAQEhdMltDSDJdW0NIMl1bQ0BAXShbQ0gzXSkoT08zKU9bQ0BIXTRPW0NAQEhdKFtDQEBIXTVbQ0BIXTFbQ0BAXTIzNClbQ0gyXVtDQEBdNihbQ0gzXSlbQ0BIXShbQ0gyXTYpW0NIMl1bQ0gyXTU=

>  <s_epik_cmdline>  (307) 
J2VwaWtfcHl0aG9uJywgJy1waHQnLCAnMi4wJywgJy1waCcsICc3LjAnLCAnLXRuJywgJzgnLCAnLW1hJywgJzIwMCcsICctaW1hZScsICc8aW5maWxlLm1hZT4nLCAnLW9tYWUnLCAnPG91dGZpbGUubWFlPic=

>  <r_lp_tautomer_probability>  (307) 
1

>  <r_epik_Ionization_Penalty>  (307) 
4.69663e-14

>  <r_epik_Ionization_Penalty_Charging>  (307) 
0

>  <r_epik_Ionization_Penalty_Neutral>  (307) 
4.69663e-14

>  <r_epik_State_Penalty>  (307) 
-0

>  <r_epik_Charging_Adjusted_Penalty>  (307) 
0

>  <i_epik_Tot_Q>  (307) 
0

>  <i_epik_Tot_abs_Q>  (307) 
0

>  <s_epik_Chemistry_Notes>  (307) 
This compound contains an acetal/aminal-like group ( X-CH(R)-Y where X, Y are N, S, or O) that may be acid/base labile, releasing an aldehyde.

>  <s_lp_Force_Field>  (307) 
OPLS3e

>  <r_lp_Energy>  (307) 
47.3991

>  <b_lp_Chiralities_Consistent>  (307) 
1

>  <s_lp_Variant>  (307) 
93:0-1

>  <s_i_glide_gridfile>  (307) 
pfpi4k_grid

>  <i_i_glide_lignum>  (307) 
10

>  <i_i_glide_rotatable_bonds>  (307) 
0

>  <r_i_docking_score>  (307) 
-2.66627

>  <r_i_glide_ligand_efficiency>  (307) 
-0.106651

>  <r_i_glide_ligand_efficiency_sa>  (307) 
-0.311848

>  <r_i_glide_ligand_efficiency_ln>  (307) 
-0.631985

>  <r_i_glide_gscore>  (307) 
-2.66627

>  <r_i_glide_lipo>  (307) 
-0.466001

>  <r_i_glide_hbond>  (307) 
0

>  <r_i_glide_metal>  (307) 
-0

>  <r_i_glide_rewards>  (307) 
-1.03312

>  <r_i_glide_evdw>  (307) 
-27.1913

>  <r_i_glide_ecoul>  (307) 
1.50816

>  <r_i_glide_erotb>  (307) 
0

>  <r_i_glide_esite>  (307) 
-0.0338084

>  <r_i_glide_emodel>  (307) 
-29.7723

>  <r_i_glide_energy>  (307) 
-25.6831

>  <r_i_glide_einternal>  (307) 
0

>  <r_i_glide_intrahb_reward>  (307) 
-0

>  <i_i_glide_confnum>  (307) 
1

>  <i_i_glide_posenum>  (307) 
12

>  <r_i_glide_eff_state_penalty>  (307) 
0

>  <ligand_id>  (307) 
93

>  <original_smiles>  (307) 
CC1CCC2C3CCC4CC4(C)CC3OC3OC4(C)CCC1C32OO4

>  <smiles>  (307) 
[H]C([H])([H])C12OOC34C([H])(OC5([H])C([H])([H])C6(C([H])([H])[H])C([H])([H])C6([H])C([H])([H])C([H])([H])C5([H])C3([H])C([H])([H])C([H])([H])C([H])(C([H])([H])[H])C4([H])C([H])([H])C1([H])[H])O2

$$$$
94:0:0
     RDKit          3D

 73 79  0  0  1  0  0  0  0  0999 V2000
    0.5441    1.3142    1.7331 C   0  0  0  0  0  0  0  0  0  0  0  0
    0.4788    0.5079    3.0140 C   0  0  0  0  0  0  0  0  0  0  0  0
   -0.3723    0.7032    4.0559 C   0  0  0  0  0  0  0  0  0  0  0  0
   -1.3469    1.8847    4.1151 C   0  0  0  0  0  0  0  0  0  0  0  0
   -1.1333    2.6593    5.4128 C   0  0  0  0  0  0  0  0  0  0  0  0
   -1.0377    3.8868    5.4295 O   0  0  0  0  0  0  0  0  0  0  0  0
   -1.1230    1.8416    6.7002 C   0  0  0  0  0  0  0  0  0  0  0  0
   -0.2079    0.6017    6.5844 C   0  0  0  0  0  0  0  0  0  0  0  0
   -0.4034   -0.2318    5.2749 C   0  0  1  0  0  0  0  0  0  0  0  0
   -1.7952   -0.9026    5.3418 C   0  0  0  0  0  0  0  0  0  0  0  0
    0.6478   -1.3776    5.0821 C   0  0  2  0  0  0  0  0  0  0  0  0
    0.9600   -2.1858    6.3527 C   0  0  0  0  0  0  0  0  0  0  0  0
    1.8520   -3.4094    6.0598 C   0  0  0  0  0  0  0  0  0  0  0  0
    2.5005   -3.5767    4.6437 C   0  0  1  0  0  0  0  0  0  0  0  0
    3.7995   -4.3998    4.8837 C   0  0  0  0  0  0  0  0  0  0  0  0
    1.5711   -4.4257    3.7248 C   0  0  0  0  0  0  0  0  0  0  0  0
    2.2091   -4.7864    2.3814 C   0  0  0  0  0  0  0  0  0  0  0  0
    2.8120   -3.5824    1.6830 C   0  0  0  0  0  0  0  0  0  0  0  0
    3.0239   -3.7552    0.3883 N   0  0  0  0  0  0  0  0  0  0  0  0
    3.6210   -2.6707   -0.1805 N   0  0  0  0  0  0  0  0  0  0  0  0
    3.9410   -2.4719   -1.4764 C   0  0  0  0  0  0  0  0  0  0  0  0
    4.5533   -1.2875   -1.6135 N   0  0  0  0  0  0  0  0  0  0  0  0
    4.6174   -0.6900   -0.3625 N   0  0  0  0  0  0  0  0  0  0  0  0
    4.0334   -1.5162    0.5066 C   0  0  0  0  0  0  0  0  0  0  0  0
    3.8245   -1.4051    1.8275 N   0  0  0  0  0  0  0  0  0  0  0  0
    3.1676   -2.3966    2.4190 C   0  0  0  0  0  0  0  0  0  0  0  0
    2.8802   -2.2247    3.9321 C   0  0  1  0  0  0  0  0  0  0  0  0
    1.9300   -0.9832    4.2662 C   0  0  2  0  0  0  0  0  0  0  0  0
    2.7999    0.1778    4.8689 C   0  0  0  0  0  0  0  0  0  0  0  0
    3.6298   -0.1765    6.1151 C   0  0  0  0  0  0  0  0  0  0  0  0
    4.9549   -0.0574    6.2385 C   0  0  0  0  0  0  0  0  0  0  0  0
    5.7121   -0.5017    7.4591 C   0  0  0  0  0  0  0  0  0  0  0  0
    7.1838   -0.3523    7.0846 C   0  0  0  0  0  0  0  0  0  0  0  0
    7.2121    0.6874    5.9531 C   0  0  0  0  0  0  0  0  0  0  0  0
    5.8773    0.5324    5.2151 C   0  0  0  0  0  0  0  0  0  0  0  0
    1.4368   -0.4814    3.0090 O   0  0  0  0  0  0  0  0  0  0  0  0
   -0.2978    1.9835    1.5728 H   0  0  0  0  0  0  0  0  0  0  0  0
    0.5806    0.6386    0.8806 H   0  0  0  0  0  0  0  0  0  0  0  0
    1.4573    1.9043    1.7117 H   0  0  0  0  0  0  0  0  0  0  0  0
   -1.2366    2.5792    3.2829 H   0  0  0  0  0  0  0  0  0  0  0  0
   -2.3744    1.5262    4.0964 H   0  0  0  0  0  0  0  0  0  0  0  0
   -0.8132    2.4725    7.5341 H   0  0  0  0  0  0  0  0  0  0  0  0
   -2.1502    1.5512    6.9114 H   0  0  0  0  0  0  0  0  0  0  0  0
    0.8158    0.9526    6.6860 H   0  0  0  0  0  0  0  0  0  0  0  0
   -0.3785   -0.0273    7.4580 H   0  0  0  0  0  0  0  0  0  0  0  0
   -1.8447   -1.6463    6.1302 H   0  0  0  0  0  0  0  0  0  0  0  0
   -2.0249   -1.4175    4.4129 H   0  0  0  0  0  0  0  0  0  0  0  0
   -2.5973   -0.1904    5.5125 H   0  0  0  0  0  0  0  0  0  0  0  0
    0.1369   -2.0720    4.4224 H   0  0  0  0  0  0  0  0  0  0  0  0
    1.4729   -1.5542    7.0795 H   0  0  0  0  0  0  0  0  0  0  0  0
    0.0465   -2.4798    6.8828 H   0  0  0  0  0  0  0  0  0  0  0  0
    2.6286   -3.4494    6.8285 H   0  0  0  0  0  0  0  0  0  0  0  0
    1.2366   -4.2794    6.2517 H   0  0  0  0  0  0  0  0  0  0  0  0
    4.4075   -4.5109    3.9843 H   0  0  0  0  0  0  0  0  0  0  0  0
    3.5725   -5.4013    5.2562 H   0  0  0  0  0  0  0  0  0  0  0  0
    4.4389   -3.9159    5.6215 H   0  0  0  0  0  0  0  0  0  0  0  0
    1.2380   -5.3419    4.2200 H   0  0  0  0  0  0  0  0  0  0  0  0
    0.6666   -3.8756    3.4838 H   0  0  0  0  0  0  0  0  0  0  0  0
    3.0018   -5.5194    2.5357 H   0  0  0  0  0  0  0  0  0  0  0  0
    1.4865   -5.2765    1.7242 H   0  0  0  0  0  0  0  0  0  0  0  0
    3.7546   -3.1635   -2.2879 H   0  0  0  0  0  0  0  0  0  0  0  0
    3.8774   -1.9956    4.3091 H   0  0  0  0  0  0  0  0  0  0  0  0
    3.4427    0.5250    4.0595 H   0  0  0  0  0  0  0  0  0  0  0  0
    2.1992    1.0504    5.0943 H   0  0  0  0  0  0  0  0  0  0  0  0
    3.1509   -0.5477    7.0086 H   0  0  0  0  0  0  0  0  0  0  0  0
    5.4352    0.1376    8.2934 H   0  0  0  0  0  0  0  0  0  0  0  0
    5.4518   -1.5255    7.7261 H   0  0  0  0  0  0  0  0  0  0  0  0
    7.7863   -0.0650    7.9462 H   0  0  0  0  0  0  0  0  0  0  0  0
    7.5494   -1.3115    6.7159 H   0  0  0  0  0  0  0  0  0  0  0  0
    7.2634    1.6876    6.3917 H   0  0  0  0  0  0  0  0  0  0  0  0
    8.0640    0.5563    5.2819 H   0  0  0  0  0  0  0  0  0  0  0  0
    5.9591   -0.1434    4.3565 H   0  0  0  0  0  0  0  0  0  0  0  0
    5.4793    1.4949    4.8798 H   0  0  0  0  0  0  0  0  0  0  0  0
  1  2  1  0
  1 37  1  0
  1 38  1  0
  1 39  1  0
  2 36  1  0
  2  3  2  0
  3  9  1  0
  3  4  1  0
  4  5  1  0
  4 40  1  0
  4 41  1  0
  5  6  2  0
  5  7  1  0
  7  8  1  0
  7 42  1  0
  7 43  1  0
  8  9  1  0
  8 44  1  0
  8 45  1  0
  9 10  1  1
  9 11  1  0
 10 46  1  0
 10 47  1  0
 10 48  1  0
 11 28  1  0
 11 12  1  0
 11 49  1  6
 12 13  1  0
 12 50  1  0
 12 51  1  0
 13 14  1  0
 13 52  1  0
 13 53  1  0
 14 27  1  0
 14 15  1  1
 14 16  1  0
 15 54  1  0
 15 55  1  0
 15 56  1  0
 16 17  1  0
 16 57  1  0
 16 58  1  0
 17 18  1  0
 17 59  1  0
 17 60  1  0
 18 26  1  0
 18 19  2  0
 19 20  1  0
 20 24  1  0
 20 21  1  0
 21 22  2  0
 21 61  1  0
 22 23  1  0
 23 24  2  0
 24 25  1  0
 25 26  2  0
 26 27  1  0
 27 28  1  0
 27 62  1  1
 28 29  1  1
 28 36  1  0
 29 30  1  0
 29 63  1  0
 29 64  1  0
 30 31  2  3
 30 65  1  0
 31 35  1  0
 31 32  1  0
 32 33  1  0
 32 66  1  0
 32 67  1  0
 33 34  1  0
 33 68  1  0
 33 69  1  0
 34 35  1  0
 34 70  1  0
 34 71  1  0
 35 72  1  0
 35 73  1  0
M  END
>  <i_m_ct_stereo_status>  (308) 
1

>  <s_m_source_file>  (308) 
/var/tmp/pbs.5076255.sched01/tmpb6g28bo8/1236hu3uqnd.sdf

>  <i_m_source_file_index>  (308) 
11

>  <i_lp_mmshare_version>  (308) 
48012

>  <i_f3d_flags>  (308) 
0

>  <s_epik_input>  (308) 
W0NIMl0xW0NIMl1DKD1PKVtDSDJdQyhbQ0BdMTJbQ0gzXSk9QyhbQ0gzXSlPW0NAQF0zKFtDSDJdW0NIXT1DNFtDSDJdW0NIMl1bQ0gyXVtDSDJdNClbQ0BIXTJbQ0gyXVtDSDJdW0NAXTUoW0NIM10pW0NASF0zYzZjKFtDSDJdW0NIMl01KW5uN2MobjYpbm5bY0hdNw==

>  <s_epik_cmdline>  (308) 
J2VwaWtfcHl0aG9uJywgJy1waHQnLCAnMi4wJywgJy1waCcsICc3LjAnLCAnLXRuJywgJzgnLCAnLW1hJywgJzIwMCcsICctaW1hZScsICc8aW5maWxlLm1hZT4nLCAnLW9tYWUnLCAnPG91dGZpbGUubWFlPic=

>  <r_lp_tautomer_probability>  (308) 
1

>  <r_epik_Ionization_Penalty>  (308) 
6.0996e-09

>  <r_epik_Ionization_Penalty_Charging>  (308) 
0

>  <r_epik_Ionization_Penalty_Neutral>  (308) 
6.0996e-09

>  <r_epik_State_Penalty>  (308) 
-0

>  <r_epik_Charging_Adjusted_Penalty>  (308) 
0

>  <i_epik_Tot_Q>  (308) 
0

>  <i_epik_Tot_abs_Q>  (308) 
0

>  <s_lp_Force_Field>  (308) 
OPLS3e

>  <r_lp_Energy>  (308) 
67.9872

>  <b_lp_Chiralities_Consistent>  (308) 
1

>  <s_lp_Variant>  (308) 
94:0-1

>  <s_i_glide_gridfile>  (308) 
pfpi4k_grid

>  <i_i_glide_lignum>  (308) 
11

>  <i_i_glide_rotatable_bonds>  (308) 
2

>  <r_i_docking_score>  (308) 
-2.03414

>  <r_i_glide_ligand_efficiency>  (308) 
-0.0565039

>  <r_i_glide_ligand_efficiency_sa>  (308) 
-0.186572

>  <r_i_glide_ligand_efficiency_ln>  (308) 
-0.443795

>  <r_i_glide_gscore>  (308) 
-2.03414

>  <r_i_glide_lipo>  (308) 
-0.416459

>  <r_i_glide_hbond>  (308) 
0

>  <r_i_glide_metal>  (308) 
-0

>  <r_i_glide_rewards>  (308) 
-0.0880301

>  <r_i_glide_evdw>  (308) 
-29.061

>  <r_i_glide_ecoul>  (308) 
-0.667927

>  <r_i_glide_erotb>  (308) 
0.170998

>  <r_i_glide_esite>  (308) 
-0.147412

>  <r_i_glide_emodel>  (308) 
-31.5454

>  <r_i_glide_energy>  (308) 
-29.7289

>  <r_i_glide_einternal>  (308) 
2.35924

>  <r_i_glide_intrahb_reward>  (308) 
-0

>  <i_i_glide_confnum>  (308) 
5

>  <i_i_glide_posenum>  (308) 
23

>  <r_i_glide_eff_state_penalty>  (308) 
0

>  <ligand_id>  (308) 
94

>  <original_smiles>  (308) 
CC1=C2CC(=O)CCC2(C)C2CCC3(C)CCc4nn5cnnc5nc4C3C2(CC=C2CCCC2)O1

>  <smiles>  (308) 
[H]C(=C1C([H])([H])C([H])([H])C([H])([H])C1([H])[H])C([H])([H])C12OC(C([H])([H])[H])=C3C([H])([H])C(=O)C([H])([H])C([H])([H])C3(C([H])([H])[H])C1([H])C([H])([H])C([H])([H])C1(C([H])([H])[H])C([H])([H])C([H])([H])c3nn4c([H])nnc4nc3C21[H]

$$$$
94:0:1
     RDKit          3D

 73 79  0  0  1  0  0  0  0  0999 V2000
    1.5290    1.4350    1.6759 C   0  0  0  0  0  0  0  0  0  0  0  0
    1.0799    0.7138    2.9259 C   0  0  0  0  0  0  0  0  0  0  0  0
    0.0195    1.0323    3.7083 C   0  0  0  0  0  0  0  0  0  0  0  0
   -0.8589    2.2615    3.4650 C   0  0  0  0  0  0  0  0  0  0  0  0
   -0.9322    3.1103    4.7309 C   0  0  0  0  0  0  0  0  0  0  0  0
   -0.7737    4.3307    4.7186 O   0  0  0  0  0  0  0  0  0  0  0  0
   -1.2950    2.3724    6.0147 C   0  0  0  0  0  0  0  0  0  0  0  0
   -0.4550    1.0865    6.1926 C   0  0  0  0  0  0  0  0  0  0  0  0
   -0.3766    0.1784    4.9241 C   0  0  1  0  0  0  0  0  0  0  0  0
   -1.7894   -0.4131    4.6765 C   0  0  0  0  0  0  0  0  0  0  0  0
    0.6293   -1.0219    5.0580 C   0  0  2  0  0  0  0  0  0  0  0  0
    0.6425   -1.7092    6.4285 C   0  0  0  0  0  0  0  0  0  0  0  0
    1.3906   -3.0482    6.4198 C   0  0  0  0  0  0  0  0  0  0  0  0
    2.3512   -3.3516    5.2255 C   0  0  1  0  0  0  0  0  0  0  0  0
    3.4868   -4.2248    5.8376 C   0  0  0  0  0  0  0  0  0  0  0  0
    1.6260   -4.2039    4.1442 C   0  0  0  0  0  0  0  0  0  0  0  0
    2.5560   -4.6931    3.0298 C   0  0  0  0  0  0  0  0  0  0  0  0
    3.4041   -3.5757    2.4600 C   0  0  0  0  0  0  0  0  0  0  0  0
    3.9219   -3.8490    1.2591 N   0  0  0  0  0  0  0  0  0  0  0  0
    4.7183   -2.8333    0.8211 N   0  0  0  0  0  0  0  0  0  0  0  0
    5.3785   -2.7281   -0.3698 C   0  0  0  0  0  0  0  0  0  0  0  0
    6.0609   -1.5797   -0.4132 N   0  0  0  0  0  0  0  0  0  0  0  0
    5.8415   -0.9019    0.7816 N   0  0  0  0  0  0  0  0  0  0  0  0
    5.0228   -1.6589    1.5263 C   0  0  0  0  0  0  0  0  0  0  0  0
    4.4981   -1.4521    2.7468 N   0  0  0  0  0  0  0  0  0  0  0  0
    3.6469   -2.3733    3.1977 C   0  0  0  0  0  0  0  0  0  0  0  0
    2.9877   -2.0751    4.5699 C   0  0  1  0  0  0  0  0  0  0  0  0
    2.0831   -0.7583    4.5527 C   0  0  2  0  0  0  0  0  0  0  0  0
    2.7996    0.3969    5.3424 C   0  0  0  0  0  0  0  0  0  0  0  0
    4.2660    0.6220    4.9919 C   0  0  0  0  0  0  0  0  0  0  0  0
    5.3054    0.4544    5.8349 C   0  0  0  0  0  0  0  0  0  0  0  0
    6.7550    0.6640    5.4635 C   0  0  0  0  0  0  0  0  0  0  0  0
    7.5607    0.1517    6.6610 C   0  0  0  0  0  0  0  0  0  0  0  0
    6.6112    0.2151    7.8618 C   0  0  0  0  0  0  0  0  0  0  0  0
    5.2087    0.0216    7.2834 C   0  0  0  0  0  0  0  0  0  0  0  0
    1.9508   -0.3122    3.1983 O   0  0  0  0  0  0  0  0  0  0  0  0
    0.7995    2.1388    1.2849 H   0  0  0  0  0  0  0  0  0  0  0  0
    1.7195    0.6983    0.8948 H   0  0  0  0  0  0  0  0  0  0  0  0
    2.4591    1.9683    1.8706 H   0  0  0  0  0  0  0  0  0  0  0  0
   -0.4972    2.8910    2.6547 H   0  0  0  0  0  0  0  0  0  0  0  0
   -1.8680    1.9564    3.1958 H   0  0  0  0  0  0  0  0  0  0  0  0
   -1.1660    3.0385    6.8687 H   0  0  0  0  0  0  0  0  0  0  0  0
   -2.3593    2.1416    5.9692 H   0  0  0  0  0  0  0  0  0  0  0  0
    0.5400    1.3840    6.5177 H   0  0  0  0  0  0  0  0  0  0  0  0
   -0.8814    0.5289    7.0280 H   0  0  0  0  0  0  0  0  0  0  0  0
   -2.0948   -1.0894    5.4744 H   0  0  0  0  0  0  0  0  0  0  0  0
   -1.8119   -0.9747    3.7459 H   0  0  0  0  0  0  0  0  0  0  0  0
   -2.5607    0.3493    4.5913 H   0  0  0  0  0  0  0  0  0  0  0  0
    0.2306   -1.7566    4.3651 H   0  0  0  0  0  0  0  0  0  0  0  0
    1.1223   -1.0611    7.1591 H   0  0  0  0  0  0  0  0  0  0  0  0
   -0.3719   -1.8611    6.8011 H   0  0  0  0  0  0  0  0  0  0  0  0
    1.9336   -3.1056    7.3690 H   0  0  0  0  0  0  0  0  0  0  0  0
    0.6525   -3.8457    6.4893 H   0  0  0  0  0  0  0  0  0  0  0  0
    4.2927   -4.4258    5.1297 H   0  0  0  0  0  0  0  0  0  0  0  0
    3.1030   -5.1871    6.1884 H   0  0  0  0  0  0  0  0  0  0  0  0
    3.9524   -3.7293    6.6923 H   0  0  0  0  0  0  0  0  0  0  0  0
    1.1207   -5.0676    4.5872 H   0  0  0  0  0  0  0  0  0  0  0  0
    0.8440   -3.6242    3.6569 H   0  0  0  0  0  0  0  0  0  0  0  0
    3.2330   -5.4545    3.4186 H   0  0  0  0  0  0  0  0  0  0  0  0
    1.9881   -5.1776    2.2346 H   0  0  0  0  0  0  0  0  0  0  0  0
    5.3488   -3.4619   -1.1598 H   0  0  0  0  0  0  0  0  0  0  0  0
    3.8327   -1.8752    5.2254 H   0  0  0  0  0  0  0  0  0  0  0  0
    2.3088    1.3548    5.1707 H   0  0  0  0  0  0  0  0  0  0  0  0
    2.7238    0.2151    6.4095 H   0  0  0  0  0  0  0  0  0  0  0  0
    4.4640    0.9191    3.9701 H   0  0  0  0  0  0  0  0  0  0  0  0
    7.0104    0.1480    4.5360 H   0  0  0  0  0  0  0  0  0  0  0  0
    6.9270    1.7305    5.3233 H   0  0  0  0  0  0  0  0  0  0  0  0
    7.8439   -0.8862    6.4885 H   0  0  0  0  0  0  0  0  0  0  0  0
    8.4711    0.7296    6.8223 H   0  0  0  0  0  0  0  0  0  0  0  0
    6.8539   -0.5290    8.6208 H   0  0  0  0  0  0  0  0  0  0  0  0
    6.6778    1.1979    8.3292 H   0  0  0  0  0  0  0  0  0  0  0  0
    4.4692    0.6061    7.8327 H   0  0  0  0  0  0  0  0  0  0  0  0
    4.9209   -1.0305    7.3216 H   0  0  0  0  0  0  0  0  0  0  0  0
  1  2  1  0
  1 37  1  0
  1 38  1  0
  1 39  1  0
  2 36  1  0
  2  3  2  0
  3  9  1  0
  3  4  1  0
  4  5  1  0
  4 40  1  0
  4 41  1  0
  5  6  2  0
  5  7  1  0
  7  8  1  0
  7 42  1  0
  7 43  1  0
  8  9  1  0
  8 44  1  0
  8 45  1  0
  9 10  1  6
  9 11  1  0
 10 46  1  0
 10 47  1  0
 10 48  1  0
 11 28  1  0
 11 12  1  0
 11 49  1  6
 12 13  1  0
 12 50  1  0
 12 51  1  0
 13 14  1  0
 13 52  1  0
 13 53  1  0
 14 27  1  0
 14 15  1  1
 14 16  1  0
 15 54  1  0
 15 55  1  0
 15 56  1  0
 16 17  1  0
 16 57  1  0
 16 58  1  0
 17 18  1  0
 17 59  1  0
 17 60  1  0
 18 26  1  0
 18 19  2  0
 19 20  1  0
 20 24  1  0
 20 21  1  0
 21 22  2  0
 21 61  1  0
 22 23  1  0
 23 24  2  0
 24 25  1  0
 25 26  2  0
 26 27  1  0
 27 28  1  0
 27 62  1  1
 28 29  1  1
 28 36  1  0
 29 30  1  0
 29 63  1  0
 29 64  1  0
 30 31  2  3
 30 65  1  0
 31 35  1  0
 31 32  1  0
 32 33  1  0
 32 66  1  0
 32 67  1  0
 33 34  1  0
 33 68  1  0
 33 69  1  0
 34 35  1  0
 34 70  1  0
 34 71  1  0
 35 72  1  0
 35 73  1  0
M  END
>  <i_m_ct_stereo_status>  (309) 
1

>  <s_m_source_file>  (309) 
/var/tmp/pbs.5076255.sched01/tmpb6g28bo8/1236hu3uqnd.sdf

>  <i_m_source_file_index>  (309) 
11

>  <i_lp_mmshare_version>  (309) 
48012

>  <i_f3d_flags>  (309) 
0

>  <s_epik_input>  (309) 
W0NIMl0xW0NIMl1DKD1PKVtDSDJdQyhbQ0BdMTJbQ0gzXSk9QyhbQ0gzXSlPW0NAQF0zKFtDSDJdW0NIXT1DNFtDSDJdW0NIMl1bQ0gyXVtDSDJdNClbQ0BIXTJbQ0gyXVtDSDJdW0NAXTUoW0NIM10pW0NASF0zYzZjKFtDSDJdW0NIMl01KW5uN2MobjYpbm5bY0hdNw==

>  <s_epik_cmdline>  (309) 
J2VwaWtfcHl0aG9uJywgJy1waHQnLCAnMi4wJywgJy1waCcsICc3LjAnLCAnLXRuJywgJzgnLCAnLW1hJywgJzIwMCcsICctaW1hZScsICc8aW5maWxlLm1hZT4nLCAnLW9tYWUnLCAnPG91dGZpbGUubWFlPic=

>  <r_lp_tautomer_probability>  (309) 
1

>  <r_epik_Ionization_Penalty>  (309) 
6.0996e-09

>  <r_epik_Ionization_Penalty_Charging>  (309) 
0

>  <r_epik_Ionization_Penalty_Neutral>  (309) 
6.0996e-09

>  <r_epik_State_Penalty>  (309) 
-0

>  <r_epik_Charging_Adjusted_Penalty>  (309) 
0

>  <i_epik_Tot_Q>  (309) 
0

>  <i_epik_Tot_abs_Q>  (309) 
0

>  <s_lp_Force_Field>  (309) 
OPLS3e

>  <r_lp_Energy>  (309) 
67.9872

>  <b_lp_Chiralities_Consistent>  (309) 
1

>  <s_lp_Variant>  (309) 
94:0-1

>  <s_i_glide_gridfile>  (309) 
pfpi4k_grid

>  <i_i_glide_lignum>  (309) 
11

>  <i_i_glide_rotatable_bonds>  (309) 
2

>  <r_i_docking_score>  (309) 
-2.02947

>  <r_i_glide_ligand_efficiency>  (309) 
-0.0563741

>  <r_i_glide_ligand_efficiency_sa>  (309) 
-0.186143

>  <r_i_glide_ligand_efficiency_ln>  (309) 
-0.442775

>  <r_i_glide_gscore>  (309) 
-2.02947

>  <r_i_glide_lipo>  (309) 
-0.404626

>  <r_i_glide_hbond>  (309) 
0

>  <r_i_glide_metal>  (309) 
-0

>  <r_i_glide_rewards>  (309) 
-0.206976

>  <r_i_glide_evdw>  (309) 
-26.2639

>  <r_i_glide_ecoul>  (309) 
-1.40962

>  <r_i_glide_erotb>  (309) 
0.170998

>  <r_i_glide_esite>  (309) 
-0.0642226

>  <r_i_glide_emodel>  (309) 
-30.6574

>  <r_i_glide_energy>  (309) 
-27.6736

>  <r_i_glide_einternal>  (309) 
1.1173

>  <r_i_glide_intrahb_reward>  (309) 
-0

>  <i_i_glide_confnum>  (309) 
3

>  <i_i_glide_posenum>  (309) 
37

>  <r_i_glide_eff_state_penalty>  (309) 
0

>  <ligand_id>  (309) 
94

>  <original_smiles>  (309) 
CC1=C2CC(=O)CCC2(C)C2CCC3(C)CCc4nn5cnnc5nc4C3C2(CC=C2CCCC2)O1

>  <smiles>  (309) 
[H]C(=C1C([H])([H])C([H])([H])C([H])([H])C1([H])[H])C([H])([H])C12OC(C([H])([H])[H])=C3C([H])([H])C(=O)C([H])([H])C([H])([H])C3(C([H])([H])[H])C1([H])C([H])([H])C([H])([H])C1(C([H])([H])[H])C([H])([H])C([H])([H])c3nn4c([H])nnc4nc3C21[H]

$$$$
94:0:2
     RDKit          3D

 73 79  0  0  1  0  0  0  0  0999 V2000
    2.4986   -5.1344    0.1770 C   0  0  0  0  0  0  0  0  0  0  0  0
    2.7052   -4.1834    1.3394 C   0  0  0  0  0  0  0  0  0  0  0  0
    3.0662   -2.8773    1.2677 C   0  0  0  0  0  0  0  0  0  0  0  0
    3.4061   -2.1758   -0.0480 C   0  0  0  0  0  0  0  0  0  0  0  0
    4.7787   -1.5151    0.0470 C   0  0  0  0  0  0  0  0  0  0  0  0
    5.6421   -1.6565   -0.8205 O   0  0  0  0  0  0  0  0  0  0  0  0
    5.0075   -0.6155    1.2564 C   0  0  0  0  0  0  0  0  0  0  0  0
    4.5734   -1.3023    2.5714 C   0  0  0  0  0  0  0  0  0  0  0  0
    3.1646   -1.9895    2.5206 C   0  0  1  0  0  0  0  0  0  0  0  0
    2.1001   -0.8615    2.4149 C   0  0  0  0  0  0  0  0  0  0  0  0
    2.8181   -2.8549    3.7894 C   0  0  2  0  0  0  0  0  0  0  0  0
    3.2898   -2.2672    5.1232 C   0  0  0  0  0  0  0  0  0  0  0  0
    2.6659   -2.9659    6.3384 C   0  0  0  0  0  0  0  0  0  0  0  0
    2.0109   -4.3699    6.1299 C   0  0  1  0  0  0  0  0  0  0  0  0
    2.2467   -5.1227    7.4723 C   0  0  0  0  0  0  0  0  0  0  0  0
    0.4713   -4.2310    5.9282 C   0  0  0  0  0  0  0  0  0  0  0  0
   -0.2678   -5.5754    5.9114 C   0  0  0  0  0  0  0  0  0  0  0  0
    0.3716   -6.5582    4.9557 C   0  0  0  0  0  0  0  0  0  0  0  0
   -0.4276   -7.5640    4.5871 N   0  0  0  0  0  0  0  0  0  0  0  0
    0.2340   -8.4629    3.7993 N   0  0  0  0  0  0  0  0  0  0  0  0
   -0.2442   -9.5906    3.2063 C   0  0  0  0  0  0  0  0  0  0  0  0
    0.7309  -10.1898    2.5114 N   0  0  0  0  0  0  0  0  0  0  0  0
    1.8884   -9.4358    2.6499 N   0  0  0  0  0  0  0  0  0  0  0  0
    1.5822   -8.3901    3.4228 C   0  0  0  0  0  0  0  0  0  0  0  0
    2.3286   -7.3556    3.8322 N   0  0  0  0  0  0  0  0  0  0  0  0
    1.7383   -6.4139    4.5552 C   0  0  0  0  0  0  0  0  0  0  0  0
    2.6318   -5.2081    4.9543 C   0  0  1  0  0  0  0  0  0  0  0  0
    3.1655   -4.3762    3.6996 C   0  0  2  0  0  0  0  0  0  0  0  0
    4.7085   -4.6289    3.5262 C   0  0  0  0  0  0  0  0  0  0  0  0
    5.1171   -6.0505    3.1594 C   0  0  0  0  0  0  0  0  0  0  0  0
    6.1493   -6.4088    2.3807 C   0  0  0  0  0  0  0  0  0  0  0  0
    6.4751   -7.8390    2.0255 C   0  0  0  0  0  0  0  0  0  0  0  0
    7.8557   -7.7790    1.3769 C   0  0  0  0  0  0  0  0  0  0  0  0
    8.0184   -6.3391    0.8746 C   0  0  0  0  0  0  0  0  0  0  0  0
    7.1672   -5.4675    1.7910 C   0  0  0  0  0  0  0  0  0  0  0  0
    2.5054   -4.8530    2.5198 O   0  0  0  0  0  0  0  0  0  0  0  0
    2.4380   -4.6453   -0.7907 H   0  0  0  0  0  0  0  0  0  0  0  0
    1.5711   -5.6865    0.3231 H   0  0  0  0  0  0  0  0  0  0  0  0
    3.3117   -5.8605    0.1509 H   0  0  0  0  0  0  0  0  0  0  0  0
    3.3999   -2.8464   -0.9039 H   0  0  0  0  0  0  0  0  0  0  0  0
    2.6692   -1.4025   -0.2525 H   0  0  0  0  0  0  0  0  0  0  0  0
    6.0600   -0.3330    1.3013 H   0  0  0  0  0  0  0  0  0  0  0  0
    4.4460    0.3053    1.0975 H   0  0  0  0  0  0  0  0  0  0  0  0
    5.3633   -1.9983    2.8360 H   0  0  0  0  0  0  0  0  0  0  0  0
    4.5962   -0.5536    3.3646 H   0  0  0  0  0  0  0  0  0  0  0  0
    2.0851   -0.2405    3.3110 H   0  0  0  0  0  0  0  0  0  0  0  0
    1.0972   -1.2687    2.2819 H   0  0  0  0  0  0  0  0  0  0  0  0
    2.2735   -0.1896    1.5749 H   0  0  0  0  0  0  0  0  0  0  0  0
    1.7321   -2.8234    3.8224 H   0  0  0  0  0  0  0  0  0  0  0  0
    4.3721   -2.3597    5.1955 H   0  0  0  0  0  0  0  0  0  0  0  0
    3.0833   -1.1954    5.1742 H   0  0  0  0  0  0  0  0  0  0  0  0
    3.4502   -3.0174    7.1012 H   0  0  0  0  0  0  0  0  0  0  0  0
    1.9271   -2.2925    6.7696 H   0  0  0  0  0  0  0  0  0  0  0  0
    1.9283   -6.1657    7.4319 H   0  0  0  0  0  0  0  0  0  0  0  0
    1.7103   -4.6415    8.2957 H   0  0  0  0  0  0  0  0  0  0  0  0
    3.3054   -5.1389    7.7394 H   0  0  0  0  0  0  0  0  0  0  0  0
    0.0247   -3.5939    6.6972 H   0  0  0  0  0  0  0  0  0  0  0  0
    0.2517   -3.7421    4.9799 H   0  0  0  0  0  0  0  0  0  0  0  0
   -0.2527   -6.0207    6.9061 H   0  0  0  0  0  0  0  0  0  0  0  0
   -1.3219   -5.4493    5.6749 H   0  0  0  0  0  0  0  0  0  0  0  0
   -1.2581   -9.9535    3.2799 H   0  0  0  0  0  0  0  0  0  0  0  0
    3.5148   -5.6706    5.3997 H   0  0  0  0  0  0  0  0  0  0  0  0
    5.0889   -4.0096    2.7249 H   0  0  0  0  0  0  0  0  0  0  0  0
    5.2462   -4.3504    4.4305 H   0  0  0  0  0  0  0  0  0  0  0  0
    4.5753   -6.8669    3.5856 H   0  0  0  0  0  0  0  0  0  0  0  0
    6.4523   -8.4949    2.8986 H   0  0  0  0  0  0  0  0  0  0  0  0
    5.7288   -8.2009    1.3159 H   0  0  0  0  0  0  0  0  0  0  0  0
    8.6136   -7.9845    2.1303 H   0  0  0  0  0  0  0  0  0  0  0  0
    7.9677   -8.5089    0.5758 H   0  0  0  0  0  0  0  0  0  0  0  0
    9.0601   -6.0235    0.8504 H   0  0  0  0  0  0  0  0  0  0  0  0
    7.6195   -6.2559   -0.1307 H   0  0  0  0  0  0  0  0  0  0  0  0
    6.6997   -4.6386    1.2551 H   0  0  0  0  0  0  0  0  0  0  0  0
    7.7727   -5.0734    2.6089 H   0  0  0  0  0  0  0  0  0  0  0  0
  1  2  1  0
  1 37  1  0
  1 38  1  0
  1 39  1  0
  2 36  1  0
  2  3  2  0
  3  9  1  0
  3  4  1  0
  4  5  1  0
  4 40  1  0
  4 41  1  0
  5  6  2  0
  5  7  1  0
  7  8  1  0
  7 42  1  0
  7 43  1  0
  8  9  1  0
  8 44  1  0
  8 45  1  0
  9 10  1  6
  9 11  1  0
 10 46  1  0
 10 47  1  0
 10 48  1  0
 11 28  1  0
 11 12  1  0
 11 49  1  1
 12 13  1  0
 12 50  1  0
 12 51  1  0
 13 14  1  0
 13 52  1  0
 13 53  1  0
 14 27  1  0
 14 15  1  1
 14 16  1  0
 15 54  1  0
 15 55  1  0
 15 56  1  0
 16 17  1  0
 16 57  1  0
 16 58  1  0
 17 18  1  0
 17 59  1  0
 17 60  1  0
 18 26  1  0
 18 19  2  0
 19 20  1  0
 20 24  1  0
 20 21  1  0
 21 22  2  0
 21 61  1  0
 22 23  1  0
 23 24  2  0
 24 25  1  0
 25 26  2  0
 26 27  1  0
 27 28  1  0
 27 62  1  1
 28 29  1  6
 28 36  1  0
 29 30  1  0
 29 63  1  0
 29 64  1  0
 30 31  2  3
 30 65  1  0
 31 35  1  0
 31 32  1  0
 32 33  1  0
 32 66  1  0
 32 67  1  0
 33 34  1  0
 33 68  1  0
 33 69  1  0
 34 35  1  0
 34 70  1  0
 34 71  1  0
 35 72  1  0
 35 73  1  0
M  END
>  <i_m_ct_stereo_status>  (310) 
1

>  <s_m_source_file>  (310) 
/var/tmp/pbs.5076255.sched01/tmpb6g28bo8/1236hu3uqnd.sdf

>  <i_m_source_file_index>  (310) 
11

>  <i_lp_mmshare_version>  (310) 
48012

>  <i_f3d_flags>  (310) 
0

>  <s_epik_input>  (310) 
W0NIMl0xW0NIMl1DKD1PKVtDSDJdQyhbQ0BdMTJbQ0gzXSk9QyhbQ0gzXSlPW0NAQF0zKFtDSDJdW0NIXT1DNFtDSDJdW0NIMl1bQ0gyXVtDSDJdNClbQ0BIXTJbQ0gyXVtDSDJdW0NAXTUoW0NIM10pW0NASF0zYzZjKFtDSDJdW0NIMl01KW5uN2MobjYpbm5bY0hdNw==

>  <s_epik_cmdline>  (310) 
J2VwaWtfcHl0aG9uJywgJy1waHQnLCAnMi4wJywgJy1waCcsICc3LjAnLCAnLXRuJywgJzgnLCAnLW1hJywgJzIwMCcsICctaW1hZScsICc8aW5maWxlLm1hZT4nLCAnLW9tYWUnLCAnPG91dGZpbGUubWFlPic=

>  <r_lp_tautomer_probability>  (310) 
1

>  <r_epik_Ionization_Penalty>  (310) 
6.0996e-09

>  <r_epik_Ionization_Penalty_Charging>  (310) 
0

>  <r_epik_Ionization_Penalty_Neutral>  (310) 
6.0996e-09

>  <r_epik_State_Penalty>  (310) 
-0

>  <r_epik_Charging_Adjusted_Penalty>  (310) 
0

>  <i_epik_Tot_Q>  (310) 
0

>  <i_epik_Tot_abs_Q>  (310) 
0

>  <s_lp_Force_Field>  (310) 
OPLS3e

>  <r_lp_Energy>  (310) 
67.9872

>  <b_lp_Chiralities_Consistent>  (310) 
1

>  <s_lp_Variant>  (310) 
94:0-1

>  <s_i_glide_gridfile>  (310) 
pfpi4k_grid

>  <i_i_glide_lignum>  (310) 
11

>  <i_i_glide_rotatable_bonds>  (310) 
2

>  <r_i_docking_score>  (310) 
-1.89249

>  <r_i_glide_ligand_efficiency>  (310) 
-0.0525692

>  <r_i_glide_ligand_efficiency_sa>  (310) 
-0.17358

>  <r_i_glide_ligand_efficiency_ln>  (310) 
-0.41289

>  <r_i_glide_gscore>  (310) 
-1.89249

>  <r_i_glide_lipo>  (310) 
-0.368176

>  <r_i_glide_hbond>  (310) 
0

>  <r_i_glide_metal>  (310) 
-0

>  <r_i_glide_rewards>  (310) 
-0.0842974

>  <r_i_glide_evdw>  (310) 
-27.8809

>  <r_i_glide_ecoul>  (310) 
-0.836472

>  <r_i_glide_erotb>  (310) 
0.170998

>  <r_i_glide_esite>  (310) 
-0.091498

>  <r_i_glide_emodel>  (310) 
-31.123

>  <r_i_glide_energy>  (310) 
-28.7174

>  <r_i_glide_einternal>  (310) 
1.08401

>  <r_i_glide_intrahb_reward>  (310) 
-0

>  <i_i_glide_confnum>  (310) 
2

>  <i_i_glide_posenum>  (310) 
2

>  <r_i_glide_eff_state_penalty>  (310) 
0

>  <ligand_id>  (310) 
94

>  <original_smiles>  (310) 
CC1=C2CC(=O)CCC2(C)C2CCC3(C)CCc4nn5cnnc5nc4C3C2(CC=C2CCCC2)O1

>  <smiles>  (310) 
[H]C(=C1C([H])([H])C([H])([H])C([H])([H])C1([H])[H])C([H])([H])C12OC(C([H])([H])[H])=C3C([H])([H])C(=O)C([H])([H])C([H])([H])C3(C([H])([H])[H])C1([H])C([H])([H])C([H])([H])C1(C([H])([H])[H])C([H])([H])C([H])([H])c3nn4c([H])nnc4nc3C21[H]

$$$$
95:0:0
     RDKit          3D

 62 68  0  0  1  0  0  0  0  0999 V2000
    0.6424   -3.3583    3.9145 C   0  0  0  0  0  0  0  0  0  0  0  0
    1.6018   -4.1973    3.2967 O   0  0  0  0  0  0  0  0  0  0  0  0
    2.7071   -3.5336    2.7875 C   0  0  2  0  0  0  0  0  0  0  0  0
    2.4190   -2.9539    1.5030 O   0  0  0  0  0  0  0  0  0  0  0  0
    3.4028   -2.6208    0.4416 C   0  0  2  0  0  0  0  0  0  0  0  0
    3.0069   -2.6939   -1.0537 C   0  0  0  0  0  0  0  0  0  0  0  0
    4.1529   -3.4157   -1.8332 C   0  0  1  0  0  0  0  0  0  0  0  0
    4.7908   -2.4783   -2.8768 C   0  0  0  0  0  0  0  0  0  0  0  0
    5.1747   -3.9526   -0.7944 C   0  0  2  0  0  0  0  0  0  0  0  0
    5.1373   -5.5436   -0.3976 C   0  0  0  0  0  0  0  0  0  0  0  0
    4.4709   -6.2615    0.9087 C   0  0  1  0  0  0  0  0  0  0  0  0
    5.1810   -6.5157    2.3124 C   0  0  0  0  0  0  0  0  0  0  0  0
    4.4629   -5.6576    3.4659 C   0  0  2  0  0  0  0  0  0  0  0  0
    5.5346   -5.3861    4.5695 C   0  0  0  0  0  0  0  0  0  0  0  0
    3.3831   -6.4481    4.2425 C   0  0  0  0  0  0  0  0  0  0  0  0
    2.6317   -7.3947    3.3543 C   0  0  0  0  0  0  0  0  0  0  0  0
    2.2653   -6.6983    2.0644 C   0  0  0  0  0  0  0  0  0  0  0  0
    3.2278   -5.5971    1.4200 C   0  0  2  0  0  0  0  0  0  0  0  0
    2.2708   -5.3500    0.2057 C   0  0  0  0  0  0  0  0  0  0  0  0
    3.8632   -4.4991    2.5306 C   0  0  1  0  0  0  0  0  0  0  0  0
    5.0984   -3.3842    2.5535 C   0  0  2  0  0  0  0  0  0  0  0  0
    5.0725   -1.8100    2.2984 C   0  0  0  0  0  0  0  0  0  0  0  0
    5.5543   -1.6823    0.8046 C   0  0  1  0  0  0  0  0  0  0  0  0
    7.0234   -1.8960    0.8016 C   0  0  0  0  0  0  0  0  0  0  0  0
    7.8825   -1.0873    0.4777 O   0  0  0  0  0  0  0  0  0  0  0  0
    7.1743   -3.0862    1.2644 O   0  0  0  0  0  0  0  0  0  0  0  0
    5.9039   -3.6897    1.4122 C   0  0  2  0  0  0  0  0  0  0  0  0
    4.9562   -3.0271    0.3992 C   0  0  1  0  0  0  0  0  0  0  0  0
   -0.1839   -3.9670    4.2840 H   0  0  0  0  0  0  0  0  0  0  0  0
    0.2439   -2.6195    3.2188 H   0  0  0  0  0  0  0  0  0  0  0  0
    1.0761   -2.8411    4.7711 H   0  0  0  0  0  0  0  0  0  0  0  0
    2.9789   -2.7757    3.5202 H   0  0  0  0  0  0  0  0  0  0  0  0
    3.3030   -1.5368    0.5443 H   0  0  0  0  0  0  0  0  0  0  0  0
    2.0328   -3.1525   -1.2036 H   0  0  0  0  0  0  0  0  0  0  0  0
    2.8905   -1.6873   -1.4568 H   0  0  0  0  0  0  0  0  0  0  0  0
    3.7734   -4.2513   -2.4146 H   0  0  0  0  0  0  0  0  0  0  0  0
    5.2382   -1.6010   -2.4099 H   0  0  0  0  0  0  0  0  0  0  0  0
    4.0411   -2.1330   -3.5890 H   0  0  0  0  0  0  0  0  0  0  0  0
    5.5616   -2.9976   -3.4450 H   0  0  0  0  0  0  0  0  0  0  0  0
    6.1669   -3.7802   -1.2127 H   0  0  0  0  0  0  0  0  0  0  0  0
    4.7456   -6.0595   -1.2694 H   0  0  0  0  0  0  0  0  0  0  0  0
    6.1755   -5.8589   -0.3265 H   0  0  0  0  0  0  0  0  0  0  0  0
    4.2158   -7.2555    0.5394 H   0  0  0  0  0  0  0  0  0  0  0  0
    5.1468   -7.5769    2.5534 H   0  0  0  0  0  0  0  0  0  0  0  0
    6.2588   -6.3644    2.2764 H   0  0  0  0  0  0  0  0  0  0  0  0
    5.1982   -4.6211    5.2716 H   0  0  0  0  0  0  0  0  0  0  0  0
    6.5150   -5.1108    4.1792 H   0  0  0  0  0  0  0  0  0  0  0  0
    5.7460   -6.2791    5.1578 H   0  0  0  0  0  0  0  0  0  0  0  0
    3.8020   -7.0634    5.0386 H   0  0  0  0  0  0  0  0  0  0  0  0
    2.7039   -5.7628    4.7492 H   0  0  0  0  0  0  0  0  0  0  0  0
    3.2232   -8.2882    3.1514 H   0  0  0  0  0  0  0  0  0  0  0  0
    1.7349   -7.7513    3.8597 H   0  0  0  0  0  0  0  0  0  0  0  0
    2.1052   -7.5325    1.3794 H   0  0  0  0  0  0  0  0  0  0  0  0
    1.2747   -6.2740    2.2188 H   0  0  0  0  0  0  0  0  0  0  0  0
    1.4332   -4.7057    0.4187 H   0  0  0  0  0  0  0  0  0  0  0  0
    1.8027   -6.2556   -0.1743 H   0  0  0  0  0  0  0  0  0  0  0  0
    2.7492   -5.0585   -0.6958 H   0  0  0  0  0  0  0  0  0  0  0  0
    5.6897   -3.3871    3.4479 H   0  0  0  0  0  0  0  0  0  0  0  0
    4.1350   -1.2962    2.5166 H   0  0  0  0  0  0  0  0  0  0  0  0
    5.7964   -1.3222    2.9595 H   0  0  0  0  0  0  0  0  0  0  0  0
    5.2584   -0.7793    0.2764 H   0  0  0  0  0  0  0  0  0  0  0  0
    6.2131   -4.6975    1.3440 H   0  0  0  0  0  0  0  0  0  0  0  0
  1  2  1  0
  1 29  1  0
  1 30  1  0
  1 31  1  0
  2  3  1  0
  3 20  1  0
  3  4  1  0
  3 32  1  1
  4  5  1  0
 28  5  1  1
  5  6  1  0
  5 33  1  1
  6  7  1  0
  6 34  1  0
  6 35  1  0
  7  8  1  0
  7  9  1  0
  7 36  1  6
  8 37  1  0
  8 38  1  0
  8 39  1  0
  9 28  1  0
  9 10  1  0
  9 40  1  6
 10 11  1  0
 10 41  1  0
 10 42  1  0
 11 18  1  0
 11 12  1  0
 11 43  1  6
 12 13  1  0
 12 44  1  0
 12 45  1  0
 20 13  1  1
 13 14  1  1
 13 15  1  0
 14 46  1  0
 14 47  1  0
 14 48  1  0
 15 16  1  0
 15 49  1  0
 15 50  1  0
 16 17  1  0
 16 51  1  0
 16 52  1  0
 17 18  1  0
 17 53  1  0
 17 54  1  0
 18 19  1  6
 18 20  1  0
 19 55  1  0
 19 56  1  0
 19 57  1  0
 20 21  1  0
 21 27  1  0
 21 22  1  0
 21 58  1  1
 22 23  1  0
 22 59  1  0
 22 60  1  0
 23 28  1  0
 23 24  1  0
 23 61  1  6
 24 25  2  0
 24 26  1  0
 26 27  1  0
 27 28  1  0
 27 62  1  6
M  END
>  <i_m_ct_stereo_status>  (311) 
1

>  <s_m_source_file>  (311) 
/var/tmp/pbs.5076255.sched01/tmpb6g28bo8/1236hu3uqnd.sdf

>  <i_m_source_file_index>  (311) 
12

>  <i_lp_mmshare_version>  (311) 
48012

>  <i_f3d_flags>  (311) 
0

>  <s_epik_input>  (311) 
Tz1DMU9bQ0BIXTJbQ0BIXTNbQ0gyXVtDQEBIXTFbQ0BAXTIoW0NAQEhdKFtDSDJdW0NASF00W0NIM10pT1tDQEhdNU9bQ0gzXSlbQ0BIXTRbQ0gyXVtDQEBIXShbQ0gyXVtDQF02KFtDQF0zNTcpW0NIM10pW0NAQF03KFtDSDNdKVtDSDJdW0NIMl1bQ0gyXTY=

>  <s_epik_cmdline>  (311) 
J2VwaWtfcHl0aG9uJywgJy1waHQnLCAnMi4wJywgJy1waCcsICc3LjAnLCAnLXRuJywgJzgnLCAnLW1hJywgJzIwMCcsICctaW1hZScsICc8aW5maWxlLm1hZT4nLCAnLW9tYWUnLCAnPG91dGZpbGUubWFlPic=

>  <r_lp_tautomer_probability>  (311) 
1

>  <r_epik_Ionization_Penalty>  (311) 
1.28401e-12

>  <r_epik_Ionization_Penalty_Charging>  (311) 
0

>  <r_epik_Ionization_Penalty_Neutral>  (311) 
1.28401e-12

>  <r_epik_State_Penalty>  (311) 
-0

>  <r_epik_Charging_Adjusted_Penalty>  (311) 
0

>  <i_epik_Tot_Q>  (311) 
0

>  <i_epik_Tot_abs_Q>  (311) 
0

>  <s_epik_Chemistry_Notes>  (311) 
This compound has an ester and may undergo hydrolysis at high or low pH. This compound contains an acetal/aminal-like group ( X-CH(R)-Y where X, Y are N, S, or O) that may be acid/base labile, releasing an aldehyde.

>  <s_lp_Force_Field>  (311) 
OPLS3e

>  <r_lp_Energy>  (311) 
279.481

>  <b_lp_Chiralities_Consistent>  (311) 
1

>  <s_lp_Variant>  (311) 
95:0-1

>  <s_i_glide_gridfile>  (311) 
pfpi4k_grid

>  <i_i_glide_lignum>  (311) 
12

>  <i_i_glide_rotatable_bonds>  (311) 
1

>  <r_i_docking_score>  (311) 
-2.23014

>  <r_i_glide_ligand_efficiency>  (311) 
-0.079648

>  <r_i_glide_ligand_efficiency_sa>  (311) 
-0.241858

>  <r_i_glide_ligand_efficiency_ln>  (311) 
-0.514783

>  <r_i_glide_gscore>  (311) 
-2.23014

>  <r_i_glide_lipo>  (311) 
-0.647739

>  <r_i_glide_hbond>  (311) 
-0.029182

>  <r_i_glide_metal>  (311) 
-0

>  <r_i_glide_rewards>  (311) 
-0.773926

>  <r_i_glide_evdw>  (311) 
-15.0749

>  <r_i_glide_ecoul>  (311) 
-0.162062

>  <r_i_glide_erotb>  (311) 
0

>  <r_i_glide_esite>  (311) 
-0.00124258

>  <r_i_glide_emodel>  (311) 
-16.6759

>  <r_i_glide_energy>  (311) 
-15.2369

>  <r_i_glide_einternal>  (311) 
0.647429

>  <r_i_glide_intrahb_reward>  (311) 
-0

>  <i_i_glide_confnum>  (311) 
2

>  <i_i_glide_posenum>  (311) 
33

>  <r_i_glide_eff_state_penalty>  (311) 
0

>  <ligand_id>  (311) 
95

>  <original_smiles>  (311) 
COC1OC2CC(C)C3CC4CC5(C)CCCC4(C)C15C1CC4C(=O)OC1C243

>  <smiles>  (311) 
[H]C([H])([H])OC1([H])OC2([H])C([H])([H])C([H])(C([H])([H])[H])C3([H])C([H])([H])C4([H])C([H])([H])C5(C([H])([H])[H])C([H])([H])C([H])([H])C([H])([H])C4(C([H])([H])[H])C15C1([H])C([H])([H])C4([H])C(=O)OC1([H])C243

$$$$
95:0:1
     RDKit          3D

 62 68  0  0  1  0  0  0  0  0999 V2000
    3.2710    1.5627    3.3586 C   0  0  0  0  0  0  0  0  0  0  0  0
    3.3180    0.1556    3.4079 O   0  0  0  0  0  0  0  0  0  0  0  0
    4.2994   -0.4269    2.6121 C   0  0  2  0  0  0  0  0  0  0  0  0
    4.0838   -0.1655    1.2106 O   0  0  0  0  0  0  0  0  0  0  0  0
    4.4906   -1.0267    0.0686 C   0  0  2  0  0  0  0  0  0  0  0  0
    3.6451   -1.1191   -1.2178 C   0  0  0  0  0  0  0  0  0  0  0  0
    3.5803   -2.6155   -1.6541 C   0  0  1  0  0  0  0  0  0  0  0  0
    4.2387   -2.7972   -3.0365 C   0  0  0  0  0  0  0  0  0  0  0  0
    4.2732   -3.4800   -0.5561 C   0  0  2  0  0  0  0  0  0  0  0  0
    3.3236   -4.3078    0.5005 C   0  0  0  0  0  0  0  0  0  0  0  0
    2.9188   -3.8809    2.0508 C   0  0  1  0  0  0  0  0  0  0  0  0
    3.7280   -4.2243    3.3856 C   0  0  0  0  0  0  0  0  0  0  0  0
    4.2683   -2.8653    4.0727 C   0  0  2  0  0  0  0  0  0  0  0  0
    5.5374   -3.2560    4.8831 C   0  0  0  0  0  0  0  0  0  0  0  0
    3.3293   -2.3198    5.1893 C   0  0  0  0  0  0  0  0  0  0  0  0
    1.8831   -2.5285    4.8700 C   0  0  0  0  0  0  0  0  0  0  0  0
    1.6444   -2.1603    3.4289 C   0  0  0  0  0  0  0  0  0  0  0  0
    2.7728   -2.4033    2.3209 C   0  0  2  0  0  0  0  0  0  0  0  0
    1.9282   -1.7770    1.2245 C   0  0  0  0  0  0  0  0  0  0  0  0
    4.3162   -1.9612    2.7519 C   0  0  1  0  0  0  0  0  0  0  0  0
    5.8392   -2.2189    2.1618 C   0  0  2  0  0  0  0  0  0  0  0  0
    6.7577   -1.2998    1.2234 C   0  0  0  0  0  0  0  0  0  0  0  0
    6.6368   -2.0218   -0.1560 C   0  0  1  0  0  0  0  0  0  0  0  0
    7.4895   -3.2606   -0.0811 C   0  0  0  0  0  0  0  0  0  0  0  0
    8.4849   -3.4861   -0.7734 O   0  0  0  0  0  0  0  0  0  0  0  0
    6.9760   -3.9229    0.8707 O   0  0  0  0  0  0  0  0  0  0  0  0
    5.7493   -3.3392    1.2649 C   0  0  2  0  0  0  0  0  0  0  0  0
    5.2054   -2.4743    0.1174 C   0  0  1  0  0  0  0  0  0  0  0  0
    2.4806    1.9216    4.0129 H   0  0  0  0  0  0  0  0  0  0  0  0
    3.0486    1.9135    2.3512 H   0  0  0  0  0  0  0  0  0  0  0  0
    4.2102    1.9845    3.6990 H   0  0  0  0  0  0  0  0  0  0  0  0
    5.2355    0.0212    2.9457 H   0  0  0  0  0  0  0  0  0  0  0  0
    5.1726   -0.2796   -0.3445 H   0  0  0  0  0  0  0  0  0  0  0  0
    2.6571   -0.6721   -1.0596 H   0  0  0  0  0  0  0  0  0  0  0  0
    4.0935   -0.5107   -2.0142 H   0  0  0  0  0  0  0  0  0  0  0  0
    2.5349   -2.9147   -1.7651 H   0  0  0  0  0  0  0  0  0  0  0  0
    5.2941   -2.5087   -3.0227 H   0  0  0  0  0  0  0  0  0  0  0  0
    3.7363   -2.1954   -3.7839 H   0  0  0  0  0  0  0  0  0  0  0  0
    4.1816   -3.8365   -3.3533 H   0  0  0  0  0  0  0  0  0  0  0  0
    4.8756   -4.2332   -1.0637 H   0  0  0  0  0  0  0  0  0  0  0  0
    2.3905   -4.4887   -0.0340 H   0  0  0  0  0  0  0  0  0  0  0  0
    3.7532   -5.3161    0.5722 H   0  0  0  0  0  0  0  0  0  0  0  0
    1.9453   -4.3586    2.1844 H   0  0  0  0  0  0  0  0  0  0  0  0
    3.0786   -4.7650    4.0712 H   0  0  0  0  0  0  0  0  0  0  0  0
    4.5135   -4.9657    3.2245 H   0  0  0  0  0  0  0  0  0  0  0  0
    6.0815   -2.3707    5.2238 H   0  0  0  0  0  0  0  0  0  0  0  0
    6.2063   -3.9360    4.3577 H   0  0  0  0  0  0  0  0  0  0  0  0
    5.2851   -3.8077    5.7854 H   0  0  0  0  0  0  0  0  0  0  0  0
    3.4861   -2.8030    6.1469 H   0  0  0  0  0  0  0  0  0  0  0  0
    3.5433   -1.2628    5.3613 H   0  0  0  0  0  0  0  0  0  0  0  0
    1.5864   -3.5631    5.0377 H   0  0  0  0  0  0  0  0  0  0  0  0
    1.2550   -1.9204    5.5139 H   0  0  0  0  0  0  0  0  0  0  0  0
    0.7291   -2.7016    3.1882 H   0  0  0  0  0  0  0  0  0  0  0  0
    1.3503   -1.1132    3.4310 H   0  0  0  0  0  0  0  0  0  0  0  0
    1.9883   -0.6954    1.1372 H   0  0  0  0  0  0  0  0  0  0  0  0
    0.8524   -1.8339    1.3193 H   0  0  0  0  0  0  0  0  0  0  0  0
    2.0670   -2.2855    0.2902 H   0  0  0  0  0  0  0  0  0  0  0  0
    6.5184   -2.4632    2.9027 H   0  0  0  0  0  0  0  0  0  0  0  0
    6.4786   -0.2624    1.2285 H   0  0  0  0  0  0  0  0  0  0  0  0
    7.8108   -1.2410    1.4999 H   0  0  0  0  0  0  0  0  0  0  0  0
    6.8213   -1.4390   -1.0460 H   0  0  0  0  0  0  0  0  0  0  0  0
    5.2454   -4.1936    1.6230 H   0  0  0  0  0  0  0  0  0  0  0  0
  1  2  1  0
  1 29  1  0
  1 30  1  0
  1 31  1  0
  2  3  1  0
  3 20  1  0
  3  4  1  0
  3 32  1  1
  4  5  1  0
 28  5  1  1
  5  6  1  0
  5 33  1  6
  6  7  1  0
  6 34  1  0
  6 35  1  0
  7  8  1  0
  7  9  1  0
  7 36  1  6
  8 37  1  0
  8 38  1  0
  8 39  1  0
  9 28  1  0
  9 10  1  0
  9 40  1  6
 10 11  1  0
 10 41  1  0
 10 42  1  0
 11 18  1  0
 11 12  1  0
 11 43  1  1
 12 13  1  0
 12 44  1  0
 12 45  1  0
 20 13  1  1
 13 14  1  1
 13 15  1  0
 14 46  1  0
 14 47  1  0
 14 48  1  0
 15 16  1  0
 15 49  1  0
 15 50  1  0
 16 17  1  0
 16 51  1  0
 16 52  1  0
 17 18  1  0
 17 53  1  0
 17 54  1  0
 18 19  1  6
 18 20  1  0
 19 55  1  0
 19 56  1  0
 19 57  1  0
 20 21  1  0
 21 27  1  0
 21 22  1  0
 21 58  1  1
 22 23  1  0
 22 59  1  0
 22 60  1  0
 23 28  1  0
 23 24  1  0
 23 61  1  6
 24 25  2  0
 24 26  1  0
 26 27  1  0
 27 28  1  0
 27 62  1  1
M  END
>  <i_m_ct_stereo_status>  (312) 
1

>  <s_m_source_file>  (312) 
/var/tmp/pbs.5076255.sched01/tmpb6g28bo8/1236hu3uqnd.sdf

>  <i_m_source_file_index>  (312) 
12

>  <i_lp_mmshare_version>  (312) 
48012

>  <i_f3d_flags>  (312) 
0

>  <s_epik_input>  (312) 
Tz1DMU9bQ0BIXTJbQ0BIXTNbQ0gyXVtDQEBIXTFbQ0BAXTIoW0NAQEhdKFtDSDJdW0NASF00W0NIM10pT1tDQEhdNU9bQ0gzXSlbQ0BIXTRbQ0gyXVtDQEBIXShbQ0gyXVtDQF02KFtDQF0zNTcpW0NIM10pW0NAQF03KFtDSDNdKVtDSDJdW0NIMl1bQ0gyXTY=

>  <s_epik_cmdline>  (312) 
J2VwaWtfcHl0aG9uJywgJy1waHQnLCAnMi4wJywgJy1waCcsICc3LjAnLCAnLXRuJywgJzgnLCAnLW1hJywgJzIwMCcsICctaW1hZScsICc8aW5maWxlLm1hZT4nLCAnLW9tYWUnLCAnPG91dGZpbGUubWFlPic=

>  <r_lp_tautomer_probability>  (312) 
1

>  <r_epik_Ionization_Penalty>  (312) 
1.28401e-12

>  <r_epik_Ionization_Penalty_Charging>  (312) 
0

>  <r_epik_Ionization_Penalty_Neutral>  (312) 
1.28401e-12

>  <r_epik_State_Penalty>  (312) 
-0

>  <r_epik_Charging_Adjusted_Penalty>  (312) 
0

>  <i_epik_Tot_Q>  (312) 
0

>  <i_epik_Tot_abs_Q>  (312) 
0

>  <s_epik_Chemistry_Notes>  (312) 
This compound has an ester and may undergo hydrolysis at high or low pH. This compound contains an acetal/aminal-like group ( X-CH(R)-Y where X, Y are N, S, or O) that may be acid/base labile, releasing an aldehyde.

>  <s_lp_Force_Field>  (312) 
OPLS3e

>  <r_lp_Energy>  (312) 
279.481

>  <b_lp_Chiralities_Consistent>  (312) 
1

>  <s_lp_Variant>  (312) 
95:0-1

>  <s_i_glide_gridfile>  (312) 
pfpi4k_grid

>  <i_i_glide_lignum>  (312) 
12

>  <i_i_glide_rotatable_bonds>  (312) 
1

>  <r_i_docking_score>  (312) 
-2.1075

>  <r_i_glide_ligand_efficiency>  (312) 
-0.0752679

>  <r_i_glide_ligand_efficiency_sa>  (312) 
-0.228558

>  <r_i_glide_ligand_efficiency_ln>  (312) 
-0.486473

>  <r_i_glide_gscore>  (312) 
-2.1075

>  <r_i_glide_lipo>  (312) 
-0.361074

>  <r_i_glide_hbond>  (312) 
0

>  <r_i_glide_metal>  (312) 
-0

>  <r_i_glide_rewards>  (312) 
-1.09612

>  <r_i_glide_evdw>  (312) 
-12.8538

>  <r_i_glide_ecoul>  (312) 
-0.0508119

>  <r_i_glide_erotb>  (312) 
0

>  <r_i_glide_esite>  (312) 
0

>  <r_i_glide_emodel>  (312) 
-13.9988

>  <r_i_glide_energy>  (312) 
-12.9046

>  <r_i_glide_einternal>  (312) 
0.000918731

>  <r_i_glide_intrahb_reward>  (312) 
-0

>  <i_i_glide_confnum>  (312) 
2

>  <i_i_glide_posenum>  (312) 
35

>  <r_i_glide_eff_state_penalty>  (312) 
0

>  <ligand_id>  (312) 
95

>  <original_smiles>  (312) 
COC1OC2CC(C)C3CC4CC5(C)CCCC4(C)C15C1CC4C(=O)OC1C243

>  <smiles>  (312) 
[H]C([H])([H])OC1([H])OC2([H])C([H])([H])C([H])(C([H])([H])[H])C3([H])C([H])([H])C4([H])C([H])([H])C5(C([H])([H])[H])C([H])([H])C([H])([H])C([H])([H])C4(C([H])([H])[H])C15C1([H])C([H])([H])C4([H])C(=O)OC1([H])C243

$$$$
95:0:2
     RDKit          3D

 62 68  0  0  1  0  0  0  0  0999 V2000
    1.0596   -3.8022    5.0631 C   0  0  0  0  0  0  0  0  0  0  0  0
    2.0274   -4.6916    4.5293 O   0  0  0  0  0  0  0  0  0  0  0  0
    3.0315   -4.0813    3.8018 C   0  0  2  0  0  0  0  0  0  0  0  0
    2.4943   -3.4417    2.6316 O   0  0  0  0  0  0  0  0  0  0  0  0
    3.2407   -3.1420    1.3886 C   0  0  2  0  0  0  0  0  0  0  0  0
    2.5197   -3.0893    0.0343 C   0  0  0  0  0  0  0  0  0  0  0  0
    3.3540   -3.8479   -1.0040 C   0  0  1  0  0  0  0  0  0  0  0  0
    3.7707   -2.9212   -2.1583 C   0  0  0  0  0  0  0  0  0  0  0  0
    4.5605   -4.5048   -0.2819 C   0  0  2  0  0  0  0  0  0  0  0  0
    4.4897   -6.1070    0.0549 C   0  0  0  0  0  0  0  0  0  0  0  0
    4.1209   -6.8325    1.4795 C   0  0  1  0  0  0  0  0  0  0  0  0
    5.1247   -7.1786    2.6672 C   0  0  0  0  0  0  0  0  0  0  0  0
    4.7643   -6.3295    3.9860 C   0  0  2  0  0  0  0  0  0  0  0  0
    6.0828   -6.1643    4.8025 C   0  0  0  0  0  0  0  0  0  0  0  0
    3.8501   -7.0822    4.9845 C   0  0  0  0  0  0  0  0  0  0  0  0
    2.8459   -7.9471    4.2815 C   0  0  0  0  0  0  0  0  0  0  0  0
    2.2275   -7.1826    3.1341 C   0  0  0  0  0  0  0  0  0  0  0  0
    3.0855   -6.1156    2.3016 C   0  0  2  0  0  0  0  0  0  0  0  0
    1.8671   -5.7636    1.3785 C   0  0  0  0  0  0  0  0  0  0  0  0
    4.0326   -5.1010    3.2492 C   0  0  1  0  0  0  0  0  0  0  0  0
    5.3048   -4.0528    3.0002 C   0  0  2  0  0  0  0  0  0  0  0  0
    5.3226   -2.4749    2.7916 C   0  0  0  0  0  0  0  0  0  0  0  0
    5.4588   -2.3268    1.2317 C   0  0  1  0  0  0  0  0  0  0  0  0
    6.8874   -2.5948    0.8647 C   0  0  0  0  0  0  0  0  0  0  0  0
    7.6577   -1.8075    0.3108 O   0  0  0  0  0  0  0  0  0  0  0  0
    7.0827   -3.8031    1.2806 O   0  0  0  0  0  0  0  0  0  0  0  0
    5.8358   -4.3687    1.6920 C   0  0  2  0  0  0  0  0  0  0  0  0
    4.7044   -3.6207    0.9593 C   0  0  1  0  0  0  0  0  0  0  0  0
    0.3201   -4.3725    5.6355 H   0  0  0  0  0  0  0  0  0  0  0  0
    0.5327   -3.2688    4.2675 H   0  0  0  0  0  0  0  0  0  0  0  0
    1.5240   -3.0756    5.7339 H   0  0  0  0  0  0  0  0  0  0  0  0
    3.4899   -3.3713    4.4776 H   0  0  0  0  0  0  0  0  0  0  0  0
    3.2227   -2.0633    1.5519 H   0  0  0  0  0  0  0  0  0  0  0  0
    1.5359   -3.5185    0.0425 H   0  0  0  0  0  0  0  0  0  0  0  0
    2.4335   -2.0555   -0.2755 H   0  0  0  0  0  0  0  0  0  0  0  0
    2.6869   -4.5894   -1.4192 H   0  0  0  0  0  0  0  0  0  0  0  0
    4.3792   -2.0790   -1.8130 H   0  0  0  0  0  0  0  0  0  0  0  0
    2.8869   -2.5050   -2.6451 H   0  0  0  0  0  0  0  0  0  0  0  0
    4.3372   -3.4637   -2.9172 H   0  0  0  0  0  0  0  0  0  0  0  0
    5.4362   -4.3794   -0.9211 H   0  0  0  0  0  0  0  0  0  0  0  0
    3.8308   -6.5449   -0.6964 H   0  0  0  0  0  0  0  0  0  0  0  0
    5.4580   -6.5136   -0.2227 H   0  0  0  0  0  0  0  0  0  0  0  0
    3.7145   -7.7937    1.1682 H   0  0  0  0  0  0  0  0  0  0  0  0
    5.0744   -8.2434    2.8889 H   0  0  0  0  0  0  0  0  0  0  0  0
    6.1714   -7.0915    2.3794 H   0  0  0  0  0  0  0  0  0  0  0  0
    5.9781   -5.4115    5.5848 H   0  0  0  0  0  0  0  0  0  0  0  0
    6.9540   -5.9248    4.1929 H   0  0  0  0  0  0  0  0  0  0  0  0
    6.3733   -7.0909    5.2965 H   0  0  0  0  0  0  0  0  0  0  0  0
    4.4059   -7.7513    5.6396 H   0  0  0  0  0  0  0  0  0  0  0  0
    3.3589   -6.3773    5.6526 H   0  0  0  0  0  0  0  0  0  0  0  0
    3.3141   -8.8660    3.9175 H   0  0  0  0  0  0  0  0  0  0  0  0
    2.0736   -8.2714    4.9811 H   0  0  0  0  0  0  0  0  0  0  0  0
    1.8536   -7.9810    2.4926 H   0  0  0  0  0  0  0  0  0  0  0  0
    1.3334   -6.7116    3.5379 H   0  0  0  0  0  0  0  0  0  0  0  0
    1.1501   -5.0834    1.8325 H   0  0  0  0  0  0  0  0  0  0  0  0
    1.2550   -6.6261    1.0989 H   0  0  0  0  0  0  0  0  0  0  0  0
    2.1256   -5.4795    0.3888 H   0  0  0  0  0  0  0  0  0  0  0  0
    6.0758   -4.1291    3.7605 H   0  0  0  0  0  0  0  0  0  0  0  0
    4.5004   -1.9255    3.2398 H   0  0  0  0  0  0  0  0  0  0  0  0
    6.1996   -2.0301    3.2566 H   0  0  0  0  0  0  0  0  0  0  0  0
    5.0742   -1.4025    0.7981 H   0  0  0  0  0  0  0  0  0  0  0  0
    6.0351   -5.3917    1.5121 H   0  0  0  0  0  0  0  0  0  0  0  0
  1  2  1  0
  1 29  1  0
  1 30  1  0
  1 31  1  0
  2  3  1  0
  3 20  1  0
  3  4  1  0
  3 32  1  1
  4  5  1  0
 28  5  1  1
  5  6  1  0
  5 33  1  1
  6  7  1  0
  6 34  1  0
  6 35  1  0
  7  8  1  0
  7  9  1  0
  7 36  1  6
  8 37  1  0
  8 38  1  0
  8 39  1  0
  9 28  1  0
  9 10  1  0
  9 40  1  6
 10 11  1  0
 10 41  1  0
 10 42  1  0
 11 18  1  0
 11 12  1  0
 11 43  1  6
 12 13  1  0
 12 44  1  0
 12 45  1  0
 20 13  1  1
 13 14  1  1
 13 15  1  0
 14 46  1  0
 14 47  1  0
 14 48  1  0
 15 16  1  0
 15 49  1  0
 15 50  1  0
 16 17  1  0
 16 51  1  0
 16 52  1  0
 17 18  1  0
 17 53  1  0
 17 54  1  0
 18 19  1  6
 18 20  1  0
 19 55  1  0
 19 56  1  0
 19 57  1  0
 20 21  1  0
 21 27  1  0
 21 22  1  0
 21 58  1  1
 22 23  1  0
 22 59  1  0
 22 60  1  0
 23 28  1  0
 23 24  1  0
 23 61  1  6
 24 25  2  0
 24 26  1  0
 26 27  1  0
 27 28  1  0
 27 62  1  6
M  END
>  <i_m_ct_stereo_status>  (313) 
1

>  <s_m_source_file>  (313) 
/var/tmp/pbs.5076255.sched01/tmpb6g28bo8/1236hu3uqnd.sdf

>  <i_m_source_file_index>  (313) 
12

>  <i_lp_mmshare_version>  (313) 
48012

>  <i_f3d_flags>  (313) 
0

>  <s_epik_input>  (313) 
Tz1DMU9bQ0BIXTJbQ0BIXTNbQ0gyXVtDQEBIXTFbQ0BAXTIoW0NAQEhdKFtDSDJdW0NASF00W0NIM10pT1tDQEhdNU9bQ0gzXSlbQ0BIXTRbQ0gyXVtDQEBIXShbQ0gyXVtDQF02KFtDQF0zNTcpW0NIM10pW0NAQF03KFtDSDNdKVtDSDJdW0NIMl1bQ0gyXTY=

>  <s_epik_cmdline>  (313) 
J2VwaWtfcHl0aG9uJywgJy1waHQnLCAnMi4wJywgJy1waCcsICc3LjAnLCAnLXRuJywgJzgnLCAnLW1hJywgJzIwMCcsICctaW1hZScsICc8aW5maWxlLm1hZT4nLCAnLW9tYWUnLCAnPG91dGZpbGUubWFlPic=

>  <r_lp_tautomer_probability>  (313) 
1

>  <r_epik_Ionization_Penalty>  (313) 
1.28401e-12

>  <r_epik_Ionization_Penalty_Charging>  (313) 
0

>  <r_epik_Ionization_Penalty_Neutral>  (313) 
1.28401e-12

>  <r_epik_State_Penalty>  (313) 
-0

>  <r_epik_Charging_Adjusted_Penalty>  (313) 
0

>  <i_epik_Tot_Q>  (313) 
0

>  <i_epik_Tot_abs_Q>  (313) 
0

>  <s_epik_Chemistry_Notes>  (313) 
This compound has an ester and may undergo hydrolysis at high or low pH. This compound contains an acetal/aminal-like group ( X-CH(R)-Y where X, Y are N, S, or O) that may be acid/base labile, releasing an aldehyde.

>  <s_lp_Force_Field>  (313) 
OPLS3e

>  <r_lp_Energy>  (313) 
279.481

>  <b_lp_Chiralities_Consistent>  (313) 
1

>  <s_lp_Variant>  (313) 
95:0-1

>  <s_i_glide_gridfile>  (313) 
pfpi4k_grid

>  <i_i_glide_lignum>  (313) 
12

>  <i_i_glide_rotatable_bonds>  (313) 
1

>  <r_i_docking_score>  (313) 
-1.78413

>  <r_i_glide_ligand_efficiency>  (313) 
-0.0637189

>  <r_i_glide_ligand_efficiency_sa>  (313) 
-0.193488

>  <r_i_glide_ligand_efficiency_ln>  (313) 
-0.411829

>  <r_i_glide_gscore>  (313) 
-1.78413

>  <r_i_glide_lipo>  (313) 
-0.344792

>  <r_i_glide_hbond>  (313) 
-0.0325118

>  <r_i_glide_metal>  (313) 
-0

>  <r_i_glide_rewards>  (313) 
-0.875648

>  <r_i_glide_evdw>  (313) 
-8.46769

>  <r_i_glide_ecoul>  (313) 
-0.718612

>  <r_i_glide_erotb>  (313) 
0

>  <r_i_glide_esite>  (313) 
0

>  <r_i_glide_emodel>  (313) 
-10.6339

>  <r_i_glide_energy>  (313) 
-9.1863

>  <r_i_glide_einternal>  (313) 
0.0157415

>  <r_i_glide_intrahb_reward>  (313) 
-0

>  <i_i_glide_confnum>  (313) 
2

>  <i_i_glide_posenum>  (313) 
21

>  <r_i_glide_eff_state_penalty>  (313) 
0

>  <ligand_id>  (313) 
95

>  <original_smiles>  (313) 
COC1OC2CC(C)C3CC4CC5(C)CCCC4(C)C15C1CC4C(=O)OC1C243

>  <smiles>  (313) 
[H]C([H])([H])OC1([H])OC2([H])C([H])([H])C([H])(C([H])([H])[H])C3([H])C([H])([H])C4([H])C([H])([H])C5(C([H])([H])[H])C([H])([H])C([H])([H])C([H])([H])C4(C([H])([H])[H])C15C1([H])C([H])([H])C4([H])C(=O)OC1([H])C243

$$$$
96:0:0
     RDKit          3D

 19 20  0  0  1  0  0  0  0  0999 V2000
    2.2934    0.6441    3.1538 C   0  0  0  0  0  0  0  0  0  0  0  0
    1.2611    1.5577    3.6255 N   0  0  0  0  0  0  0  0  0  0  0  0
    1.2679    2.9060    3.2813 C   0  0  0  0  0  0  0  0  0  0  0  0
    0.3290    3.7859    3.6814 C   0  0  0  0  0  0  0  0  0  0  0  0
   -0.7893    3.3431    4.5293 C   0  0  0  0  0  0  0  0  0  0  0  0
   -1.6684    4.1232    4.8985 O   0  0  0  0  0  0  0  0  0  0  0  0
   -0.7833    1.9038    4.9023 C   0  0  0  0  0  0  0  0  0  0  0  0
   -1.7672    1.3414    5.7289 C   0  0  0  0  0  0  0  0  0  0  0  0
   -1.7470    0.0373    6.0720 N   0  0  0  0  0  0  0  0  0  0  0  0
   -0.7549   -0.7049    5.5728 C   0  0  0  0  0  0  0  0  0  0  0  0
   -0.7497   -2.3724    6.0155 Cl  0  0  0  0  0  0  0  0  0  0  0  0
    0.2260   -0.2742    4.7796 N   0  0  0  0  0  0  0  0  0  0  0  0
    0.2304    1.0336    4.4386 C   0  0  0  0  0  0  0  0  0  0  0  0
    3.0061    1.1862    2.5319 H   0  0  0  0  0  0  0  0  0  0  0  0
    1.8723   -0.1574    2.5440 H   0  0  0  0  0  0  0  0  0  0  0  0
    2.8486    0.2108    3.9873 H   0  0  0  0  0  0  0  0  0  0  0  0
    2.0778    3.2006    2.6239 H   0  0  0  0  0  0  0  0  0  0  0  0
    0.3568    4.8210    3.3660 H   0  0  0  0  0  0  0  0  0  0  0  0
   -2.5808    1.9249    6.1365 H   0  0  0  0  0  0  0  0  0  0  0  0
  1  2  1  0
  1 14  1  0
  1 15  1  0
  1 16  1  0
  2 13  1  0
  2  3  1  0
  3  4  2  0
  3 17  1  0
  4  5  1  0
  4 18  1  0
  5  6  2  0
  5  7  1  0
  7 13  2  0
  7  8  1  0
  8  9  2  0
  8 19  1  0
  9 10  1  0
 10 11  1  0
 10 12  2  0
 12 13  1  0
M  END
>  <i_m_ct_stereo_status>  (314) 
1

>  <s_m_source_file>  (314) 
/var/tmp/pbs.5076255.sched01/tmpb6g28bo8/1236hu3uqnd.sdf

>  <i_m_source_file_index>  (314) 
13

>  <i_lp_mmshare_version>  (314) 
48012

>  <i_f3d_flags>  (314) 
0

>  <s_epik_input>  (314) 
Tz1jMVtjSF1bY0hdbihbQ0gzXSljKGMxMiluYyhDbCluW2NIXTI=

>  <s_epik_cmdline>  (314) 
J2VwaWtfcHl0aG9uJywgJy1waHQnLCAnMi4wJywgJy1waCcsICc3LjAnLCAnLXRuJywgJzgnLCAnLW1hJywgJzIwMCcsICctaW1hZScsICc8aW5maWxlLm1hZT4nLCAnLW9tYWUnLCAnPG91dGZpbGUubWFlPic=

>  <r_lp_tautomer_probability>  (314) 
1

>  <r_epik_Ionization_Penalty>  (314) 
2.46636e-08

>  <r_epik_Ionization_Penalty_Charging>  (314) 
2.46577e-08

>  <r_epik_Ionization_Penalty_Neutral>  (314) 
5.81488e-12

>  <r_epik_State_Penalty>  (314) 
-0

>  <r_epik_Charging_Adjusted_Penalty>  (314) 
2.46577e-08

>  <i_epik_Tot_Q>  (314) 
0

>  <i_epik_Tot_abs_Q>  (314) 
0

>  <s_epik_Chemistry_Notes>  (314) 
This compound contains an electron-poor aromatic ring that is susceptible to covalent hydrolysis at low pH, typically resulting in measured values for nitrogen ring protonation that are around two units higher than predicted values.

>  <s_lp_Force_Field>  (314) 
OPLS3e

>  <r_lp_Energy>  (314) 
14.6441

>  <b_lp_Chiralities_Consistent>  (314) 
1

>  <s_lp_Variant>  (314) 
96:0-1

>  <s_i_glide_gridfile>  (314) 
pfpi4k_grid

>  <i_i_glide_lignum>  (314) 
13

>  <i_i_glide_rotatable_bonds>  (314) 
0

>  <r_i_docking_score>  (314) 
-3.64973

>  <r_i_glide_ligand_efficiency>  (314) 
-0.280748

>  <r_i_glide_ligand_efficiency_sa>  (314) 
-0.660133

>  <r_i_glide_ligand_efficiency_ln>  (314) 
-1.02378

>  <r_i_glide_gscore>  (314) 
-3.64973

>  <r_i_glide_lipo>  (314) 
0

>  <r_i_glide_hbond>  (314) 
-0.155781

>  <r_i_glide_metal>  (314) 
-0

>  <r_i_glide_rewards>  (314) 
-2.07542

>  <r_i_glide_evdw>  (314) 
-13.594

>  <r_i_glide_ecoul>  (314) 
-4.49239

>  <r_i_glide_erotb>  (314) 
0

>  <r_i_glide_esite>  (314) 
-0.0649734

>  <r_i_glide_emodel>  (314) 
-22.9855

>  <r_i_glide_energy>  (314) 
-18.0864

>  <r_i_glide_einternal>  (314) 
0

>  <r_i_glide_intrahb_reward>  (314) 
-0

>  <i_i_glide_confnum>  (314) 
2

>  <i_i_glide_posenum>  (314) 
14

>  <r_i_glide_eff_state_penalty>  (314) 
0

>  <ligand_id>  (314) 
96

>  <original_smiles>  (314) 
Cn1ccc(=O)c2cnc(Cl)nc21

>  <smiles>  (314) 
[H]c1c([H])n(C([H])([H])[H])c2nc(Cl)nc([H])c2c1=O

$$$$
96:0:1
     RDKit          3D

 19 20  0  0  1  0  0  0  0  0999 V2000
   -1.9554    3.8722    3.1625 C   0  0  0  0  0  0  0  0  0  0  0  0
   -1.3367    2.5835    3.4376 N   0  0  0  0  0  0  0  0  0  0  0  0
   -0.6225    1.8949    2.4649 C   0  0  0  0  0  0  0  0  0  0  0  0
   -0.0205    0.7066    2.6535 C   0  0  0  0  0  0  0  0  0  0  0  0
   -0.0914    0.0541    3.9671 C   0  0  0  0  0  0  0  0  0  0  0  0
    0.4166   -1.0415    4.1838 O   0  0  0  0  0  0  0  0  0  0  0  0
   -0.8414    0.8020    5.0076 C   0  0  0  0  0  0  0  0  0  0  0  0
   -0.9881    0.3031    6.3061 C   0  0  0  0  0  0  0  0  0  0  0  0
   -1.7028    0.9564    7.2394 N   0  0  0  0  0  0  0  0  0  0  0  0
   -2.2132    2.1461    6.8991 C   0  0  0  0  0  0  0  0  0  0  0  0
   -3.0655    2.9923    8.1281 Cl  0  0  0  0  0  0  0  0  0  0  0  0
   -2.1258    2.7219    5.6969 N   0  0  0  0  0  0  0  0  0  0  0  0
   -1.4470    2.0501    4.7360 C   0  0  0  0  0  0  0  0  0  0  0  0
   -1.7931    4.1567    2.1234 H   0  0  0  0  0  0  0  0  0  0  0  0
   -1.5243    4.6512    3.7948 H   0  0  0  0  0  0  0  0  0  0  0  0
   -3.0345    3.8301    3.3164 H   0  0  0  0  0  0  0  0  0  0  0  0
   -0.5815    2.3922    1.5107 H   0  0  0  0  0  0  0  0  0  0  0  0
    0.5172    0.2117    1.8510 H   0  0  0  0  0  0  0  0  0  0  0  0
   -0.5631   -0.6435    6.6132 H   0  0  0  0  0  0  0  0  0  0  0  0
  1  2  1  0
  1 14  1  0
  1 15  1  0
  1 16  1  0
  2 13  1  0
  2  3  1  0
  3  4  2  0
  3 17  1  0
  4  5  1  0
  4 18  1  0
  5  6  2  0
  5  7  1  0
  7 13  2  0
  7  8  1  0
  8  9  2  0
  8 19  1  0
  9 10  1  0
 10 11  1  0
 10 12  2  0
 12 13  1  0
M  END
>  <i_m_ct_stereo_status>  (315) 
1

>  <s_m_source_file>  (315) 
/var/tmp/pbs.5076255.sched01/tmpb6g28bo8/1236hu3uqnd.sdf

>  <i_m_source_file_index>  (315) 
13

>  <i_lp_mmshare_version>  (315) 
48012

>  <i_f3d_flags>  (315) 
0

>  <s_epik_input>  (315) 
Tz1jMVtjSF1bY0hdbihbQ0gzXSljKGMxMiluYyhDbCluW2NIXTI=

>  <s_epik_cmdline>  (315) 
J2VwaWtfcHl0aG9uJywgJy1waHQnLCAnMi4wJywgJy1waCcsICc3LjAnLCAnLXRuJywgJzgnLCAnLW1hJywgJzIwMCcsICctaW1hZScsICc8aW5maWxlLm1hZT4nLCAnLW9tYWUnLCAnPG91dGZpbGUubWFlPic=

>  <r_lp_tautomer_probability>  (315) 
1

>  <r_epik_Ionization_Penalty>  (315) 
2.46636e-08

>  <r_epik_Ionization_Penalty_Charging>  (315) 
2.46577e-08

>  <r_epik_Ionization_Penalty_Neutral>  (315) 
5.81488e-12

>  <r_epik_State_Penalty>  (315) 
-0

>  <r_epik_Charging_Adjusted_Penalty>  (315) 
2.46577e-08

>  <i_epik_Tot_Q>  (315) 
0

>  <i_epik_Tot_abs_Q>  (315) 
0

>  <s_epik_Chemistry_Notes>  (315) 
This compound contains an electron-poor aromatic ring that is susceptible to covalent hydrolysis at low pH, typically resulting in measured values for nitrogen ring protonation that are around two units higher than predicted values.

>  <s_lp_Force_Field>  (315) 
OPLS3e

>  <r_lp_Energy>  (315) 
14.6441

>  <b_lp_Chiralities_Consistent>  (315) 
1

>  <s_lp_Variant>  (315) 
96:0-1

>  <s_i_glide_gridfile>  (315) 
pfpi4k_grid

>  <i_i_glide_lignum>  (315) 
13

>  <i_i_glide_rotatable_bonds>  (315) 
0

>  <r_i_docking_score>  (315) 
-3.50178

>  <r_i_glide_ligand_efficiency>  (315) 
-0.269368

>  <r_i_glide_ligand_efficiency_sa>  (315) 
-0.633374

>  <r_i_glide_ligand_efficiency_ln>  (315) 
-0.982282

>  <r_i_glide_gscore>  (315) 
-3.50178

>  <r_i_glide_lipo>  (315) 
-0.100857

>  <r_i_glide_hbond>  (315) 
-0.16

>  <r_i_glide_metal>  (315) 
-0

>  <r_i_glide_rewards>  (315) 
-2.07542

>  <r_i_glide_evdw>  (315) 
-15.9118

>  <r_i_glide_ecoul>  (315) 
-2.04748

>  <r_i_glide_erotb>  (315) 
0

>  <r_i_glide_esite>  (315) 
-0.0627945

>  <r_i_glide_emodel>  (315) 
-22.6498

>  <r_i_glide_energy>  (315) 
-17.9593

>  <r_i_glide_einternal>  (315) 
0

>  <r_i_glide_intrahb_reward>  (315) 
-0

>  <i_i_glide_confnum>  (315) 
1

>  <i_i_glide_posenum>  (315) 
2

>  <r_i_glide_eff_state_penalty>  (315) 
0

>  <ligand_id>  (315) 
96

>  <original_smiles>  (315) 
Cn1ccc(=O)c2cnc(Cl)nc21

>  <smiles>  (315) 
[H]c1c([H])n(C([H])([H])[H])c2nc(Cl)nc([H])c2c1=O

$$$$
96:0:2
     RDKit          3D

 19 20  0  0  1  0  0  0  0  0999 V2000
    1.9918   -1.6820    2.4114 C   0  0  0  0  0  0  0  0  0  0  0  0
    1.1450   -0.5541    2.7705 N   0  0  0  0  0  0  0  0  0  0  0  0
    1.1522    0.6151    2.0304 C   0  0  0  0  0  0  0  0  0  0  0  0
    0.3745    1.6742    2.3026 C   0  0  0  0  0  0  0  0  0  0  0  0
   -0.5548    1.6490    3.4467 C   0  0  0  0  0  0  0  0  0  0  0  0
   -1.2712    2.6044    3.7317 O   0  0  0  0  0  0  0  0  0  0  0  0
   -0.5584    0.3935    4.2270 C   0  0  0  0  0  0  0  0  0  0  0  0
   -1.3902    0.2185    5.3444 C   0  0  0  0  0  0  0  0  0  0  0  0
   -1.3811   -0.9281    6.0491 N   0  0  0  0  0  0  0  0  0  0  0  0
   -0.5548   -1.8901    5.6417 C   0  0  0  0  0  0  0  0  0  0  0  0
   -0.5789   -3.3472    6.5530 Cl  0  0  0  0  0  0  0  0  0  0  0  0
    0.2692   -1.8320    4.5957 N   0  0  0  0  0  0  0  0  0  0  0  0
    0.2851   -0.6858    3.8821 C   0  0  0  0  0  0  0  0  0  0  0  0
    2.5797   -1.4266    1.5313 H   0  0  0  0  0  0  0  0  0  0  0  0
    1.4037   -2.5640    2.1606 H   0  0  0  0  0  0  0  0  0  0  0  0
    2.6885   -1.9193    3.2159 H   0  0  0  0  0  0  0  0  0  0  0  0
    1.8209    0.6118    1.1785 H   0  0  0  0  0  0  0  0  0  0  0  0
    0.4078    2.5395    1.6752 H   0  0  0  0  0  0  0  0  0  0  0  0
   -2.0645    0.9917    5.6909 H   0  0  0  0  0  0  0  0  0  0  0  0
  1  2  1  0
  1 14  1  0
  1 15  1  0
  1 16  1  0
  2 13  1  0
  2  3  1  0
  3  4  2  0
  3 17  1  0
  4  5  1  0
  4 18  1  0
  5  6  2  0
  5  7  1  0
  7 13  2  0
  7  8  1  0
  8  9  2  0
  8 19  1  0
  9 10  1  0
 10 11  1  0
 10 12  2  0
 12 13  1  0
M  END
>  <i_m_ct_stereo_status>  (316) 
1

>  <s_m_source_file>  (316) 
/var/tmp/pbs.5076255.sched01/tmpb6g28bo8/1236hu3uqnd.sdf

>  <i_m_source_file_index>  (316) 
13

>  <i_lp_mmshare_version>  (316) 
48012

>  <i_f3d_flags>  (316) 
0

>  <s_epik_input>  (316) 
Tz1jMVtjSF1bY0hdbihbQ0gzXSljKGMxMiluYyhDbCluW2NIXTI=

>  <s_epik_cmdline>  (316) 
J2VwaWtfcHl0aG9uJywgJy1waHQnLCAnMi4wJywgJy1waCcsICc3LjAnLCAnLXRuJywgJzgnLCAnLW1hJywgJzIwMCcsICctaW1hZScsICc8aW5maWxlLm1hZT4nLCAnLW9tYWUnLCAnPG91dGZpbGUubWFlPic=

>  <r_lp_tautomer_probability>  (316) 
1

>  <r_epik_Ionization_Penalty>  (316) 
2.46636e-08

>  <r_epik_Ionization_Penalty_Charging>  (316) 
2.46577e-08

>  <r_epik_Ionization_Penalty_Neutral>  (316) 
5.81488e-12

>  <r_epik_State_Penalty>  (316) 
-0

>  <r_epik_Charging_Adjusted_Penalty>  (316) 
2.46577e-08

>  <i_epik_Tot_Q>  (316) 
0

>  <i_epik_Tot_abs_Q>  (316) 
0

>  <s_epik_Chemistry_Notes>  (316) 
This compound contains an electron-poor aromatic ring that is susceptible to covalent hydrolysis at low pH, typically resulting in measured values for nitrogen ring protonation that are around two units higher than predicted values.

>  <s_lp_Force_Field>  (316) 
OPLS3e

>  <r_lp_Energy>  (316) 
14.6441

>  <b_lp_Chiralities_Consistent>  (316) 
1

>  <s_lp_Variant>  (316) 
96:0-1

>  <s_i_glide_gridfile>  (316) 
pfpi4k_grid

>  <i_i_glide_lignum>  (316) 
13

>  <i_i_glide_rotatable_bonds>  (316) 
0

>  <r_i_docking_score>  (316) 
-3.48

>  <r_i_glide_ligand_efficiency>  (316) 
-0.267692

>  <r_i_glide_ligand_efficiency_sa>  (316) 
-0.629434

>  <r_i_glide_ligand_efficiency_ln>  (316) 
-0.97617

>  <r_i_glide_gscore>  (316) 
-3.48

>  <r_i_glide_lipo>  (316) 
0

>  <r_i_glide_hbond>  (316) 
-0.0562976

>  <r_i_glide_metal>  (316) 
-0

>  <r_i_glide_rewards>  (316) 
-2.07542

>  <r_i_glide_evdw>  (316) 
-15.2218

>  <r_i_glide_ecoul>  (316) 
-3.40923

>  <r_i_glide_erotb>  (316) 
0

>  <r_i_glide_esite>  (316) 
-0.0758058

>  <r_i_glide_emodel>  (316) 
-23.2968

>  <r_i_glide_energy>  (316) 
-18.631

>  <r_i_glide_einternal>  (316) 
0

>  <r_i_glide_intrahb_reward>  (316) 
-0

>  <i_i_glide_confnum>  (316) 
2

>  <i_i_glide_posenum>  (316) 
34

>  <r_i_glide_eff_state_penalty>  (316) 
0

>  <ligand_id>  (316) 
96

>  <original_smiles>  (316) 
Cn1ccc(=O)c2cnc(Cl)nc21

>  <smiles>  (316) 
[H]c1c([H])n(C([H])([H])[H])c2nc(Cl)nc([H])c2c1=O

$$$$
98:0:0
     RDKit          3D

 61 65  0  0  1  0  0  0  0  0999 V2000
    8.1223   -8.1047    3.2385 C   0  0  0  0  0  0  0  0  0  0  0  0
    6.9595   -7.8282    2.3240 C   0  0  0  0  0  0  0  0  0  0  0  0
    6.5844   -6.4958    2.0699 C   0  0  0  0  0  0  0  0  0  0  0  0
    5.4686   -6.1824    1.2534 C   0  0  0  0  0  0  0  0  0  0  0  0
    4.7309   -7.2074    0.6629 C   0  0  0  0  0  0  0  0  0  0  0  0
    5.1923   -8.5537    0.8137 C   0  0  0  0  0  0  0  0  0  0  0  0
    6.2135   -8.8761    1.7275 C   0  0  0  0  0  0  0  0  0  0  0  0
    6.4203  -10.3509    2.0967 C   0  0  0  0  0  0  0  0  0  0  0  0
    5.3324  -10.9440    3.0519 C   0  0  0  0  0  0  0  0  0  0  0  0
    3.9232  -10.8419    2.5779 N   0  0  1  0  0  0  0  0  0  0  0  0
    2.9951  -11.8788    3.1112 C   0  0  0  0  0  0  0  0  0  0  0  0
    1.5531  -11.3395    3.2920 C   0  0  0  0  0  0  0  0  0  0  0  0
    1.5442  -10.1187    4.2796 C   0  0  1  0  0  0  0  0  0  0  0  0
    2.6715   -9.0933    3.9265 C   0  0  1  0  0  0  0  0  0  0  0  0
    3.3194   -9.4991    2.6599 C   0  0  0  0  0  0  0  0  0  0  0  0
    2.4808   -7.5339    4.0153 C   0  0  1  0  0  0  0  0  0  0  0  0
    1.7366   -6.8224    2.8583 C   0  0  0  0  0  0  0  0  0  0  0  0
    0.2059   -6.9303    2.9486 C   0  0  1  0  0  0  0  0  0  0  0  0
   -0.3275   -8.2798    2.4262 C   0  0  0  0  0  0  0  0  0  0  0  0
   -0.7610   -9.3093    3.4883 C   0  0  0  0  0  0  0  0  0  0  0  0
    0.1921   -9.5573    4.5917 N   0  0  2  0  0  0  0  0  0  0  0  0
    0.0777   -8.6361    5.7567 C   0  0  0  0  0  0  0  0  0  0  0  0
    0.4797   -7.1669    5.5027 C   0  0  2  0  0  0  0  0  0  0  0  0
   -0.2909   -6.4965    4.3430 C   0  0  0  0  0  0  0  0  0  0  0  0
    1.9943   -7.0238    5.3639 C   0  0  0  0  0  0  0  0  0  0  0  0
    8.5248   -7.1860    3.6745 H   0  0  0  0  0  0  0  0  0  0  0  0
    8.9188   -8.5637    2.6559 H   0  0  0  0  0  0  0  0  0  0  0  0
    7.8651   -8.7791    4.0632 H   0  0  0  0  0  0  0  0  0  0  0  0
    7.1678   -5.6804    2.4774 H   0  0  0  0  0  0  0  0  0  0  0  0
    5.1869   -5.1725    1.0828 H   0  0  0  0  0  0  0  0  0  0  0  0
    3.8296   -7.0162    0.1378 H   0  0  0  0  0  0  0  0  0  0  0  0
    4.5373   -9.3406    0.4338 H   0  0  0  0  0  0  0  0  0  0  0  0
    6.4416  -10.9187    1.1693 H   0  0  0  0  0  0  0  0  0  0  0  0
    7.3996  -10.4697    2.5356 H   0  0  0  0  0  0  0  0  0  0  0  0
    5.5728  -11.9999    3.2390 H   0  0  0  0  0  0  0  0  0  0  0  0
    5.3793  -10.4661    4.0404 H   0  0  0  0  0  0  0  0  0  0  0  0
    3.0100  -12.7547    2.4454 H   0  0  0  0  0  0  0  0  0  0  0  0
    3.3882  -12.2407    4.0702 H   0  0  0  0  0  0  0  0  0  0  0  0
    1.1779  -11.0383    2.3250 H   0  0  0  0  0  0  0  0  0  0  0  0
    0.8994  -12.1123    3.6451 H   0  0  0  0  0  0  0  0  0  0  0  0
    1.8721  -10.5467    5.2270 H   0  0  0  0  0  0  0  0  0  0  0  0
    3.4469   -9.2807    4.6767 H   0  0  0  0  0  0  0  0  0  0  0  0
    4.0919   -8.7490    2.7479 H   0  0  0  0  0  0  0  0  0  0  0  0
    2.7244   -9.3024    1.7490 H   0  0  0  0  0  0  0  0  0  0  0  0
    3.4976   -7.1272    3.9396 H   0  0  0  0  0  0  0  0  0  0  0  0
    1.9896   -5.7586    2.9112 H   0  0  0  0  0  0  0  0  0  0  0  0
    2.0979   -7.1231    1.8741 H   0  0  0  0  0  0  0  0  0  0  0  0
   -0.1742   -6.1894    2.2457 H   0  0  0  0  0  0  0  0  0  0  0  0
   -1.1883   -8.0878    1.7957 H   0  0  0  0  0  0  0  0  0  0  0  0
    0.3913   -8.7368    1.7562 H   0  0  0  0  0  0  0  0  0  0  0  0
   -1.7239   -9.0275    3.9147 H   0  0  0  0  0  0  0  0  0  0  0  0
   -0.9677  -10.2566    2.9898 H   0  0  0  0  0  0  0  0  0  0  0  0
   -0.9629   -8.6670    6.0706 H   0  0  0  0  0  0  0  0  0  0  0  0
    0.6421   -9.0404    6.5995 H   0  0  0  0  0  0  0  0  0  0  0  0
    0.2143   -6.6174    6.3996 H   0  0  0  0  0  0  0  0  0  0  0  0
   -0.1547   -5.4138    4.4266 H   0  0  0  0  0  0  0  0  0  0  0  0
   -1.3649   -6.6536    4.4415 H   0  0  0  0  0  0  0  0  0  0  0  0
    2.5214   -7.5284    6.1725 H   0  0  0  0  0  0  0  0  0  0  0  0
    2.2659   -5.9691    5.4573 H   0  0  0  0  0  0  0  0  0  0  0  0
   -0.2486  -10.3861    5.0098 H   0  0  0  0  0  0  0  0  0  0  0  0
    4.0220  -11.1201    1.5542 H   0  0  0  0  0  0  0  0  0  0  0  0
  1  2  1  0
  1 26  1  0
  1 27  1  0
  1 28  1  0
  2  7  2  0
  2  3  1  0
  3  4  2  0
  3 29  1  0
  4  5  1  0
  4 30  1  0
  5  6  2  0
  5 31  1  0
  6  7  1  0
  6 32  1  0
  7  8  1  0
  8  9  1  0
  8 33  1  0
  8 34  1  0
  9 10  1  0
  9 35  1  0
  9 36  1  0
 10 15  1  0
 10 11  1  0
 10 61  1  6
 11 12  1  0
 11 37  1  0
 11 38  1  0
 12 13  1  0
 12 39  1  0
 12 40  1  0
 13 21  1  0
 13 14  1  0
 13 41  1  1
 14 15  1  0
 14 16  1  0
 14 42  1  1
 15 43  1  0
 15 44  1  0
 16 25  1  0
 16 17  1  0
 16 45  1  6
 17 18  1  0
 17 46  1  0
 17 47  1  0
 18 24  1  0
 18 19  1  0
 18 48  1  6
 19 20  1  0
 19 49  1  0
 19 50  1  0
 20 21  1  0
 20 51  1  0
 20 52  1  0
 21 22  1  0
 21 60  1  1
 22 23  1  0
 22 53  1  0
 22 54  1  0
 23 24  1  0
 23 25  1  0
 23 55  1  1
 24 56  1  0
 24 57  1  0
 25 58  1  0
 25 59  1  0
M  CHG  2  10   1  21   1
M  END
>  <i_m_ct_stereo_status>  (317) 
1

>  <s_m_source_file>  (317) 
/var/tmp/pbs.5076255.sched01/tmpb6g28bo8/1236hu3uqnd.sdf

>  <i_m_source_file_index>  (317) 
15

>  <i_lp_mmshare_version>  (317) 
48012

>  <i_f3d_flags>  (317) 
0

>  <s_epik_input>  (317) 
W0NIM11jMVtjSF1bY0hdW2NIXVtjSF1jMVtDSDJdW0NIMl1OKFtDSDJdW0NIMl0yKVtDSDJdW0NASF0oW0NASF0yMylbQ0BIXTRbQ0gyXVtDQEhdNVtDSDJdW0NIMl1OM1tDSDJdW0NASF0oW0NIMl01KVtDSDJdNA==

>  <s_epik_cmdline>  (317) 
J2VwaWtfcHl0aG9uJywgJy1waHQnLCAnMi4wJywgJy1waCcsICc3LjAnLCAnLXRuJywgJzgnLCAnLW1hJywgJzIwMCcsICctaW1hZScsICc8aW5maWxlLm1hZT4nLCAnLW9tYWUnLCAnPG91dGZpbGUubWFlPic=

>  <r_epik_Ionization_Penalty>  (317) 
0.104508

>  <r_epik_Ionization_Penalty_Charging>  (317) 
0.104508

>  <r_epik_Ionization_Penalty_Neutral>  (317) 
0

>  <r_epik_State_Penalty>  (317) 
0.0914701

>  <r_epik_Charging_Adjusted_Penalty>  (317) 
0.195978

>  <i_epik_Tot_Q>  (317) 
2

>  <i_epik_Tot_abs_Q>  (317) 
2

>  <s_lp_Force_Field>  (317) 
OPLS3e

>  <r_lp_Energy>  (317) 
85.5886

>  <b_lp_Chiralities_Consistent>  (317) 
1

>  <s_lp_Variant>  (317) 
98:0-1

>  <s_i_glide_gridfile>  (317) 
pfpi4k_grid

>  <i_i_glide_lignum>  (317) 
15

>  <i_i_glide_rotatable_bonds>  (317) 
3

>  <r_i_docking_score>  (317) 
-3.72055

>  <r_i_glide_ligand_efficiency>  (317) 
-0.148822

>  <r_i_glide_ligand_efficiency_sa>  (317) 
-0.435159

>  <r_i_glide_ligand_efficiency_ln>  (317) 
-0.881883

>  <r_i_glide_gscore>  (317) 
-3.72055

>  <r_i_glide_lipo>  (317) 
-0.547676

>  <r_i_glide_hbond>  (317) 
-0.33124

>  <r_i_glide_metal>  (317) 
-0

>  <r_i_glide_rewards>  (317) 
-1.08719

>  <r_i_glide_evdw>  (317) 
-19.19

>  <r_i_glide_ecoul>  (317) 
-9.46887

>  <r_i_glide_erotb>  (317) 
0.489916

>  <r_i_glide_esite>  (317) 
-0.168838

>  <r_i_glide_emodel>  (317) 
-33.8375

>  <r_i_glide_energy>  (317) 
-28.6588

>  <r_i_glide_einternal>  (317) 
4.35099

>  <r_i_glide_intrahb_reward>  (317) 
-0

>  <i_i_glide_confnum>  (317) 
5

>  <i_i_glide_posenum>  (317) 
14

>  <r_i_glide_eff_state_penalty>  (317) 
0

>  <ligand_id>  (317) 
98

>  <original_smiles>  (317) 
Cc1ccccc1CCN1CCC2C(C1)C1CC3CCN2CC(C3)C1

>  <smiles>  (317) 
[H]c1c([H])c([H])c(C([H])([H])C([H])([H])[N+]2([H])C([H])([H])C([H])([H])C3([H])C([H])(C4([H])C([H])([H])C5([H])C([H])([H])C([H])(C4([H])[H])C([H])([H])[N+]3([H])C([H])([H])C5([H])[H])C2([H])[H])c(C([H])([H])[H])c1[H]

$$$$
98:0:1
     RDKit          3D

 61 65  0  0  1  0  0  0  0  0999 V2000
    7.2780   -2.2865    0.4246 C   0  0  0  0  0  0  0  0  0  0  0  0
    5.8830   -2.5862   -0.0978 C   0  0  0  0  0  0  0  0  0  0  0  0
    5.1085   -1.5183   -0.6001 C   0  0  0  0  0  0  0  0  0  0  0  0
    3.8131   -1.7471   -1.0956 C   0  0  0  0  0  0  0  0  0  0  0  0
    3.2829   -3.0478   -1.0982 C   0  0  0  0  0  0  0  0  0  0  0  0
    4.0511   -4.1131   -0.6169 C   0  0  0  0  0  0  0  0  0  0  0  0
    5.3472   -3.9052   -0.0914 C   0  0  0  0  0  0  0  0  0  0  0  0
    6.1135   -5.1093    0.4622 C   0  0  0  0  0  0  0  0  0  0  0  0
    5.4902   -5.6986    1.7471 C   0  0  0  0  0  0  0  0  0  0  0  0
    4.1969   -6.3958    1.5008 N   0  0  1  0  0  0  0  0  0  0  0  0
    4.3393   -7.6793    0.7492 C   0  0  0  0  0  0  0  0  0  0  0  0
    3.3075   -8.7497    1.1784 C   0  0  0  0  0  0  0  0  0  0  0  0
    3.4641   -9.0817    2.6849 C   0  0  1  0  0  0  0  0  0  0  0  0
    3.5606   -7.7668    3.5405 C   0  0  1  0  0  0  0  0  0  0  0  0
    3.3191   -6.4873    2.6987 C   0  0  0  0  0  0  0  0  0  0  0  0
    2.8872   -7.6515    4.9351 C   0  0  1  0  0  0  0  0  0  0  0  0
    1.3704   -7.3717    4.9870 C   0  0  0  0  0  0  0  0  0  0  0  0
    0.4835   -8.6102    4.7725 C   0  0  1  0  0  0  0  0  0  0  0  0
    0.3473   -8.9900    3.2848 C   0  0  0  0  0  0  0  0  0  0  0  0
    1.1500  -10.1992    2.7873 C   0  0  0  0  0  0  0  0  0  0  0  0
    2.5909  -10.2106    3.1418 N   0  0  2  0  0  0  0  0  0  0  0  0
    2.9020  -10.8220    4.4617 C   0  0  0  0  0  0  0  0  0  0  0  0
    2.4211  -10.0302    5.6835 C   0  0  2  0  0  0  0  0  0  0  0  0
    0.9025   -9.7553    5.7177 C   0  0  0  0  0  0  0  0  0  0  0  0
    3.2540   -8.7667    5.9198 C   0  0  0  0  0  0  0  0  0  0  0  0
    7.4608   -1.2142    0.4969 H   0  0  0  0  0  0  0  0  0  0  0  0
    8.0377   -2.7118   -0.2313 H   0  0  0  0  0  0  0  0  0  0  0  0
    7.4035   -2.7080    1.4181 H   0  0  0  0  0  0  0  0  0  0  0  0
    5.4957   -0.5090   -0.6011 H   0  0  0  0  0  0  0  0  0  0  0  0
    3.2106   -0.9348   -1.4712 H   0  0  0  0  0  0  0  0  0  0  0  0
    2.2843   -3.2280   -1.4731 H   0  0  0  0  0  0  0  0  0  0  0  0
    3.6231   -5.1011   -0.6720 H   0  0  0  0  0  0  0  0  0  0  0  0
    6.1715   -5.8618   -0.3201 H   0  0  0  0  0  0  0  0  0  0  0  0
    7.1497   -4.8555    0.6788 H   0  0  0  0  0  0  0  0  0  0  0  0
    6.1907   -6.3819    2.2279 H   0  0  0  0  0  0  0  0  0  0  0  0
    5.3485   -4.8686    2.4400 H   0  0  0  0  0  0  0  0  0  0  0  0
    4.2406   -7.4657   -0.3182 H   0  0  0  0  0  0  0  0  0  0  0  0
    5.3449   -8.0874    0.8836 H   0  0  0  0  0  0  0  0  0  0  0  0
    2.2983   -8.3943    0.9554 H   0  0  0  0  0  0  0  0  0  0  0  0
    3.4606   -9.6432    0.5713 H   0  0  0  0  0  0  0  0  0  0  0  0
    4.4589   -9.5285    2.7497 H   0  0  0  0  0  0  0  0  0  0  0  0
    4.6223   -7.7093    3.7859 H   0  0  0  0  0  0  0  0  0  0  0  0
    3.4449   -5.5933    3.3110 H   0  0  0  0  0  0  0  0  0  0  0  0
    2.2850   -6.4605    2.3477 H   0  0  0  0  0  0  0  0  0  0  0  0
    3.3398   -6.7556    5.3626 H   0  0  0  0  0  0  0  0  0  0  0  0
    1.1487   -6.9908    5.9855 H   0  0  0  0  0  0  0  0  0  0  0  0
    1.0826   -6.5663    4.3122 H   0  0  0  0  0  0  0  0  0  0  0  0
   -0.5203   -8.3147    5.0830 H   0  0  0  0  0  0  0  0  0  0  0  0
   -0.7004   -9.2294    3.1006 H   0  0  0  0  0  0  0  0  0  0  0  0
    0.5528   -8.1235    2.6578 H   0  0  0  0  0  0  0  0  0  0  0  0
    0.6882  -11.1212    3.1461 H   0  0  0  0  0  0  0  0  0  0  0  0
    1.0564  -10.2492    1.7022 H   0  0  0  0  0  0  0  0  0  0  0  0
    2.4494  -11.8124    4.4990 H   0  0  0  0  0  0  0  0  0  0  0  0
    3.9762  -10.9942    4.5401 H   0  0  0  0  0  0  0  0  0  0  0  0
    2.6231  -10.6728    6.5394 H   0  0  0  0  0  0  0  0  0  0  0  0
    0.6316   -9.4747    6.7375 H   0  0  0  0  0  0  0  0  0  0  0  0
    0.3335  -10.6653    5.5172 H   0  0  0  0  0  0  0  0  0  0  0  0
    4.3213   -8.9896    5.8843 H   0  0  0  0  0  0  0  0  0  0  0  0
    3.0616   -8.4114    6.9344 H   0  0  0  0  0  0  0  0  0  0  0  0
    2.9166  -10.9481    2.5314 H   0  0  0  0  0  0  0  0  0  0  0  0
    3.6987   -5.7705    0.8829 H   0  0  0  0  0  0  0  0  0  0  0  0
  1  2  1  0
  1 26  1  0
  1 27  1  0
  1 28  1  0
  2  7  2  0
  2  3  1  0
  3  4  2  0
  3 29  1  0
  4  5  1  0
  4 30  1  0
  5  6  2  0
  5 31  1  0
  6  7  1  0
  6 32  1  0
  7  8  1  0
  8  9  1  0
  8 33  1  0
  8 34  1  0
  9 10  1  0
  9 35  1  0
  9 36  1  0
 10 15  1  0
 10 11  1  0
 10 61  1  6
 11 12  1  0
 11 37  1  0
 11 38  1  0
 12 13  1  0
 12 39  1  0
 12 40  1  0
 13 21  1  0
 13 14  1  0
 13 41  1  6
 14 15  1  0
 14 16  1  0
 14 42  1  1
 15 43  1  0
 15 44  1  0
 16 25  1  0
 16 17  1  0
 16 45  1  1
 17 18  1  0
 17 46  1  0
 17 47  1  0
 18 24  1  0
 18 19  1  0
 18 48  1  1
 19 20  1  0
 19 49  1  0
 19 50  1  0
 20 21  1  0
 20 51  1  0
 20 52  1  0
 21 22  1  0
 21 60  1  6
 22 23  1  0
 22 53  1  0
 22 54  1  0
 23 24  1  0
 23 25  1  0
 23 55  1  1
 24 56  1  0
 24 57  1  0
 25 58  1  0
 25 59  1  0
M  CHG  2  10   1  21   1
M  END
>  <i_m_ct_stereo_status>  (318) 
1

>  <s_m_source_file>  (318) 
/var/tmp/pbs.5076255.sched01/tmpb6g28bo8/1236hu3uqnd.sdf

>  <i_m_source_file_index>  (318) 
15

>  <i_lp_mmshare_version>  (318) 
48012

>  <i_f3d_flags>  (318) 
0

>  <s_epik_input>  (318) 
W0NIM11jMVtjSF1bY0hdW2NIXVtjSF1jMVtDSDJdW0NIMl1OKFtDSDJdW0NIMl0yKVtDSDJdW0NASF0oW0NASF0yMylbQ0BIXTRbQ0gyXVtDQEhdNVtDSDJdW0NIMl1OM1tDSDJdW0NASF0oW0NIMl01KVtDSDJdNA==

>  <s_epik_cmdline>  (318) 
J2VwaWtfcHl0aG9uJywgJy1waHQnLCAnMi4wJywgJy1waCcsICc3LjAnLCAnLXRuJywgJzgnLCAnLW1hJywgJzIwMCcsICctaW1hZScsICc8aW5maWxlLm1hZT4nLCAnLW9tYWUnLCAnPG91dGZpbGUubWFlPic=

>  <r_epik_Ionization_Penalty>  (318) 
0.104508

>  <r_epik_Ionization_Penalty_Charging>  (318) 
0.104508

>  <r_epik_Ionization_Penalty_Neutral>  (318) 
0

>  <r_epik_State_Penalty>  (318) 
0.0914701

>  <r_epik_Charging_Adjusted_Penalty>  (318) 
0.195978

>  <i_epik_Tot_Q>  (318) 
2

>  <i_epik_Tot_abs_Q>  (318) 
2

>  <s_lp_Force_Field>  (318) 
OPLS3e

>  <r_lp_Energy>  (318) 
85.5886

>  <b_lp_Chiralities_Consistent>  (318) 
1

>  <s_lp_Variant>  (318) 
98:0-1

>  <s_i_glide_gridfile>  (318) 
pfpi4k_grid

>  <i_i_glide_lignum>  (318) 
15

>  <i_i_glide_rotatable_bonds>  (318) 
3

>  <r_i_docking_score>  (318) 
-3.06597

>  <r_i_glide_ligand_efficiency>  (318) 
-0.122639

>  <r_i_glide_ligand_efficiency_sa>  (318) 
-0.358598

>  <r_i_glide_ligand_efficiency_ln>  (318) 
-0.726727

>  <r_i_glide_gscore>  (318) 
-3.06597

>  <r_i_glide_lipo>  (318) 
-0.59018

>  <r_i_glide_hbond>  (318) 
0

>  <r_i_glide_metal>  (318) 
-0

>  <r_i_glide_rewards>  (318) 
-1.08719

>  <r_i_glide_evdw>  (318) 
-21.2496

>  <r_i_glide_ecoul>  (318) 
-5.40538

>  <r_i_glide_erotb>  (318) 
0.489916

>  <r_i_glide_esite>  (318) 
-0.00522904

>  <r_i_glide_emodel>  (318) 
-34.1759

>  <r_i_glide_energy>  (318) 
-26.655

>  <r_i_glide_einternal>  (318) 
3.76251

>  <r_i_glide_intrahb_reward>  (318) 
-0

>  <i_i_glide_confnum>  (318) 
4

>  <i_i_glide_posenum>  (318) 
2

>  <r_i_glide_eff_state_penalty>  (318) 
0

>  <ligand_id>  (318) 
98

>  <original_smiles>  (318) 
Cc1ccccc1CCN1CCC2C(C1)C1CC3CCN2CC(C3)C1

>  <smiles>  (318) 
[H]c1c([H])c([H])c(C([H])([H])C([H])([H])[N+]2([H])C([H])([H])C([H])([H])C3([H])C([H])(C4([H])C([H])([H])C5([H])C([H])([H])C([H])(C4([H])[H])C([H])([H])[N+]3([H])C([H])([H])C5([H])[H])C2([H])[H])c(C([H])([H])[H])c1[H]

$$$$
98:2:0
     RDKit          3D

 60 64  0  0  1  0  0  0  0  0999 V2000
    0.7789   -8.3706    2.1933 C   0  0  0  0  0  0  0  0  0  0  0  0
    1.4424   -9.4754    3.0217 C   0  0  0  0  0  0  0  0  0  0  0  0
    0.5948  -10.3529    3.7216 C   0  0  0  0  0  0  0  0  0  0  0  0
    1.0948  -11.4250    4.4775 C   0  0  0  0  0  0  0  0  0  0  0  0
    2.4730  -11.6542    4.5335 C   0  0  0  0  0  0  0  0  0  0  0  0
    3.3573  -10.7988    3.8382 C   0  0  0  0  0  0  0  0  0  0  0  0
    2.8581   -9.6990    3.0832 C   0  0  0  0  0  0  0  0  0  0  0  0
    3.8584   -8.8381    2.3329 C   0  0  0  0  0  0  0  0  0  0  0  0
    3.9569   -7.3736    2.8410 C   0  0  0  0  0  0  0  0  0  0  0  0
    4.8829   -6.5141    2.0610 N   0  0  1  0  0  0  0  0  0  0  0  0
    4.6420   -6.5771    0.5847 C   0  0  0  0  0  0  0  0  0  0  0  0
    5.0800   -5.2920   -0.1364 C   0  0  0  0  0  0  0  0  0  0  0  0
    4.1713   -4.1151    0.3021 C   0  0  1  0  0  0  0  0  0  0  0  0
    3.9356   -4.1366    1.8450 C   0  0  1  0  0  0  0  0  0  0  0  0
    4.8975   -5.1177    2.5870 C   0  0  0  0  0  0  0  0  0  0  0  0
    3.7333   -2.8033    2.6189 C   0  0  1  0  0  0  0  0  0  0  0  0
    5.0031   -2.0649    3.0913 C   0  0  0  0  0  0  0  0  0  0  0  0
    5.7026   -1.2378    2.0017 C   0  0  1  0  0  0  0  0  0  0  0  0
    6.5579   -2.0891    1.0469 C   0  0  0  0  0  0  0  0  0  0  0  0
    5.9646   -2.4002   -0.3386 C   0  0  0  0  0  0  0  0  0  0  0  0
    4.5924   -2.8541   -0.3401 N   0  0  0  0  0  0  0  0  0  0  0  0
    3.5829   -1.8057   -0.4315 C   0  0  0  0  0  0  0  0  0  0  0  0
    3.4172   -1.0004    0.8545 C   0  0  2  0  0  0  0  0  0  0  0  0
    4.6991   -0.2853    1.3234 C   0  0  0  0  0  0  0  0  0  0  0  0
    2.7529   -1.8144    1.9655 C   0  0  0  0  0  0  0  0  0  0  0  0
   -0.3170   -8.4650    2.2945 H   0  0  0  0  0  0  0  0  0  0  0  0
    1.0070   -8.5298    1.1417 H   0  0  0  0  0  0  0  0  0  0  0  0
    1.0573   -7.3592    2.4759 H   0  0  0  0  0  0  0  0  0  0  0  0
   -0.4750  -10.2093    3.6913 H   0  0  0  0  0  0  0  0  0  0  0  0
    0.4180  -12.0660    5.0263 H   0  0  0  0  0  0  0  0  0  0  0  0
    2.8548  -12.4864    5.1144 H   0  0  0  0  0  0  0  0  0  0  0  0
    4.4135  -11.0172    3.8724 H   0  0  0  0  0  0  0  0  0  0  0  0
    4.8537   -9.3064    2.4012 H   0  0  0  0  0  0  0  0  0  0  0  0
    3.5962   -8.9218    1.2746 H   0  0  0  0  0  0  0  0  0  0  0  0
    3.0010   -6.8541    2.8104 H   0  0  0  0  0  0  0  0  0  0  0  0
    4.2872   -7.3997    3.8941 H   0  0  0  0  0  0  0  0  0  0  0  0
    5.1621   -7.4464    0.1901 H   0  0  0  0  0  0  0  0  0  0  0  0
    3.5825   -6.7231    0.3700 H   0  0  0  0  0  0  0  0  0  0  0  0
    6.1394   -5.0964    0.0642 H   0  0  0  0  0  0  0  0  0  0  0  0
    4.9965   -5.4391   -1.2134 H   0  0  0  0  0  0  0  0  0  0  0  0
    3.1906   -4.3160   -0.1434 H   0  0  0  0  0  0  0  0  0  0  0  0
    2.9435   -4.5898    1.9311 H   0  0  0  0  0  0  0  0  0  0  0  0
    4.6343   -5.1355    3.6469 H   0  0  0  0  0  0  0  0  0  0  0  0
    5.9214   -4.7623    2.5126 H   0  0  0  0  0  0  0  0  0  0  0  0
    3.2442   -3.1186    3.5401 H   0  0  0  0  0  0  0  0  0  0  0  0
    4.6948   -1.3676    3.8715 H   0  0  0  0  0  0  0  0  0  0  0  0
    5.7059   -2.7416    3.5774 H   0  0  0  0  0  0  0  0  0  0  0  0
    6.4239   -0.6187    2.5331 H   0  0  0  0  0  0  0  0  0  0  0  0
    7.4950   -1.5577    0.8819 H   0  0  0  0  0  0  0  0  0  0  0  0
    6.8289   -3.0183    1.5437 H   0  0  0  0  0  0  0  0  0  0  0  0
    6.0230   -1.5256   -0.9868 H   0  0  0  0  0  0  0  0  0  0  0  0
    6.5981   -3.1292   -0.8437 H   0  0  0  0  0  0  0  0  0  0  0  0
    3.8686   -1.1387   -1.2400 H   0  0  0  0  0  0  0  0  0  0  0  0
    2.6405   -2.2524   -0.7362 H   0  0  0  0  0  0  0  0  0  0  0  0
    2.7078   -0.2178    0.5993 H   0  0  0  0  0  0  0  0  0  0  0  0
    4.4000    0.4739    2.0447 H   0  0  0  0  0  0  0  0  0  0  0  0
    5.1642    0.2516    0.4958 H   0  0  0  0  0  0  0  0  0  0  0  0
    1.8658   -2.3195    1.5903 H   0  0  0  0  0  0  0  0  0  0  0  0
    2.4014   -1.1194    2.7260 H   0  0  0  0  0  0  0  0  0  0  0  0
    5.8307   -6.8766    2.1994 H   0  0  0  0  0  0  0  0  0  0  0  0
  1  2  1  0
  1 26  1  0
  1 27  1  0
  1 28  1  0
  2  7  2  0
  2  3  1  0
  3  4  2  0
  3 29  1  0
  4  5  1  0
  4 30  1  0
  5  6  2  0
  5 31  1  0
  6  7  1  0
  6 32  1  0
  7  8  1  0
  8  9  1  0
  8 33  1  0
  8 34  1  0
  9 10  1  0
  9 35  1  0
  9 36  1  0
 10 15  1  0
 10 11  1  0
 10 60  1  6
 11 12  1  0
 11 37  1  0
 11 38  1  0
 12 13  1  0
 12 39  1  0
 12 40  1  0
 13 21  1  0
 13 14  1  0
 13 41  1  6
 14 15  1  0
 14 16  1  0
 14 42  1  6
 15 43  1  0
 15 44  1  0
 16 25  1  0
 16 17  1  0
 16 45  1  1
 17 18  1  0
 17 46  1  0
 17 47  1  0
 18 24  1  0
 18 19  1  0
 18 48  1  1
 19 20  1  0
 19 49  1  0
 19 50  1  0
 20 21  1  0
 20 51  1  0
 20 52  1  0
 21 22  1  0
 22 23  1  0
 22 53  1  0
 22 54  1  0
 23 24  1  0
 23 25  1  0
 23 55  1  6
 24 56  1  0
 24 57  1  0
 25 58  1  0
 25 59  1  0
M  CHG  1  10   1
M  END
>  <i_m_ct_stereo_status>  (319) 
1

>  <s_m_source_file>  (319) 
/var/tmp/pbs.5076255.sched01/tmpb6g28bo8/1236hu3uqnd.sdf

>  <i_m_source_file_index>  (319) 
17

>  <i_lp_mmshare_version>  (319) 
48012

>  <i_f3d_flags>  (319) 
0

>  <s_epik_input>  (319) 
W0NIM11jMVtjSF1bY0hdW2NIXVtjSF1jMVtDSDJdW0NIMl1OKFtDSDJdW0NIMl0yKVtDSDJdW0NASF0oW0NASF0yMylbQ0BIXTRbQ0gyXVtDQEhdNVtDSDJdW0NIMl1OM1tDSDJdW0NASF0oW0NIMl01KVtDSDJdNA==

>  <s_epik_cmdline>  (319) 
J2VwaWtfcHl0aG9uJywgJy1waHQnLCAnMi4wJywgJy1waCcsICc3LjAnLCAnLXRuJywgJzgnLCAnLW1hJywgJzIwMCcsICctaW1hZScsICc8aW5maWxlLm1hZT4nLCAnLW9tYWUnLCAnPG91dGZpbGUubWFlPic=

>  <r_epik_Ionization_Penalty>  (319) 
2.45557

>  <r_epik_Ionization_Penalty_Charging>  (319) 
0.000872485

>  <r_epik_Ionization_Penalty_Neutral>  (319) 
2.4547

>  <r_epik_State_Penalty>  (319) 
2.70071

>  <r_epik_Charging_Adjusted_Penalty>  (319) 
2.70158

>  <i_epik_Tot_Q>  (319) 
1

>  <i_epik_Tot_abs_Q>  (319) 
1

>  <s_lp_Force_Field>  (319) 
OPLS3e

>  <r_lp_Energy>  (319) 
72.4837

>  <b_lp_Chiralities_Consistent>  (319) 
1

>  <s_lp_Variant>  (319) 
98:0-3

>  <s_i_glide_gridfile>  (319) 
pfpi4k_grid

>  <i_i_glide_lignum>  (319) 
17

>  <i_i_glide_rotatable_bonds>  (319) 
3

>  <r_i_docking_score>  (319) 
-2.68384

>  <r_i_glide_ligand_efficiency>  (319) 
-0.107354

>  <r_i_glide_ligand_efficiency_sa>  (319) 
-0.313904

>  <r_i_glide_ligand_efficiency_ln>  (319) 
-0.63615

>  <r_i_glide_gscore>  (319) 
-2.68384

>  <r_i_glide_lipo>  (319) 
-0.678423

>  <r_i_glide_hbond>  (319) 
0

>  <r_i_glide_metal>  (319) 
-0

>  <r_i_glide_rewards>  (319) 
-1.09406

>  <r_i_glide_evdw>  (319) 
-23.2843

>  <r_i_glide_ecoul>  (319) 
-1.59758

>  <r_i_glide_erotb>  (319) 
0.492497

>  <r_i_glide_esite>  (319) 
0

>  <r_i_glide_emodel>  (319) 
-28.2105

>  <r_i_glide_energy>  (319) 
-24.8819

>  <r_i_glide_einternal>  (319) 
1.13251

>  <r_i_glide_intrahb_reward>  (319) 
-0

>  <i_i_glide_confnum>  (319) 
6

>  <i_i_glide_posenum>  (319) 
20

>  <r_i_glide_eff_state_penalty>  (319) 
0

>  <ligand_id>  (319) 
98

>  <original_smiles>  (319) 
Cc1ccccc1CCN1CCC2C(C1)C1CC3CCN2CC(C3)C1

>  <smiles>  (319) 
[H]c1c([H])c([H])c(C([H])([H])C([H])([H])[N+]2([H])C([H])([H])C([H])([H])C3([H])N4C([H])([H])C([H])([H])C5([H])C([H])([H])C([H])(C4([H])[H])C([H])([H])C([H])(C5([H])[H])C3([H])C2([H])[H])c(C([H])([H])[H])c1[H]

$$$$
98:2:1
     RDKit          3D

 60 64  0  0  1  0  0  0  0  0999 V2000
    8.6647   -5.6837    0.6445 C   0  0  0  0  0  0  0  0  0  0  0  0
    7.9122   -4.3621    0.5037 C   0  0  0  0  0  0  0  0  0  0  0  0
    8.6579   -3.1721    0.4000 C   0  0  0  0  0  0  0  0  0  0  0  0
    8.0336   -1.9275    0.2320 C   0  0  0  0  0  0  0  0  0  0  0  0
    6.6283   -1.8483    0.1562 C   0  0  0  0  0  0  0  0  0  0  0  0
    5.8644   -3.0292    0.2573 C   0  0  0  0  0  0  0  0  0  0  0  0
    6.4869   -4.2948    0.4427 C   0  0  0  0  0  0  0  0  0  0  0  0
    5.6115   -5.5277    0.5335 C   0  0  0  0  0  0  0  0  0  0  0  0
    5.5357   -6.1531    1.9483 C   0  0  0  0  0  0  0  0  0  0  0  0
    4.7540   -7.4059    2.0004 N   0  0  1  0  0  0  0  0  0  0  0  0
    5.1337   -8.2773    3.1502 C   0  0  0  0  0  0  0  0  0  0  0  0
    3.9677   -9.1491    3.6385 C   0  0  0  0  0  0  0  0  0  0  0  0
    2.8120   -8.2448    4.1439 C   0  0  1  0  0  0  0  0  0  0  0  0
    2.5734   -7.0316    3.1886 C   0  0  1  0  0  0  0  0  0  0  0  0
    3.2936   -7.2062    1.8372 C   0  0  0  0  0  0  0  0  0  0  0  0
    1.1628   -6.4209    3.0117 C   0  0  1  0  0  0  0  0  0  0  0  0
    0.2399   -7.0846    1.9639 C   0  0  0  0  0  0  0  0  0  0  0  0
   -0.4481   -8.3678    2.4549 C   0  0  1  0  0  0  0  0  0  0  0  0
    0.4763   -9.6024    2.4332 C   0  0  0  0  0  0  0  0  0  0  0  0
    1.0719  -10.0802    3.7620 C   0  0  0  0  0  0  0  0  0  0  0  0
    1.6529   -9.0348    4.5885 N   0  0  0  0  0  0  0  0  0  0  0  0
    0.7218   -8.3950    5.5136 C   0  0  0  0  0  0  0  0  0  0  0  0
   -0.2733   -7.4440    4.8423 C   0  0  2  0  0  0  0  0  0  0  0  0
   -1.1768   -8.1147    3.7864 C   0  0  0  0  0  0  0  0  0  0  0  0
    0.4024   -6.1727    4.3230 C   0  0  0  0  0  0  0  0  0  0  0  0
    9.7269   -5.4938    0.7892 H   0  0  0  0  0  0  0  0  0  0  0  0
    8.5620   -6.2971   -0.2521 H   0  0  0  0  0  0  0  0  0  0  0  0
    8.3985   -6.2711    1.5106 H   0  0  0  0  0  0  0  0  0  0  0  0
    9.7363   -3.1931    0.4541 H   0  0  0  0  0  0  0  0  0  0  0  0
    8.6371   -1.0341    0.1814 H   0  0  0  0  0  0  0  0  0  0  0  0
    6.1352   -0.8933    0.0271 H   0  0  0  0  0  0  0  0  0  0  0  0
    4.7867   -2.9493    0.1790 H   0  0  0  0  0  0  0  0  0  0  0  0
    4.6225   -5.2108    0.1935 H   0  0  0  0  0  0  0  0  0  0  0  0
    5.9219   -6.2520   -0.2214 H   0  0  0  0  0  0  0  0  0  0  0  0
    6.5150   -6.4133    2.3185 H   0  0  0  0  0  0  0  0  0  0  0  0
    5.1388   -5.4289    2.6686 H   0  0  0  0  0  0  0  0  0  0  0  0
    5.9913   -8.8883    2.8800 H   0  0  0  0  0  0  0  0  0  0  0  0
    5.4621   -7.6562    3.9836 H   0  0  0  0  0  0  0  0  0  0  0  0
    3.6509   -9.8116    2.8261 H   0  0  0  0  0  0  0  0  0  0  0  0
    4.3108   -9.7998    4.4426 H   0  0  0  0  0  0  0  0  0  0  0  0
    3.1856   -7.8076    5.0779 H   0  0  0  0  0  0  0  0  0  0  0  0
    3.1161   -6.2277    3.6910 H   0  0  0  0  0  0  0  0  0  0  0  0
    3.0876   -6.3266    1.2379 H   0  0  0  0  0  0  0  0  0  0  0  0
    2.8956   -8.0532    1.2863 H   0  0  0  0  0  0  0  0  0  0  0  0
    1.3667   -5.4258    2.6128 H   0  0  0  0  0  0  0  0  0  0  0  0
   -0.5478   -6.3728    1.7230 H   0  0  0  0  0  0  0  0  0  0  0  0
    0.7525   -7.2584    1.0179 H   0  0  0  0  0  0  0  0  0  0  0  0
   -1.2141   -8.5868    1.7110 H   0  0  0  0  0  0  0  0  0  0  0  0
   -0.1028  -10.4443    2.0560 H   0  0  0  0  0  0  0  0  0  0  0  0
    1.2708   -9.4555    1.7042 H   0  0  0  0  0  0  0  0  0  0  0  0
    0.3101  -10.6011    4.3431 H   0  0  0  0  0  0  0  0  0  0  0  0
    1.8203  -10.8466    3.5609 H   0  0  0  0  0  0  0  0  0  0  0  0
    0.1772   -9.1828    6.0304 H   0  0  0  0  0  0  0  0  0  0  0  0
    1.2876   -7.8703    6.2818 H   0  0  0  0  0  0  0  0  0  0  0  0
   -0.9301   -7.1096    5.6385 H   0  0  0  0  0  0  0  0  0  0  0  0
   -2.0260   -7.4592    3.5962 H   0  0  0  0  0  0  0  0  0  0  0  0
   -1.6026   -9.0421    4.1708 H   0  0  0  0  0  0  0  0  0  0  0  0
    1.0603   -5.7431    5.0788 H   0  0  0  0  0  0  0  0  0  0  0  0
   -0.3686   -5.4260    4.1401 H   0  0  0  0  0  0  0  0  0  0  0  0
    5.0363   -7.9547    1.1808 H   0  0  0  0  0  0  0  0  0  0  0  0
  1  2  1  0
  1 26  1  0
  1 27  1  0
  1 28  1  0
  2  7  2  0
  2  3  1  0
  3  4  2  0
  3 29  1  0
  4  5  1  0
  4 30  1  0
  5  6  2  0
  5 31  1  0
  6  7  1  0
  6 32  1  0
  7  8  1  0
  8  9  1  0
  8 33  1  0
  8 34  1  0
  9 10  1  0
  9 35  1  0
  9 36  1  0
 10 15  1  0
 10 11  1  0
 10 60  1  6
 11 12  1  0
 11 37  1  0
 11 38  1  0
 12 13  1  0
 12 39  1  0
 12 40  1  0
 13 21  1  0
 13 14  1  0
 13 41  1  1
 14 15  1  0
 14 16  1  0
 14 42  1  1
 15 43  1  0
 15 44  1  0
 16 25  1  0
 16 17  1  0
 16 45  1  6
 17 18  1  0
 17 46  1  0
 17 47  1  0
 18 24  1  0
 18 19  1  0
 18 48  1  6
 19 20  1  0
 19 49  1  0
 19 50  1  0
 20 21  1  0
 20 51  1  0
 20 52  1  0
 21 22  1  0
 22 23  1  0
 22 53  1  0
 22 54  1  0
 23 24  1  0
 23 25  1  0
 23 55  1  1
 24 56  1  0
 24 57  1  0
 25 58  1  0
 25 59  1  0
M  CHG  1  10   1
M  END
>  <i_m_ct_stereo_status>  (320) 
1

>  <s_m_source_file>  (320) 
/var/tmp/pbs.5076255.sched01/tmpb6g28bo8/1236hu3uqnd.sdf

>  <i_m_source_file_index>  (320) 
17

>  <i_lp_mmshare_version>  (320) 
48012

>  <i_f3d_flags>  (320) 
0

>  <s_epik_input>  (320) 
W0NIM11jMVtjSF1bY0hdW2NIXVtjSF1jMVtDSDJdW0NIMl1OKFtDSDJdW0NIMl0yKVtDSDJdW0NASF0oW0NASF0yMylbQ0BIXTRbQ0gyXVtDQEhdNVtDSDJdW0NIMl1OM1tDSDJdW0NASF0oW0NIMl01KVtDSDJdNA==

>  <s_epik_cmdline>  (320) 
J2VwaWtfcHl0aG9uJywgJy1waHQnLCAnMi4wJywgJy1waCcsICc3LjAnLCAnLXRuJywgJzgnLCAnLW1hJywgJzIwMCcsICctaW1hZScsICc8aW5maWxlLm1hZT4nLCAnLW9tYWUnLCAnPG91dGZpbGUubWFlPic=

>  <r_epik_Ionization_Penalty>  (320) 
2.45557

>  <r_epik_Ionization_Penalty_Charging>  (320) 
0.000872485

>  <r_epik_Ionization_Penalty_Neutral>  (320) 
2.4547

>  <r_epik_State_Penalty>  (320) 
2.70071

>  <r_epik_Charging_Adjusted_Penalty>  (320) 
2.70158

>  <i_epik_Tot_Q>  (320) 
1

>  <i_epik_Tot_abs_Q>  (320) 
1

>  <s_lp_Force_Field>  (320) 
OPLS3e

>  <r_lp_Energy>  (320) 
72.4837

>  <b_lp_Chiralities_Consistent>  (320) 
1

>  <s_lp_Variant>  (320) 
98:0-3

>  <s_i_glide_gridfile>  (320) 
pfpi4k_grid

>  <i_i_glide_lignum>  (320) 
17

>  <i_i_glide_rotatable_bonds>  (320) 
3

>  <r_i_docking_score>  (320) 
-2.61327

>  <r_i_glide_ligand_efficiency>  (320) 
-0.104531

>  <r_i_glide_ligand_efficiency_sa>  (320) 
-0.30565

>  <r_i_glide_ligand_efficiency_ln>  (320) 
-0.619423

>  <r_i_glide_gscore>  (320) 
-2.61327

>  <r_i_glide_lipo>  (320) 
-0.746581

>  <r_i_glide_hbond>  (320) 
0

>  <r_i_glide_metal>  (320) 
-0

>  <r_i_glide_rewards>  (320) 
-1.09406

>  <r_i_glide_evdw>  (320) 
-22.9142

>  <r_i_glide_ecoul>  (320) 
-0.796076

>  <r_i_glide_erotb>  (320) 
0.492497

>  <r_i_glide_esite>  (320) 
0

>  <r_i_glide_emodel>  (320) 
-26.6563

>  <r_i_glide_energy>  (320) 
-23.7103

>  <r_i_glide_einternal>  (320) 
1.7091

>  <r_i_glide_intrahb_reward>  (320) 
-0

>  <i_i_glide_confnum>  (320) 
5

>  <i_i_glide_posenum>  (320) 
3

>  <r_i_glide_eff_state_penalty>  (320) 
0

>  <ligand_id>  (320) 
98

>  <original_smiles>  (320) 
Cc1ccccc1CCN1CCC2C(C1)C1CC3CCN2CC(C3)C1

>  <smiles>  (320) 
[H]c1c([H])c([H])c(C([H])([H])C([H])([H])[N+]2([H])C([H])([H])C([H])([H])C3([H])N4C([H])([H])C([H])([H])C5([H])C([H])([H])C([H])(C4([H])[H])C([H])([H])C([H])(C5([H])[H])C3([H])C2([H])[H])c(C([H])([H])[H])c1[H]

$$$$
98:2:2
     RDKit          3D

 60 64  0  0  1  0  0  0  0  0999 V2000
    0.9660   -5.5076    4.8475 C   0  0  0  0  0  0  0  0  0  0  0  0
    0.1925   -6.4724    3.9594 C   0  0  0  0  0  0  0  0  0  0  0  0
   -0.9769   -7.0744    4.4542 C   0  0  0  0  0  0  0  0  0  0  0  0
   -1.7150   -7.9771    3.6637 C   0  0  0  0  0  0  0  0  0  0  0  0
   -1.2989   -8.2605    2.3478 C   0  0  0  0  0  0  0  0  0  0  0  0
   -0.1481   -7.6464    1.8349 C   0  0  0  0  0  0  0  0  0  0  0  0
    0.6120   -6.7682    2.6381 C   0  0  0  0  0  0  0  0  0  0  0  0
    1.8310   -6.1276    2.0397 C   0  0  0  0  0  0  0  0  0  0  0  0
    3.1067   -6.9954    2.1127 C   0  0  0  0  0  0  0  0  0  0  0  0
    4.2767   -6.3434    1.4778 N   0  0  1  0  0  0  0  0  0  0  0  0
    4.2489   -6.3746   -0.0045 C   0  0  0  0  0  0  0  0  0  0  0  0
    5.0339   -5.2200   -0.6421 C   0  0  0  0  0  0  0  0  0  0  0  0
    4.4096   -3.8583   -0.2559 C   0  0  1  0  0  0  0  0  0  0  0  0
    4.0643   -3.8122    1.2615 C   0  0  1  0  0  0  0  0  0  0  0  0
    4.6430   -5.0227    2.0567 C   0  0  0  0  0  0  0  0  0  0  0  0
    4.0909   -2.4973    2.0769 C   0  0  1  0  0  0  0  0  0  0  0  0
    5.4478   -2.0888    2.6627 C   0  0  0  0  0  0  0  0  0  0  0  0
    6.3909   -1.4543    1.6312 C   0  0  1  0  0  0  0  0  0  0  0  0
    7.1032   -2.4732    0.7199 C   0  0  0  0  0  0  0  0  0  0  0  0
    6.5731   -2.6192   -0.7145 C   0  0  0  0  0  0  0  0  0  0  0  0
    5.1291   -2.7282   -0.8498 N   0  0  0  0  0  0  0  0  0  0  0  0
    4.4000   -1.4635   -0.9559 C   0  0  0  0  0  0  0  0  0  0  0  0
    4.3297   -0.6637    0.3455 C   0  0  2  0  0  0  0  0  0  0  0  0
    5.7034   -0.2872    0.9167 C   0  0  0  0  0  0  0  0  0  0  0  0
    3.4144   -1.3044    1.3904 C   0  0  0  0  0  0  0  0  0  0  0  0
    0.5953   -5.5321    5.8701 H   0  0  0  0  0  0  0  0  0  0  0  0
    0.8644   -4.4837    4.4866 H   0  0  0  0  0  0  0  0  0  0  0  0
    2.0245   -5.7655    4.8739 H   0  0  0  0  0  0  0  0  0  0  0  0
   -1.2956   -6.8413    5.4562 H   0  0  0  0  0  0  0  0  0  0  0  0
   -2.5876   -8.4709    4.0649 H   0  0  0  0  0  0  0  0  0  0  0  0
   -1.8570   -8.9550    1.7323 H   0  0  0  0  0  0  0  0  0  0  0  0
    0.1695   -7.8582    0.8208 H   0  0  0  0  0  0  0  0  0  0  0  0
    1.5747   -5.8713    1.0133 H   0  0  0  0  0  0  0  0  0  0  0  0
    1.9763   -5.1898    2.5660 H   0  0  0  0  0  0  0  0  0  0  0  0
    3.3359   -7.2043    3.1547 H   0  0  0  0  0  0  0  0  0  0  0  0
    2.9381   -7.9681    1.6526 H   0  0  0  0  0  0  0  0  0  0  0  0
    4.6004   -7.3435   -0.3544 H   0  0  0  0  0  0  0  0  0  0  0  0
    3.2198   -6.2713   -0.3218 H   0  0  0  0  0  0  0  0  0  0  0  0
    6.0771   -5.2898   -0.3253 H   0  0  0  0  0  0  0  0  0  0  0  0
    5.0183   -5.3277   -1.7279 H   0  0  0  0  0  0  0  0  0  0  0  0
    3.4440   -3.8287   -0.7746 H   0  0  0  0  0  0  0  0  0  0  0  0
    2.9932   -3.9483    1.1868 H   0  0  0  0  0  0  0  0  0  0  0  0
    4.3342   -4.9869    3.0988 H   0  0  0  0  0  0  0  0  0  0  0  0
    5.7285   -4.9630    2.0736 H   0  0  0  0  0  0  0  0  0  0  0  0
    3.4684   -2.7152    2.9452 H   0  0  0  0  0  0  0  0  0  0  0  0
    5.2629   -1.3486    3.4425 H   0  0  0  0  0  0  0  0  0  0  0  0
    5.9152   -2.9262    3.1742 H   0  0  0  0  0  0  0  0  0  0  0  0
    7.1728   -0.9746    2.2055 H   0  0  0  0  0  0  0  0  0  0  0  0
    8.1461   -2.1726    0.6274 H   0  0  0  0  0  0  0  0  0  0  0  0
    7.1349   -3.4460    1.2045 H   0  0  0  0  0  0  0  0  0  0  0  0
    6.8944   -1.7769   -1.3204 H   0  0  0  0  0  0  0  0  0  0  0  0
    7.0449   -3.4780   -1.1900 H   0  0  0  0  0  0  0  0  0  0  0  0
    4.8876   -0.8520   -1.7134 H   0  0  0  0  0  0  0  0  0  0  0  0
    3.3910   -1.6434   -1.3250 H   0  0  0  0  0  0  0  0  0  0  0  0
    3.8603    0.2784    0.0878 H   0  0  0  0  0  0  0  0  0  0  0  0
    5.5482    0.5046    1.6492 H   0  0  0  0  0  0  0  0  0  0  0  0
    6.3519    0.1368    0.1497 H   0  0  0  0  0  0  0  0  0  0  0  0
    2.4632   -1.5900    0.9425 H   0  0  0  0  0  0  0  0  0  0  0  0
    3.1746   -0.5587    2.1492 H   0  0  0  0  0  0  0  0  0  0  0  0
    5.0559   -6.9425    1.7226 H   0  0  0  0  0  0  0  0  0  0  0  0
  1  2  1  0
  1 26  1  0
  1 27  1  0
  1 28  1  0
  2  7  2  0
  2  3  1  0
  3  4  2  0
  3 29  1  0
  4  5  1  0
  4 30  1  0
  5  6  2  0
  5 31  1  0
  6  7  1  0
  6 32  1  0
  7  8  1  0
  8  9  1  0
  8 33  1  0
  8 34  1  0
  9 10  1  0
  9 35  1  0
  9 36  1  0
 10 15  1  0
 10 11  1  0
 10 60  1  1
 11 12  1  0
 11 37  1  0
 11 38  1  0
 12 13  1  0
 12 39  1  0
 12 40  1  0
 13 21  1  0
 13 14  1  0
 13 41  1  6
 14 15  1  0
 14 16  1  0
 14 42  1  6
 15 43  1  0
 15 44  1  0
 16 25  1  0
 16 17  1  0
 16 45  1  1
 17 18  1  0
 17 46  1  0
 17 47  1  0
 18 24  1  0
 18 19  1  0
 18 48  1  1
 19 20  1  0
 19 49  1  0
 19 50  1  0
 20 21  1  0
 20 51  1  0
 20 52  1  0
 21 22  1  0
 22 23  1  0
 22 53  1  0
 22 54  1  0
 23 24  1  0
 23 25  1  0
 23 55  1  6
 24 56  1  0
 24 57  1  0
 25 58  1  0
 25 59  1  0
M  CHG  1  10   1
M  END
>  <i_m_ct_stereo_status>  (321) 
1

>  <s_m_source_file>  (321) 
/var/tmp/pbs.5076255.sched01/tmpb6g28bo8/1236hu3uqnd.sdf

>  <i_m_source_file_index>  (321) 
17

>  <i_lp_mmshare_version>  (321) 
48012

>  <i_f3d_flags>  (321) 
0

>  <s_epik_input>  (321) 
W0NIM11jMVtjSF1bY0hdW2NIXVtjSF1jMVtDSDJdW0NIMl1OKFtDSDJdW0NIMl0yKVtDSDJdW0NASF0oW0NASF0yMylbQ0BIXTRbQ0gyXVtDQEhdNVtDSDJdW0NIMl1OM1tDSDJdW0NASF0oW0NIMl01KVtDSDJdNA==

>  <s_epik_cmdline>  (321) 
J2VwaWtfcHl0aG9uJywgJy1waHQnLCAnMi4wJywgJy1waCcsICc3LjAnLCAnLXRuJywgJzgnLCAnLW1hJywgJzIwMCcsICctaW1hZScsICc8aW5maWxlLm1hZT4nLCAnLW9tYWUnLCAnPG91dGZpbGUubWFlPic=

>  <r_epik_Ionization_Penalty>  (321) 
2.45557

>  <r_epik_Ionization_Penalty_Charging>  (321) 
0.000872485

>  <r_epik_Ionization_Penalty_Neutral>  (321) 
2.4547

>  <r_epik_State_Penalty>  (321) 
2.70071

>  <r_epik_Charging_Adjusted_Penalty>  (321) 
2.70158

>  <i_epik_Tot_Q>  (321) 
1

>  <i_epik_Tot_abs_Q>  (321) 
1

>  <s_lp_Force_Field>  (321) 
OPLS3e

>  <r_lp_Energy>  (321) 
72.4837

>  <b_lp_Chiralities_Consistent>  (321) 
1

>  <s_lp_Variant>  (321) 
98:0-3

>  <s_i_glide_gridfile>  (321) 
pfpi4k_grid

>  <i_i_glide_lignum>  (321) 
17

>  <i_i_glide_rotatable_bonds>  (321) 
3

>  <r_i_docking_score>  (321) 
-2.57736

>  <r_i_glide_ligand_efficiency>  (321) 
-0.103094

>  <r_i_glide_ligand_efficiency_sa>  (321) 
-0.30145

>  <r_i_glide_ligand_efficiency_ln>  (321) 
-0.610911

>  <r_i_glide_gscore>  (321) 
-2.57736

>  <r_i_glide_lipo>  (321) 
-0.549306

>  <r_i_glide_hbond>  (321) 
0

>  <r_i_glide_metal>  (321) 
-0

>  <r_i_glide_rewards>  (321) 
-1.09406

>  <r_i_glide_evdw>  (321) 
-23.0642

>  <r_i_glide_ecoul>  (321) 
-1.82183

>  <r_i_glide_erotb>  (321) 
0.492497

>  <r_i_glide_esite>  (321) 
0

>  <r_i_glide_emodel>  (321) 
-27.5765

>  <r_i_glide_energy>  (321) 
-24.886

>  <r_i_glide_einternal>  (321) 
2.67487

>  <r_i_glide_intrahb_reward>  (321) 
-0

>  <i_i_glide_confnum>  (321) 
6

>  <i_i_glide_posenum>  (321) 
1

>  <r_i_glide_eff_state_penalty>  (321) 
0

>  <ligand_id>  (321) 
98

>  <original_smiles>  (321) 
Cc1ccccc1CCN1CCC2C(C1)C1CC3CCN2CC(C3)C1

>  <smiles>  (321) 
[H]c1c([H])c([H])c(C([H])([H])C([H])([H])[N+]2([H])C([H])([H])C([H])([H])C3([H])N4C([H])([H])C([H])([H])C5([H])C([H])([H])C([H])(C4([H])[H])C([H])([H])C([H])(C5([H])[H])C3([H])C2([H])[H])c(C([H])([H])[H])c1[H]

$$$$
99:0:0
     RDKit          3D

 53 58  0  0  1  0  0  0  0  0999 V2000
    2.1869    0.2976    1.8646 C   0  0  0  0  0  0  0  0  0  0  0  0
    3.1065   -0.1771    2.7280 C   0  0  0  0  0  0  0  0  0  0  0  0
    3.1715    0.4858    4.1199 C   0  0  0  0  0  0  0  0  0  0  0  0
    2.5651   -0.3511    5.2665 C   0  0  0  0  0  0  0  0  0  0  0  0
    3.2367   -1.6926    5.3081 C   0  0  2  0  0  0  0  0  0  0  0  0
    2.7751   -2.5744    4.1724 C   0  0  1  0  0  0  0  0  0  0  0  0
    3.8690   -2.6847    3.1345 C   0  0  1  0  0  0  0  0  0  0  0  0
    3.6750   -3.7140    1.9975 C   0  0  2  0  0  0  0  0  0  0  0  0
    3.1333   -2.9192    0.8602 C   0  0  2  0  0  0  0  0  0  0  0  0
    3.0036   -3.9309   -0.2936 C   0  0  1  0  0  0  0  0  0  0  0  0
    4.1900   -4.2317   -1.0065 O   0  0  0  0  0  0  0  0  0  0  0  0
    2.5460   -5.1855    0.4528 C   0  0  1  0  0  0  0  0  0  0  0  0
    3.4588   -6.1653    1.1466 C   0  0  0  0  0  0  0  0  0  0  0  0
    2.8870   -5.0170    1.9398 C   0  0  1  0  0  0  0  0  0  0  0  0
    1.8110   -5.2769    2.9747 C   0  0  0  0  0  0  0  0  0  0  0  0
    4.0098   -1.7029    0.8522 C   0  0  2  0  0  0  0  0  0  0  0  0
    4.3124   -0.8857   -0.3623 C   0  0  0  0  0  0  0  0  0  0  0  0
    5.2607   -1.8258    0.1578 O   0  0  0  0  0  0  0  0  0  0  0  0
    4.1174   -1.3124    2.3595 C   0  0  1  0  0  0  0  0  0  0  0  0
    5.5509   -0.8130    2.6685 C   0  0  0  0  0  0  0  0  0  0  0  0
    2.6969   -3.0671    5.6098 C   0  0  0  0  0  0  0  0  0  0  0  0
    3.6536   -4.1307    6.1114 C   0  0  0  0  0  0  0  0  0  0  0  0
    1.3522   -3.1969    6.2958 C   0  0  0  0  0  0  0  0  0  0  0  0
    2.0575   -0.0924    0.8678 H   0  0  0  0  0  0  0  0  0  0  0  0
    1.5132    1.0954    2.1428 H   0  0  0  0  0  0  0  0  0  0  0  0
    4.1902    0.7911    4.3552 H   0  0  0  0  0  0  0  0  0  0  0  0
    2.6124    1.4236    4.0800 H   0  0  0  0  0  0  0  0  0  0  0  0
    2.7136    0.1502    6.2230 H   0  0  0  0  0  0  0  0  0  0  0  0
    1.4883   -0.4570    5.1231 H   0  0  0  0  0  0  0  0  0  0  0  0
    4.3080   -1.5961    5.4856 H   0  0  0  0  0  0  0  0  0  0  0  0
    1.8034   -2.3462    3.7346 H   0  0  0  0  0  0  0  0  0  0  0  0
    4.7825   -2.9795    3.6510 H   0  0  0  0  0  0  0  0  0  0  0  0
    4.6939   -3.9997    1.7257 H   0  0  0  0  0  0  0  0  0  0  0  0
    2.1204   -2.5850    1.1066 H   0  0  0  0  0  0  0  0  0  0  0  0
    2.2435   -3.6204   -1.0089 H   0  0  0  0  0  0  0  0  0  0  0  0
    3.9735   -4.8979   -1.6447 H   0  0  0  0  0  0  0  0  0  0  0  0
    1.5529   -5.5507    0.1971 H   0  0  0  0  0  0  0  0  0  0  0  0
    3.0611   -7.1602    1.3289 H   0  0  0  0  0  0  0  0  0  0  0  0
    4.5141   -6.1370    0.8830 H   0  0  0  0  0  0  0  0  0  0  0  0
    1.2291   -6.1578    2.6958 H   0  0  0  0  0  0  0  0  0  0  0  0
    1.1265   -4.4338    3.0536 H   0  0  0  0  0  0  0  0  0  0  0  0
    2.2652   -5.4777    3.9407 H   0  0  0  0  0  0  0  0  0  0  0  0
    3.8233   -1.1691   -1.2905 H   0  0  0  0  0  0  0  0  0  0  0  0
    4.5995    0.1463   -0.2525 H   0  0  0  0  0  0  0  0  0  0  0  0
    6.3119   -1.5359    2.3655 H   0  0  0  0  0  0  0  0  0  0  0  0
    5.7003   -0.6605    3.7374 H   0  0  0  0  0  0  0  0  0  0  0  0
    5.7733    0.1315    2.1672 H   0  0  0  0  0  0  0  0  0  0  0  0
    3.2564   -5.1289    5.9247 H   0  0  0  0  0  0  0  0  0  0  0  0
    3.8191   -4.0142    7.1842 H   0  0  0  0  0  0  0  0  0  0  0  0
    4.6184   -4.0458    5.6104 H   0  0  0  0  0  0  0  0  0  0  0  0
    0.9167   -4.1789    6.1026 H   0  0  0  0  0  0  0  0  0  0  0  0
    0.6633   -2.4375    5.9256 H   0  0  0  0  0  0  0  0  0  0  0  0
    1.4692   -3.0630    7.3724 H   0  0  0  0  0  0  0  0  0  0  0  0
  1  2  2  0
  1 24  1  0
  1 25  1  0
  2 19  1  0
  2  3  1  0
  3  4  1  0
  3 26  1  0
  3 27  1  0
  4  5  1  0
  4 28  1  0
  4 29  1  0
  5 21  1  0
  5  6  1  0
  5 30  1  6
  6  7  1  0
  6 21  1  0
  6 31  1  6
  7 19  1  0
  7  8  1  0
  7 32  1  1
  8 14  1  0
  8  9  1  0
  8 33  1  6
  9 10  1  0
  9 16  1  0
  9 34  1  1
 10 11  1  0
 10 12  1  0
 10 35  1  6
 11 36  1  0
 12 14  1  0
 12 13  1  0
 12 37  1  1
 13 14  1  0
 13 38  1  0
 13 39  1  0
 14 15  1  1
 15 40  1  0
 15 41  1  0
 15 42  1  0
 16 18  1  1
 16 17  1  0
 16 19  1  0
 17 18  1  0
 17 43  1  0
 17 44  1  0
 19 20  1  6
 20 45  1  0
 20 46  1  0
 20 47  1  0
 21 22  1  0
 21 23  1  0
 22 48  1  0
 22 49  1  0
 22 50  1  0
 23 51  1  0
 23 52  1  0
 23 53  1  0
M  END
>  <i_m_ct_stereo_status>  (322) 
1

>  <s_m_source_file>  (322) 
/var/tmp/pbs.5076255.sched01/tmpb6g28bo8/1236hu3uqnd.sdf

>  <i_m_source_file_index>  (322) 
18

>  <i_lp_mmshare_version>  (322) 
48012

>  <i_f3d_flags>  (322) 
0

>  <s_epik_input>  (322) 
W0NIM11bQ0BdMTJDKD1bQ0gyXSlbQ0gyXVtDSDJdW0NAQEhdKEMzKFtDSDNdKVtDSDNdKVtDQEhdM1tDQEhdMVtDQEhdKFtDQEhdNFtDQEBdMjVbQ0gyXU81KVtDQEBdNihbQ0gzXSlbQ0BIXShbQ0gyXTYpW0NAQEhdNFtPSF0=

>  <s_epik_cmdline>  (322) 
J2VwaWtfcHl0aG9uJywgJy1waHQnLCAnMi4wJywgJy1waCcsICc3LjAnLCAnLXRuJywgJzgnLCAnLW1hJywgJzIwMCcsICctaW1hZScsICc8aW5maWxlLm1hZT4nLCAnLW9tYWUnLCAnPG91dGZpbGUubWFlPic=

>  <r_lp_tautomer_probability>  (322) 
1

>  <r_epik_Ionization_Penalty>  (322) 
4.48218e-07

>  <r_epik_Ionization_Penalty_Charging>  (322) 
0

>  <r_epik_Ionization_Penalty_Neutral>  (322) 
4.48218e-07

>  <r_epik_State_Penalty>  (322) 
-0

>  <r_epik_Charging_Adjusted_Penalty>  (322) 
0

>  <i_epik_Tot_Q>  (322) 
0

>  <i_epik_Tot_abs_Q>  (322) 
0

>  <s_lp_Force_Field>  (322) 
OPLS3e

>  <r_lp_Energy>  (322) 
77.3134

>  <b_lp_Chiralities_Consistent>  (322) 
1

>  <s_lp_Variant>  (322) 
99:0-1

>  <s_i_glide_gridfile>  (322) 
pfpi4k_grid

>  <i_i_glide_lignum>  (322) 
18

>  <i_i_glide_rotatable_bonds>  (322) 
1

>  <r_i_docking_score>  (322) 
-3.04014

>  <r_i_glide_ligand_efficiency>  (322) 
-0.13218

>  <r_i_glide_ligand_efficiency_sa>  (322) 
-0.375902

>  <r_i_glide_ligand_efficiency_ln>  (322) 
-0.735133

>  <r_i_glide_gscore>  (322) 
-3.04014

>  <r_i_glide_lipo>  (322) 
-0.14363

>  <r_i_glide_hbond>  (322) 
0

>  <r_i_glide_metal>  (322) 
-0

>  <r_i_glide_rewards>  (322) 
-1.26503

>  <r_i_glide_evdw>  (322) 
-19.4445

>  <r_i_glide_ecoul>  (322) 
-4.39499

>  <r_i_glide_erotb>  (322) 
0

>  <r_i_glide_esite>  (322) 
0

>  <r_i_glide_emodel>  (322) 
-28.3225

>  <r_i_glide_energy>  (322) 
-23.8395

>  <r_i_glide_einternal>  (322) 
0.317265

>  <r_i_glide_intrahb_reward>  (322) 
-0

>  <i_i_glide_confnum>  (322) 
2

>  <i_i_glide_posenum>  (322) 
2

>  <r_i_glide_eff_state_penalty>  (322) 
0

>  <ligand_id>  (322) 
99

>  <original_smiles>  (322) 
C=C1CCC2C(C3C4C(C(O)C5CC54C)C4(CO4)C13C)C2(C)C

>  <smiles>  (322) 
[H]OC1([H])C2([H])C([H])(C3([H])C4([H])C([H])(C([H])([H])C([H])([H])C(=C([H])[H])C3(C([H])([H])[H])C23OC3([H])[H])C4(C([H])([H])[H])C([H])([H])[H])C2(C([H])([H])[H])C([H])([H])C12[H]

$$$$
99:0:1
     RDKit          3D

 53 58  0  0  1  0  0  0  0  0999 V2000
    0.7608   -4.9691    4.2331 C   0  0  0  0  0  0  0  0  0  0  0  0
    1.8841   -4.2694    4.4844 C   0  0  0  0  0  0  0  0  0  0  0  0
    3.2142   -4.8849    3.9971 C   0  0  0  0  0  0  0  0  0  0  0  0
    3.8219   -4.2158    2.7479 C   0  0  0  0  0  0  0  0  0  0  0  0
    4.0048   -2.7500    3.0165 C   0  0  2  0  0  0  0  0  0  0  0  0
    2.6832   -2.0180    2.9902 C   0  0  1  0  0  0  0  0  0  0  0  0
    2.2773   -1.6494    4.4013 C   0  0  1  0  0  0  0  0  0  0  0  0
    1.0607   -0.7104    4.5755 C   0  0  2  0  0  0  0  0  0  0  0  0
   -0.0896   -1.6241    4.8358 C   0  0  2  0  0  0  0  0  0  0  0  0
   -1.2901   -0.6818    5.0701 C   0  0  1  0  0  0  0  0  0  0  0  0
   -1.3823   -0.1223    6.3664 O   0  0  0  0  0  0  0  0  0  0  0  0
   -1.0069    0.4320    4.0597 C   0  0  1  0  0  0  0  0  0  0  0  0
   -0.0916    1.6092    4.2862 C   0  0  0  0  0  0  0  0  0  0  0  0
    0.4762    0.3608    3.6602 C   0  0  1  0  0  0  0  0  0  0  0  0
    0.8421    0.3593    2.1899 C   0  0  0  0  0  0  0  0  0  0  0  0
    0.4686   -2.5955    5.8389 C   0  0  2  0  0  0  0  0  0  0  0  0
   -0.3379   -3.3488    6.8621 C   0  0  0  0  0  0  0  0  0  0  0  0
    0.4185   -2.1794    7.2136 O   0  0  0  0  0  0  0  0  0  0  0  0
    1.8913   -2.9254    5.2815 C   0  0  1  0  0  0  0  0  0  0  0  0
    2.9009   -3.0495    6.4526 C   0  0  0  0  0  0  0  0  0  0  0  0
    3.8417   -1.5506    2.1213 C   0  0  0  0  0  0  0  0  0  0  0  0
    4.5942   -0.2827    2.4629 C   0  0  0  0  0  0  0  0  0  0  0  0
    3.7910   -1.7449    0.6204 C   0  0  0  0  0  0  0  0  0  0  0  0
   -0.2189   -4.6353    4.5362 H   0  0  0  0  0  0  0  0  0  0  0  0
    0.7944   -5.9033    3.6939 H   0  0  0  0  0  0  0  0  0  0  0  0
    3.9388   -4.9259    4.8092 H   0  0  0  0  0  0  0  0  0  0  0  0
    3.0369   -5.9317    3.7410 H   0  0  0  0  0  0  0  0  0  0  0  0
    4.7914   -4.6565    2.5134 H   0  0  0  0  0  0  0  0  0  0  0  0
    3.1774   -4.3772    1.8819 H   0  0  0  0  0  0  0  0  0  0  0  0
    4.6767   -2.5797    3.8561 H   0  0  0  0  0  0  0  0  0  0  0  0
    1.8725   -2.4780    2.4255 H   0  0  0  0  0  0  0  0  0  0  0  0
    3.1213   -1.1363    4.8588 H   0  0  0  0  0  0  0  0  0  0  0  0
    1.2766   -0.1846    5.5084 H   0  0  0  0  0  0  0  0  0  0  0  0
   -0.3001   -2.1880    3.9219 H   0  0  0  0  0  0  0  0  0  0  0  0
   -2.2355   -1.1692    4.8410 H   0  0  0  0  0  0  0  0  0  0  0  0
   -0.6119    0.4130    6.4977 H   0  0  0  0  0  0  0  0  0  0  0  0
   -1.7360    0.5311    3.2567 H   0  0  0  0  0  0  0  0  0  0  0  0
   -0.2437    2.4739    3.6435 H   0  0  0  0  0  0  0  0  0  0  0  0
    0.1897    1.8484    5.3086 H   0  0  0  0  0  0  0  0  0  0  0  0
    0.2115    1.0633    1.6423 H   0  0  0  0  0  0  0  0  0  0  0  0
    0.6950   -0.6247    1.7457 H   0  0  0  0  0  0  0  0  0  0  0  0
    1.8739    0.6734    2.0587 H   0  0  0  0  0  0  0  0  0  0  0  0
   -1.4136   -3.2082    6.8449 H   0  0  0  0  0  0  0  0  0  0  0  0
    0.0302   -4.2796    7.2787 H   0  0  0  0  0  0  0  0  0  0  0  0
    2.9053   -2.1640    7.0934 H   0  0  0  0  0  0  0  0  0  0  0  0
    3.9226   -3.1533    6.0871 H   0  0  0  0  0  0  0  0  0  0  0  0
    2.6886   -3.9169    7.0834 H   0  0  0  0  0  0  0  0  0  0  0  0
    4.1080    0.5753    2.0001 H   0  0  0  0  0  0  0  0  0  0  0  0
    5.6233   -0.3433    2.1029 H   0  0  0  0  0  0  0  0  0  0  0  0
    4.6196   -0.1266    3.5418 H   0  0  0  0  0  0  0  0  0  0  0  0
    3.2872   -0.9037    0.1400 H   0  0  0  0  0  0  0  0  0  0  0  0
    3.2378   -2.6522    0.3747 H   0  0  0  0  0  0  0  0  0  0  0  0
    4.8021   -1.8358    0.2202 H   0  0  0  0  0  0  0  0  0  0  0  0
  1  2  2  0
  1 24  1  0
  1 25  1  0
  2 19  1  0
  2  3  1  0
  3  4  1  0
  3 26  1  0
  3 27  1  0
  4  5  1  0
  4 28  1  0
  4 29  1  0
  5 21  1  0
  5  6  1  0
  5 30  1  1
  6  7  1  0
  6 21  1  0
  6 31  1  6
  7 19  1  0
  7  8  1  0
  7 32  1  1
  8 14  1  0
  8  9  1  0
  8 33  1  1
  9 10  1  0
  9 16  1  0
  9 34  1  6
 10 11  1  0
 10 12  1  0
 10 35  1  6
 11 36  1  0
 12 14  1  0
 12 13  1  0
 12 37  1  6
 13 14  1  0
 13 38  1  0
 13 39  1  0
 14 15  1  6
 15 40  1  0
 15 41  1  0
 15 42  1  0
 16 18  1  1
 16 17  1  0
 16 19  1  0
 17 18  1  0
 17 43  1  0
 17 44  1  0
 19 20  1  1
 20 45  1  0
 20 46  1  0
 20 47  1  0
 21 22  1  0
 21 23  1  0
 22 48  1  0
 22 49  1  0
 22 50  1  0
 23 51  1  0
 23 52  1  0
 23 53  1  0
M  END
>  <i_m_ct_stereo_status>  (323) 
1

>  <s_m_source_file>  (323) 
/var/tmp/pbs.5076255.sched01/tmpb6g28bo8/1236hu3uqnd.sdf

>  <i_m_source_file_index>  (323) 
18

>  <i_lp_mmshare_version>  (323) 
48012

>  <i_f3d_flags>  (323) 
0

>  <s_epik_input>  (323) 
W0NIM11bQ0BdMTJDKD1bQ0gyXSlbQ0gyXVtDSDJdW0NAQEhdKEMzKFtDSDNdKVtDSDNdKVtDQEhdM1tDQEhdMVtDQEhdKFtDQEhdNFtDQEBdMjVbQ0gyXU81KVtDQEBdNihbQ0gzXSlbQ0BIXShbQ0gyXTYpW0NAQEhdNFtPSF0=

>  <s_epik_cmdline>  (323) 
J2VwaWtfcHl0aG9uJywgJy1waHQnLCAnMi4wJywgJy1waCcsICc3LjAnLCAnLXRuJywgJzgnLCAnLW1hJywgJzIwMCcsICctaW1hZScsICc8aW5maWxlLm1hZT4nLCAnLW9tYWUnLCAnPG91dGZpbGUubWFlPic=

>  <r_lp_tautomer_probability>  (323) 
1

>  <r_epik_Ionization_Penalty>  (323) 
4.48218e-07

>  <r_epik_Ionization_Penalty_Charging>  (323) 
0

>  <r_epik_Ionization_Penalty_Neutral>  (323) 
4.48218e-07

>  <r_epik_State_Penalty>  (323) 
-0

>  <r_epik_Charging_Adjusted_Penalty>  (323) 
0

>  <i_epik_Tot_Q>  (323) 
0

>  <i_epik_Tot_abs_Q>  (323) 
0

>  <s_lp_Force_Field>  (323) 
OPLS3e

>  <r_lp_Energy>  (323) 
77.3134

>  <b_lp_Chiralities_Consistent>  (323) 
1

>  <s_lp_Variant>  (323) 
99:0-1

>  <s_i_glide_gridfile>  (323) 
pfpi4k_grid

>  <i_i_glide_lignum>  (323) 
18

>  <i_i_glide_rotatable_bonds>  (323) 
1

>  <r_i_docking_score>  (323) 
-3.02452

>  <r_i_glide_ligand_efficiency>  (323) 
-0.131501

>  <r_i_glide_ligand_efficiency_sa>  (323) 
-0.37397

>  <r_i_glide_ligand_efficiency_ln>  (323) 
-0.731355

>  <r_i_glide_gscore>  (323) 
-3.02452

>  <r_i_glide_lipo>  (323) 
-0.0931512

>  <r_i_glide_hbond>  (323) 
0

>  <r_i_glide_metal>  (323) 
-0

>  <r_i_glide_rewards>  (323) 
-1.26503

>  <r_i_glide_evdw>  (323) 
-19.1257

>  <r_i_glide_ecoul>  (323) 
-4.73363

>  <r_i_glide_erotb>  (323) 
0

>  <r_i_glide_esite>  (323) 
0

>  <r_i_glide_emodel>  (323) 
-28.4416

>  <r_i_glide_energy>  (323) 
-23.8593

>  <r_i_glide_einternal>  (323) 
0.0425208

>  <r_i_glide_intrahb_reward>  (323) 
-0

>  <i_i_glide_confnum>  (323) 
2

>  <i_i_glide_posenum>  (323) 
9

>  <r_i_glide_eff_state_penalty>  (323) 
0

>  <ligand_id>  (323) 
99

>  <original_smiles>  (323) 
C=C1CCC2C(C3C4C(C(O)C5CC54C)C4(CO4)C13C)C2(C)C

>  <smiles>  (323) 
[H]OC1([H])C2([H])C([H])(C3([H])C4([H])C([H])(C([H])([H])C([H])([H])C(=C([H])[H])C3(C([H])([H])[H])C23OC3([H])[H])C4(C([H])([H])[H])C([H])([H])[H])C2(C([H])([H])[H])C([H])([H])C12[H]

$$$$
99:0:2
     RDKit          3D

 53 58  0  0  1  0  0  0  0  0999 V2000
    2.0347   -5.8114    1.4181 C   0  0  0  0  0  0  0  0  0  0  0  0
    3.2684   -5.3514    1.7114 C   0  0  0  0  0  0  0  0  0  0  0  0
    4.4210   -5.7873    0.7821 C   0  0  0  0  0  0  0  0  0  0  0  0
    4.9307   -4.6942   -0.1784 C   0  0  0  0  0  0  0  0  0  0  0  0
    5.3438   -3.4889    0.6137 C   0  0  2  0  0  0  0  0  0  0  0  0
    4.1437   -2.7321    1.1271 C   0  0  1  0  0  0  0  0  0  0  0  0
    3.9972   -2.9657    2.6154 C   0  0  1  0  0  0  0  0  0  0  0  0
    2.9592   -2.1092    3.3747 C   0  0  2  0  0  0  0  0  0  0  0  0
    1.7472   -2.9732    3.4545 C   0  0  2  0  0  0  0  0  0  0  0  0
    0.7239   -2.1458    4.2576 C   0  0  1  0  0  0  0  0  0  0  0  0
    0.8851   -2.1748    5.6610 O   0  0  0  0  0  0  0  0  0  0  0  0
    1.0029   -0.7323    3.7427 C   0  0  1  0  0  0  0  0  0  0  0  0
    2.0884    0.1833    4.2551 C   0  0  0  0  0  0  0  0  0  0  0  0
    2.3950   -0.7202    3.0895 C   0  0  1  0  0  0  0  0  0  0  0  0
    2.5498   -0.1301    1.7031 C   0  0  0  0  0  0  0  0  0  0  0  0
    2.3052   -4.3097    3.8598 C   0  0  2  0  0  0  0  0  0  0  0  0
    1.5611   -5.3618    4.6356 C   0  0  0  0  0  0  0  0  0  0  0  0
    2.5211   -4.4992    5.2646 O   0  0  0  0  0  0  0  0  0  0  0  0
    3.5733   -4.4652    2.9626 C   0  0  1  0  0  0  0  0  0  0  0  0
    4.7157   -5.1306    3.7774 C   0  0  0  0  0  0  0  0  0  0  0  0
    5.2175   -2.0176    0.3197 C   0  0  0  0  0  0  0  0  0  0  0  0
    6.1742   -1.0597    0.9947 C   0  0  0  0  0  0  0  0  0  0  0  0
    4.9261   -1.5666   -1.0971 C   0  0  0  0  0  0  0  0  0  0  0  0
    1.1624   -5.5842    2.0125 H   0  0  0  0  0  0  0  0  0  0  0  0
    1.8663   -6.4309    0.5494 H   0  0  0  0  0  0  0  0  0  0  0  0
    5.2415   -6.2096    1.3597 H   0  0  0  0  0  0  0  0  0  0  0  0
    4.0733   -6.6175    0.1610 H   0  0  0  0  0  0  0  0  0  0  0  0
    5.7932   -5.0584   -0.7332 H   0  0  0  0  0  0  0  0  0  0  0  0
    4.1561   -4.4435   -0.9059 H   0  0  0  0  0  0  0  0  0  0  0  0
    6.1456   -3.7287    1.3119 H   0  0  0  0  0  0  0  0  0  0  0  0
    3.2067   -2.8655    0.5865 H   0  0  0  0  0  0  0  0  0  0  0  0
    4.9604   -2.7451    3.0754 H   0  0  0  0  0  0  0  0  0  0  0  0
    3.3708   -2.0365    4.3835 H   0  0  0  0  0  0  0  0  0  0  0  0
    1.3391   -3.0857    2.4468 H   0  0  0  0  0  0  0  0  0  0  0  0
   -0.2995   -2.4367    4.0299 H   0  0  0  0  0  0  0  0  0  0  0  0
    1.7716   -1.9220    5.8573 H   0  0  0  0  0  0  0  0  0  0  0  0
    0.1877   -0.2656    3.1910 H   0  0  0  0  0  0  0  0  0  0  0  0
    1.9645    1.2460    4.0572 H   0  0  0  0  0  0  0  0  0  0  0  0
    2.5385   -0.0470    5.2171 H   0  0  0  0  0  0  0  0  0  0  0  0
    1.9389    0.7713    1.6100 H   0  0  0  0  0  0  0  0  0  0  0  0
    2.2183   -0.8306    0.9384 H   0  0  0  0  0  0  0  0  0  0  0  0
    3.5826    0.1494    1.5242 H   0  0  0  0  0  0  0  0  0  0  0  0
    0.5268   -5.1539    4.8860 H   0  0  0  0  0  0  0  0  0  0  0  0
    1.8498   -6.4060    4.5653 H   0  0  0  0  0  0  0  0  0  0  0  0
    4.9295   -4.5953    4.7063 H   0  0  0  0  0  0  0  0  0  0  0  0
    5.6529   -5.1360    3.2198 H   0  0  0  0  0  0  0  0  0  0  0  0
    4.4813   -6.1667    4.0373 H   0  0  0  0  0  0  0  0  0  0  0  0
    5.7563   -0.0495    1.0166 H   0  0  0  0  0  0  0  0  0  0  0  0
    7.1267   -1.0313    0.4631 H   0  0  0  0  0  0  0  0  0  0  0  0
    6.3724   -1.3703    2.0203 H   0  0  0  0  0  0  0  0  0  0  0  0
    4.4800   -0.5704   -1.0976 H   0  0  0  0  0  0  0  0  0  0  0  0
    4.2257   -2.2529   -1.5746 H   0  0  0  0  0  0  0  0  0  0  0  0
    5.8453   -1.5510   -1.6833 H   0  0  0  0  0  0  0  0  0  0  0  0
  1  2  2  0
  1 24  1  0
  1 25  1  0
  2 19  1  0
  2  3  1  0
  3  4  1  0
  3 26  1  0
  3 27  1  0
  4  5  1  0
  4 28  1  0
  4 29  1  0
  5 21  1  0
  5  6  1  0
  5 30  1  1
  6  7  1  0
  6 21  1  0
  6 31  1  6
  7 19  1  0
  7  8  1  0
  7 32  1  1
  8 14  1  0
  8  9  1  0
  8 33  1  1
  9 10  1  0
  9 16  1  0
  9 34  1  6
 10 11  1  0
 10 12  1  0
 10 35  1  1
 11 36  1  0
 12 14  1  0
 12 13  1  0
 12 37  1  6
 13 14  1  0
 13 38  1  0
 13 39  1  0
 14 15  1  6
 15 40  1  0
 15 41  1  0
 15 42  1  0
 16 18  1  1
 16 17  1  0
 16 19  1  0
 17 18  1  0
 17 43  1  0
 17 44  1  0
 19 20  1  1
 20 45  1  0
 20 46  1  0
 20 47  1  0
 21 22  1  0
 21 23  1  0
 22 48  1  0
 22 49  1  0
 22 50  1  0
 23 51  1  0
 23 52  1  0
 23 53  1  0
M  END
>  <i_m_ct_stereo_status>  (324) 
1

>  <s_m_source_file>  (324) 
/var/tmp/pbs.5076255.sched01/tmpb6g28bo8/1236hu3uqnd.sdf

>  <i_m_source_file_index>  (324) 
18

>  <i_lp_mmshare_version>  (324) 
48012

>  <i_f3d_flags>  (324) 
0

>  <s_epik_input>  (324) 
W0NIM11bQ0BdMTJDKD1bQ0gyXSlbQ0gyXVtDSDJdW0NAQEhdKEMzKFtDSDNdKVtDSDNdKVtDQEhdM1tDQEhdMVtDQEhdKFtDQEhdNFtDQEBdMjVbQ0gyXU81KVtDQEBdNihbQ0gzXSlbQ0BIXShbQ0gyXTYpW0NAQEhdNFtPSF0=

>  <s_epik_cmdline>  (324) 
J2VwaWtfcHl0aG9uJywgJy1waHQnLCAnMi4wJywgJy1waCcsICc3LjAnLCAnLXRuJywgJzgnLCAnLW1hJywgJzIwMCcsICctaW1hZScsICc8aW5maWxlLm1hZT4nLCAnLW9tYWUnLCAnPG91dGZpbGUubWFlPic=

>  <r_lp_tautomer_probability>  (324) 
1

>  <r_epik_Ionization_Penalty>  (324) 
4.48218e-07

>  <r_epik_Ionization_Penalty_Charging>  (324) 
0

>  <r_epik_Ionization_Penalty_Neutral>  (324) 
4.48218e-07

>  <r_epik_State_Penalty>  (324) 
-0

>  <r_epik_Charging_Adjusted_Penalty>  (324) 
0

>  <i_epik_Tot_Q>  (324) 
0

>  <i_epik_Tot_abs_Q>  (324) 
0

>  <s_lp_Force_Field>  (324) 
OPLS3e

>  <r_lp_Energy>  (324) 
77.3134

>  <b_lp_Chiralities_Consistent>  (324) 
1

>  <s_lp_Variant>  (324) 
99:0-1

>  <s_i_glide_gridfile>  (324) 
pfpi4k_grid

>  <i_i_glide_lignum>  (324) 
18

>  <i_i_glide_rotatable_bonds>  (324) 
1

>  <r_i_docking_score>  (324) 
-2.94753

>  <r_i_glide_ligand_efficiency>  (324) 
-0.128154

>  <r_i_glide_ligand_efficiency_sa>  (324) 
-0.364452

>  <r_i_glide_ligand_efficiency_ln>  (324) 
-0.71274

>  <r_i_glide_gscore>  (324) 
-2.94753

>  <r_i_glide_lipo>  (324) 
-0.357935

>  <r_i_glide_hbond>  (324) 
0

>  <r_i_glide_metal>  (324) 
-0

>  <r_i_glide_rewards>  (324) 
-1.26503

>  <r_i_glide_evdw>  (324) 
-21.9025

>  <r_i_glide_ecoul>  (324) 
-1.52958

>  <r_i_glide_erotb>  (324) 
0

>  <r_i_glide_esite>  (324) 
0

>  <r_i_glide_emodel>  (324) 
-27.9261

>  <r_i_glide_energy>  (324) 
-23.4321

>  <r_i_glide_einternal>  (324) 
0.00248977

>  <r_i_glide_intrahb_reward>  (324) 
-0

>  <i_i_glide_confnum>  (324) 
2

>  <i_i_glide_posenum>  (324) 
10

>  <r_i_glide_eff_state_penalty>  (324) 
0

>  <ligand_id>  (324) 
99

>  <original_smiles>  (324) 
C=C1CCC2C(C3C4C(C(O)C5CC54C)C4(CO4)C13C)C2(C)C

>  <smiles>  (324) 
[H]OC1([H])C2([H])C([H])(C3([H])C4([H])C([H])(C([H])([H])C([H])([H])C(=C([H])[H])C3(C([H])([H])[H])C23OC3([H])[H])C4(C([H])([H])[H])C([H])([H])[H])C2(C([H])([H])[H])C([H])([H])C12[H]

$$$$
100:0:0
     RDKit          3D

 67 71  0  0  1  0  0  0  0  0999 V2000
    1.2041   -1.7059    4.4537 C   0  0  0  0  0  0  0  0  0  0  0  0
    2.6194   -1.7372    5.0370 C   0  0  0  0  0  0  0  0  0  0  0  0
    3.0558   -0.7608    5.6483 O   0  0  0  0  0  0  0  0  0  0  0  0
    3.3498   -2.8640    4.8295 O   0  0  0  0  0  0  0  0  0  0  0  0
    2.8622   -3.9966    4.1012 C   0  0  2  0  0  0  0  0  0  0  0  0
    2.5818   -5.0935    5.1284 C   0  0  0  0  0  0  0  0  0  0  0  0
    1.8725   -6.2859    4.4666 C   0  0  1  0  0  0  0  0  0  0  0  0
    0.3836   -5.9991    4.1594 C   0  0  0  0  0  0  0  0  0  0  0  0
   -0.3851   -7.3064    3.8656 C   0  0  1  0  0  0  0  0  0  0  0  0
   -1.4162   -7.0576    2.9391 O   0  0  0  0  0  0  0  0  0  0  0  0
    0.5349   -8.4304    3.3410 C   0  0  0  0  0  0  0  0  0  0  0  0
    1.7065   -7.9041    2.4800 C   0  0  1  0  0  0  0  0  0  0  0  0
    1.1188   -7.4233    1.2800 O   0  0  0  0  0  0  0  0  0  0  0  0
    2.6435   -6.8665    3.2273 C   0  0  2  0  0  0  0  0  0  0  0  0
    3.8547   -7.6483    3.8073 C   0  0  0  0  0  0  0  0  0  0  0  0
    3.1505   -5.6988    2.2754 C   0  0  2  0  0  0  0  0  0  0  0  0
    3.9515   -6.1432    1.0244 C   0  0  0  0  0  0  0  0  0  0  0  0
    4.2178   -7.3220    0.7765 O   0  0  0  0  0  0  0  0  0  0  0  0
    4.4560   -5.0449    0.0839 C   0  0  1  0  0  0  0  0  0  0  0  0
    3.3672   -4.5897   -0.6763 O   0  0  0  0  0  0  0  0  0  0  0  0
    5.1808   -3.9228    0.8865 C   0  0  1  0  0  0  0  0  0  0  0  0
    6.4738   -4.5772    1.4766 C   0  0  0  0  0  0  0  0  0  0  0  0
    5.7019   -2.6402    0.1508 C   0  0  1  0  0  0  0  0  0  0  0  0
    4.9877   -2.2238   -1.1231 C   0  0  0  0  0  0  0  0  0  0  0  0
    3.8112   -1.4208   -1.2398 C   0  0  0  0  0  0  0  0  0  0  0  0
    3.5196   -1.3286   -2.5647 C   0  0  0  0  0  0  0  0  0  0  0  0
    4.4382   -1.9999   -3.3078 O   0  0  0  0  0  0  0  0  0  0  0  0
    5.3147   -2.5391   -2.4131 C   0  0  0  0  0  0  0  0  0  0  0  0
    5.7136   -1.5399    1.2400 C   0  0  0  0  0  0  0  0  0  0  0  0
    5.0360   -2.1316    2.4938 C   0  0  0  0  0  0  0  0  0  0  0  0
    4.2576   -3.3704    2.0098 C   0  0  1  0  0  0  0  0  0  0  0  0
    3.0468   -2.8164    1.5107 O   0  0  0  0  0  0  0  0  0  0  0  0
    3.8506   -4.4949    3.0229 C   0  0  1  0  0  0  0  0  0  0  0  0
    0.6406   -2.5795    4.7929 H   0  0  0  0  0  0  0  0  0  0  0  0
    1.2654   -1.7237    3.3622 H   0  0  0  0  0  0  0  0  0  0  0  0
    0.6601   -0.8161    4.7407 H   0  0  0  0  0  0  0  0  0  0  0  0
    1.9375   -3.7904    3.5651 H   0  0  0  0  0  0  0  0  0  0  0  0
    3.5190   -5.4182    5.5951 H   0  0  0  0  0  0  0  0  0  0  0  0
    1.9722   -4.6969    5.9364 H   0  0  0  0  0  0  0  0  0  0  0  0
    1.8464   -7.0455    5.2524 H   0  0  0  0  0  0  0  0  0  0  0  0
   -0.0957   -5.4769    4.9838 H   0  0  0  0  0  0  0  0  0  0  0  0
    0.3224   -5.3340    3.2970 H   0  0  0  0  0  0  0  0  0  0  0  0
   -0.8572   -7.6571    4.7882 H   0  0  0  0  0  0  0  0  0  0  0  0
   -1.8756   -7.8641    2.7899 H   0  0  0  0  0  0  0  0  0  0  0  0
    0.9524   -8.9539    4.2034 H   0  0  0  0  0  0  0  0  0  0  0  0
   -0.0487   -9.1881    2.8113 H   0  0  0  0  0  0  0  0  0  0  0  0
    2.3010   -8.7666    2.1821 H   0  0  0  0  0  0  0  0  0  0  0  0
    0.7030   -8.1588    0.8491 H   0  0  0  0  0  0  0  0  0  0  0  0
    4.3921   -8.2192    3.0536 H   0  0  0  0  0  0  0  0  0  0  0  0
    3.5414   -8.3747    4.5581 H   0  0  0  0  0  0  0  0  0  0  0  0
    4.5827   -6.9944    4.2801 H   0  0  0  0  0  0  0  0  0  0  0  0
    2.2456   -5.2755    1.8437 H   0  0  0  0  0  0  0  0  0  0  0  0
    5.1711   -5.4931   -0.6072 H   0  0  0  0  0  0  0  0  0  0  0  0
    3.1929   -5.2283   -1.3826 H   0  0  0  0  0  0  0  0  0  0  0  0
    7.0600   -3.8655    2.0553 H   0  0  0  0  0  0  0  0  0  0  0  0
    7.1261   -4.9500    0.6832 H   0  0  0  0  0  0  0  0  0  0  0  0
    6.2897   -5.4273    2.1383 H   0  0  0  0  0  0  0  0  0  0  0  0
    6.7302   -2.8045   -0.1730 H   0  0  0  0  0  0  0  0  0  0  0  0
    3.2144   -0.9679   -0.4645 H   0  0  0  0  0  0  0  0  0  0  0  0
    2.7202   -0.8432   -3.1096 H   0  0  0  0  0  0  0  0  0  0  0  0
    6.1051   -3.1150   -2.8679 H   0  0  0  0  0  0  0  0  0  0  0  0
    6.7335   -1.2357    1.4770 H   0  0  0  0  0  0  0  0  0  0  0  0
    5.1952   -0.6390    0.9113 H   0  0  0  0  0  0  0  0  0  0  0  0
    5.7872   -2.4275    3.2238 H   0  0  0  0  0  0  0  0  0  0  0  0
    4.4088   -1.3762    2.9650 H   0  0  0  0  0  0  0  0  0  0  0  0
    3.2542   -2.2568    0.7772 H   0  0  0  0  0  0  0  0  0  0  0  0
    4.7508   -4.8446    3.5324 H   0  0  0  0  0  0  0  0  0  0  0  0
  1  2  1  0
  1 34  1  0
  1 35  1  0
  1 36  1  0
  2  3  2  0
  2  4  1  0
  4  5  1  0
  5 33  1  0
  5  6  1  0
  5 37  1  6
  6  7  1  0
  6 38  1  0
  6 39  1  0
  7 14  1  0
  7  8  1  0
  7 40  1  1
  8  9  1  0
  8 41  1  0
  8 42  1  0
  9 10  1  0
  9 11  1  0
  9 43  1  1
 10 44  1  0
 11 12  1  0
 11 45  1  0
 11 46  1  0
 12 13  1  0
 12 14  1  0
 12 47  1  6
 13 48  1  0
 14 15  1  1
 14 16  1  0
 15 49  1  0
 15 50  1  0
 15 51  1  0
 16 33  1  0
 16 17  1  0
 16 52  1  6
 17 18  2  0
 17 19  1  0
 19 20  1  0
 19 21  1  0
 19 53  1  6
 20 54  1  0
 21 31  1  0
 21 22  1  1
 21 23  1  0
 22 55  1  0
 22 56  1  0
 22 57  1  0
 23 24  1  0
 23 29  1  0
 23 58  1  6
 24 28  2  0
 24 25  1  0
 25 26  2  0
 25 59  1  0
 26 27  1  0
 26 60  1  0
 27 28  1  0
 28 61  1  0
 29 30  1  0
 29 62  1  0
 29 63  1  0
 30 31  1  0
 30 64  1  0
 30 65  1  0
 31 32  1  6
 31 33  1  0
 32 66  1  0
 33 67  1  1
M  END
>  <i_m_ct_stereo_status>  (325) 
1

>  <s_m_source_file>  (325) 
/var/tmp/pbs.5076255.sched01/tmpb6g28bo8/1236hu3uqnd.sdf

>  <i_m_source_file_index>  (325) 
19

>  <i_lp_mmshare_version>  (325) 
48012

>  <i_f3d_flags>  (325) 
0

>  <s_epik_input>  (325) 
W09IXVtDQEBIXTFbQ0gyXVtDQEhdKFtPSF0pW0NIMl1bQ0BASF0oW0NAQF0xMltDSDNdKVtDSDJdW0NAQEhdKE9DKD1PKVtDSDNdKVtDQEhdM1tDQEhdMkMoPU8pW0NAQEhdKFtPSF0pW0NAXTQoW0NIM10pW0NAXTMoW09IXSlbQ0gyXVtDSDJdW0NAQEhdNGM1W2NIXVtjSF1vW2NIXTU=

>  <s_epik_cmdline>  (325) 
J2VwaWtfcHl0aG9uJywgJy1waHQnLCAnMi4wJywgJy1waCcsICc3LjAnLCAnLXRuJywgJzgnLCAnLW1hJywgJzIwMCcsICctaW1hZScsICc8aW5maWxlLm1hZT4nLCAnLW9tYWUnLCAnPG91dGZpbGUubWFlPic=

>  <r_lp_tautomer_probability>  (325) 
1

>  <r_epik_Ionization_Penalty>  (325) 
9.13372e-07

>  <r_epik_Ionization_Penalty_Charging>  (325) 
0

>  <r_epik_Ionization_Penalty_Neutral>  (325) 
9.13372e-07

>  <r_epik_State_Penalty>  (325) 
-0

>  <r_epik_Charging_Adjusted_Penalty>  (325) 
0

>  <i_epik_Tot_Q>  (325) 
0

>  <i_epik_Tot_abs_Q>  (325) 
0

>  <s_epik_Chemistry_Notes>  (325) 
This compound has an ester and may undergo hydrolysis at high or low pH.

>  <s_lp_Force_Field>  (325) 
OPLS3e

>  <r_lp_Energy>  (325) 
53.8571

>  <b_lp_Chiralities_Consistent>  (325) 
1

>  <s_lp_Variant>  (325) 
100:0-1

>  <s_i_glide_gridfile>  (325) 
pfpi4k_grid

>  <i_i_glide_lignum>  (325) 
19

>  <i_i_glide_rotatable_bonds>  (325) 
7

>  <r_i_docking_score>  (325) 
-4.03812

>  <r_i_glide_ligand_efficiency>  (325) 
-0.122367

>  <r_i_glide_ligand_efficiency_sa>  (325) 
-0.392497

>  <r_i_glide_ligand_efficiency_ln>  (325) 
-0.898057

>  <r_i_glide_gscore>  (325) 
-4.03812

>  <r_i_glide_lipo>  (325) 
-0.489673

>  <r_i_glide_hbond>  (325) 
0

>  <r_i_glide_metal>  (325) 
-0

>  <r_i_glide_rewards>  (325) 
-0.349956

>  <r_i_glide_evdw>  (325) 
-29.6764

>  <r_i_glide_ecoul>  (325) 
-12.6866

>  <r_i_glide_erotb>  (325) 
0.188324

>  <r_i_glide_esite>  (325) 
0

>  <r_i_glide_emodel>  (325) 
-49.681

>  <r_i_glide_energy>  (325) 
-42.363

>  <r_i_glide_einternal>  (325) 
8.00472

>  <r_i_glide_intrahb_reward>  (325) 
-0

>  <i_i_glide_confnum>  (325) 
2

>  <i_i_glide_posenum>  (325) 
21

>  <r_i_glide_eff_state_penalty>  (325) 
0

>  <ligand_id>  (325) 
100

>  <original_smiles>  (325) 
CC(=O)OC1CC2CC(O)CC(O)C2(C)C2C(=O)C(O)C3(C)C(c4ccoc4)CCC3(O)C12

>  <smiles>  (325) 
[H]OC1([H])C(=O)C2([H])C([H])(C([H])(OC(=O)C([H])([H])[H])C([H])([H])C3([H])C([H])([H])C([H])(O[H])C([H])([H])C([H])(O[H])C23C([H])([H])[H])C2(O[H])C([H])([H])C([H])([H])C([H])(c3c([H])oc([H])c3[H])C12C([H])([H])[H]

$$$$
100:0:1
     RDKit          3D

 67 71  0  0  1  0  0  0  0  0999 V2000
    3.3711   -0.7822    6.0318 C   0  0  0  0  0  0  0  0  0  0  0  0
    2.5875   -1.9156    5.3743 C   0  0  0  0  0  0  0  0  0  0  0  0
    1.3556   -1.9098    5.3515 O   0  0  0  0  0  0  0  0  0  0  0  0
    3.3890   -2.8669    4.8538 O   0  0  0  0  0  0  0  0  0  0  0  0
    2.8274   -3.9560    4.1211 C   0  0  2  0  0  0  0  0  0  0  0  0
    2.5443   -5.0790    5.1221 C   0  0  0  0  0  0  0  0  0  0  0  0
    1.8491   -6.2804    4.4630 C   0  0  1  0  0  0  0  0  0  0  0  0
    0.3642   -6.0027    4.1587 C   0  0  0  0  0  0  0  0  0  0  0  0
   -0.3955   -7.3111    3.8676 C   0  0  1  0  0  0  0  0  0  0  0  0
   -1.4278   -7.0578    2.9338 O   0  0  0  0  0  0  0  0  0  0  0  0
    0.5163   -8.4348    3.3400 C   0  0  0  0  0  0  0  0  0  0  0  0
    1.6923   -7.9089    2.4831 C   0  0  1  0  0  0  0  0  0  0  0  0
    1.0999   -7.4275    1.2867 O   0  0  0  0  0  0  0  0  0  0  0  0
    2.6232   -6.8644    3.2298 C   0  0  2  0  0  0  0  0  0  0  0  0
    3.8370   -7.6516    3.8070 C   0  0  0  0  0  0  0  0  0  0  0  0
    3.1178   -5.6922    2.2741 C   0  0  2  0  0  0  0  0  0  0  0  0
    3.9344   -6.1471    1.0274 C   0  0  0  0  0  0  0  0  0  0  0  0
    4.1986   -7.3191    0.7867 O   0  0  0  0  0  0  0  0  0  0  0  0
    4.4441   -5.0498    0.0829 C   0  0  1  0  0  0  0  0  0  0  0  0
    3.3590   -4.5987   -0.6910 O   0  0  0  0  0  0  0  0  0  0  0  0
    5.1643   -3.9301    0.8881 C   0  0  1  0  0  0  0  0  0  0  0  0
    6.4595   -4.5882    1.4711 C   0  0  0  0  0  0  0  0  0  0  0  0
    5.6897   -2.6492    0.1548 C   0  0  1  0  0  0  0  0  0  0  0  0
    4.9806   -2.2342   -1.1241 C   0  0  0  0  0  0  0  0  0  0  0  0
    3.8081   -1.4211   -1.2412 C   0  0  0  0  0  0  0  0  0  0  0  0
    3.5193   -1.3327   -2.5648 C   0  0  0  0  0  0  0  0  0  0  0  0
    4.4267   -2.0145   -3.3076 O   0  0  0  0  0  0  0  0  0  0  0  0
    5.3022   -2.5570   -2.4111 C   0  0  0  0  0  0  0  0  0  0  0  0
    5.6976   -1.5504    1.2445 C   0  0  0  0  0  0  0  0  0  0  0  0
    5.0153   -2.1384    2.4972 C   0  0  0  0  0  0  0  0  0  0  0  0
    4.2315   -3.3677    2.0085 C   0  0  1  0  0  0  0  0  0  0  0  0
    3.0253   -2.8168    1.5044 O   0  0  0  0  0  0  0  0  0  0  0  0
    3.7929   -4.4751    3.0227 C   0  0  1  0  0  0  0  0  0  0  0  0
    4.0957   -0.3592    5.3354 H   0  0  0  0  0  0  0  0  0  0  0  0
    3.9062   -1.1541    6.9047 H   0  0  0  0  0  0  0  0  0  0  0  0
    2.7035    0.0167    6.3529 H   0  0  0  0  0  0  0  0  0  0  0  0
    1.8930   -3.6419    3.6525 H   0  0  0  0  0  0  0  0  0  0  0  0
    3.4883   -5.3994    5.5679 H   0  0  0  0  0  0  0  0  0  0  0  0
    1.9439   -4.7170    5.9538 H   0  0  0  0  0  0  0  0  0  0  0  0
    1.8317   -7.0418    5.2468 H   0  0  0  0  0  0  0  0  0  0  0  0
   -0.1132   -5.4780    4.9861 H   0  0  0  0  0  0  0  0  0  0  0  0
    0.3119   -5.3388    3.2945 H   0  0  0  0  0  0  0  0  0  0  0  0
   -0.8737   -7.6585    4.7841 H   0  0  0  0  0  0  0  0  0  0  0  0
   -1.8871   -7.8659    2.7777 H   0  0  0  0  0  0  0  0  0  0  0  0
    0.9316   -8.9549    4.2018 H   0  0  0  0  0  0  0  0  0  0  0  0
   -0.0676   -9.1934    2.8113 H   0  0  0  0  0  0  0  0  0  0  0  0
    2.2872   -8.7749    2.1861 H   0  0  0  0  0  0  0  0  0  0  0  0
    0.6962   -8.1653    0.8503 H   0  0  0  0  0  0  0  0  0  0  0  0
    4.3752   -8.2260    3.0541 H   0  0  0  0  0  0  0  0  0  0  0  0
    3.5249   -8.3801    4.5586 H   0  0  0  0  0  0  0  0  0  0  0  0
    4.5672   -6.9993    4.2810 H   0  0  0  0  0  0  0  0  0  0  0  0
    2.2116   -5.2821    1.8380 H   0  0  0  0  0  0  0  0  0  0  0  0
    5.1627   -5.5047   -0.6007 H   0  0  0  0  0  0  0  0  0  0  0  0
    3.1885   -5.2390   -1.3845 H   0  0  0  0  0  0  0  0  0  0  0  0
    7.0537   -3.8648    2.0196 H   0  0  0  0  0  0  0  0  0  0  0  0
    7.1037   -4.9715    0.6742 H   0  0  0  0  0  0  0  0  0  0  0  0
    6.2739   -5.4276    2.1462 H   0  0  0  0  0  0  0  0  0  0  0  0
    6.7176   -2.8159   -0.1691 H   0  0  0  0  0  0  0  0  0  0  0  0
    3.2130   -0.9585   -0.4676 H   0  0  0  0  0  0  0  0  0  0  0  0
    2.7194   -0.8426   -3.1086 H   0  0  0  0  0  0  0  0  0  0  0  0
    6.0850   -3.1449   -2.8690 H   0  0  0  0  0  0  0  0  0  0  0  0
    6.7171   -1.2474    1.4800 H   0  0  0  0  0  0  0  0  0  0  0  0
    5.1882   -0.6476    0.9129 H   0  0  0  0  0  0  0  0  0  0  0  0
    5.7691   -2.4396    3.2216 H   0  0  0  0  0  0  0  0  0  0  0  0
    4.3841   -1.3955    2.9801 H   0  0  0  0  0  0  0  0  0  0  0  0
    3.2463   -2.2416    0.7894 H   0  0  0  0  0  0  0  0  0  0  0  0
    4.6851   -4.8298    3.5369 H   0  0  0  0  0  0  0  0  0  0  0  0
  1  2  1  0
  1 34  1  0
  1 35  1  0
  1 36  1  0
  2  3  2  0
  2  4  1  0
  4  5  1  0
  5 33  1  0
  5  6  1  0
  5 37  1  6
  6  7  1  0
  6 38  1  0
  6 39  1  0
  7 14  1  0
  7  8  1  0
  7 40  1  1
  8  9  1  0
  8 41  1  0
  8 42  1  0
  9 10  1  0
  9 11  1  0
  9 43  1  1
 10 44  1  0
 11 12  1  0
 11 45  1  0
 11 46  1  0
 12 13  1  0
 12 14  1  0
 12 47  1  6
 13 48  1  0
 14 15  1  1
 14 16  1  0
 15 49  1  0
 15 50  1  0
 15 51  1  0
 16 33  1  0
 16 17  1  0
 16 52  1  6
 17 18  2  0
 17 19  1  0
 19 20  1  0
 19 21  1  0
 19 53  1  6
 20 54  1  0
 21 31  1  0
 21 22  1  1
 21 23  1  0
 22 55  1  0
 22 56  1  0
 22 57  1  0
 23 24  1  0
 23 29  1  0
 23 58  1  6
 24 28  2  0
 24 25  1  0
 25 26  2  0
 25 59  1  0
 26 27  1  0
 26 60  1  0
 27 28  1  0
 28 61  1  0
 29 30  1  0
 29 62  1  0
 29 63  1  0
 30 31  1  0
 30 64  1  0
 30 65  1  0
 31 32  1  6
 31 33  1  0
 32 66  1  0
 33 67  1  1
M  END
>  <i_m_ct_stereo_status>  (326) 
1

>  <s_m_source_file>  (326) 
/var/tmp/pbs.5076255.sched01/tmpb6g28bo8/1236hu3uqnd.sdf

>  <i_m_source_file_index>  (326) 
19

>  <i_lp_mmshare_version>  (326) 
48012

>  <i_f3d_flags>  (326) 
0

>  <s_epik_input>  (326) 
W09IXVtDQEBIXTFbQ0gyXVtDQEhdKFtPSF0pW0NIMl1bQ0BASF0oW0NAQF0xMltDSDNdKVtDSDJdW0NAQEhdKE9DKD1PKVtDSDNdKVtDQEhdM1tDQEhdMkMoPU8pW0NAQEhdKFtPSF0pW0NAXTQoW0NIM10pW0NAXTMoW09IXSlbQ0gyXVtDSDJdW0NAQEhdNGM1W2NIXVtjSF1vW2NIXTU=

>  <s_epik_cmdline>  (326) 
J2VwaWtfcHl0aG9uJywgJy1waHQnLCAnMi4wJywgJy1waCcsICc3LjAnLCAnLXRuJywgJzgnLCAnLW1hJywgJzIwMCcsICctaW1hZScsICc8aW5maWxlLm1hZT4nLCAnLW9tYWUnLCAnPG91dGZpbGUubWFlPic=

>  <r_lp_tautomer_probability>  (326) 
1

>  <r_epik_Ionization_Penalty>  (326) 
9.13372e-07

>  <r_epik_Ionization_Penalty_Charging>  (326) 
0

>  <r_epik_Ionization_Penalty_Neutral>  (326) 
9.13372e-07

>  <r_epik_State_Penalty>  (326) 
-0

>  <r_epik_Charging_Adjusted_Penalty>  (326) 
0

>  <i_epik_Tot_Q>  (326) 
0

>  <i_epik_Tot_abs_Q>  (326) 
0

>  <s_epik_Chemistry_Notes>  (326) 
This compound has an ester and may undergo hydrolysis at high or low pH.

>  <s_lp_Force_Field>  (326) 
OPLS3e

>  <r_lp_Energy>  (326) 
53.8571

>  <b_lp_Chiralities_Consistent>  (326) 
1

>  <s_lp_Variant>  (326) 
100:0-1

>  <s_i_glide_gridfile>  (326) 
pfpi4k_grid

>  <i_i_glide_lignum>  (326) 
19

>  <i_i_glide_rotatable_bonds>  (326) 
7

>  <r_i_docking_score>  (326) 
-3.91869

>  <r_i_glide_ligand_efficiency>  (326) 
-0.118748

>  <r_i_glide_ligand_efficiency_sa>  (326) 
-0.380889

>  <r_i_glide_ligand_efficiency_ln>  (326) 
-0.871497

>  <r_i_glide_gscore>  (326) 
-3.91869

>  <r_i_glide_lipo>  (326) 
-0.488067

>  <r_i_glide_hbond>  (326) 
0

>  <r_i_glide_metal>  (326) 
-0

>  <r_i_glide_rewards>  (326) 
-0.348324

>  <r_i_glide_evdw>  (326) 
-29.0678

>  <r_i_glide_ecoul>  (326) 
-12.1149

>  <r_i_glide_erotb>  (326) 
0.188324

>  <r_i_glide_esite>  (326) 
0

>  <r_i_glide_emodel>  (326) 
-50.9292

>  <r_i_glide_energy>  (326) 
-41.1827

>  <r_i_glide_einternal>  (326) 
2.76741

>  <r_i_glide_intrahb_reward>  (326) 
-0

>  <i_i_glide_confnum>  (326) 
2

>  <i_i_glide_posenum>  (326) 
28

>  <r_i_glide_eff_state_penalty>  (326) 
0

>  <ligand_id>  (326) 
100

>  <original_smiles>  (326) 
CC(=O)OC1CC2CC(O)CC(O)C2(C)C2C(=O)C(O)C3(C)C(c4ccoc4)CCC3(O)C12

>  <smiles>  (326) 
[H]OC1([H])C(=O)C2([H])C([H])(C([H])(OC(=O)C([H])([H])[H])C([H])([H])C3([H])C([H])([H])C([H])(O[H])C([H])([H])C([H])(O[H])C23C([H])([H])[H])C2(O[H])C([H])([H])C([H])([H])C([H])(c3c([H])oc([H])c3[H])C12C([H])([H])[H]

$$$$
100:0:2
     RDKit          3D

 67 71  0  0  1  0  0  0  0  0999 V2000
    5.3468   -1.2096    5.9430 C   0  0  0  0  0  0  0  0  0  0  0  0
    4.9906   -2.5673    5.3737 C   0  0  0  0  0  0  0  0  0  0  0  0
    5.7703   -3.5159    5.4557 O   0  0  0  0  0  0  0  0  0  0  0  0
    3.7957   -2.5515    4.7360 O   0  0  0  0  0  0  0  0  0  0  0  0
    3.2651   -3.6678    4.0042 C   0  0  2  0  0  0  0  0  0  0  0  0
    2.9549   -4.8188    4.9743 C   0  0  0  0  0  0  0  0  0  0  0  0
    2.2412   -5.9942    4.3157 C   0  0  1  0  0  0  0  0  0  0  0  0
    0.7467   -5.7343    4.1036 C   0  0  0  0  0  0  0  0  0  0  0  0
    0.0003   -7.0601    3.8549 C   0  0  1  0  0  0  0  0  0  0  0  0
   -1.0824   -6.8270    2.9848 O   0  0  0  0  0  0  0  0  0  0  0  0
    0.9124   -8.1575    3.2623 C   0  0  0  0  0  0  0  0  0  0  0  0
    2.0190   -7.5933    2.3430 C   0  0  1  0  0  0  0  0  0  0  0  0
    1.3361   -7.0791    1.2221 O   0  0  0  0  0  0  0  0  0  0  0  0
    2.9701   -6.5402    3.0377 C   0  0  2  0  0  0  0  0  0  0  0  0
    4.2272   -7.3086    3.5386 C   0  0  0  0  0  0  0  0  0  0  0  0
    3.3769   -5.3532    2.0724 C   0  0  2  0  0  0  0  0  0  0  0  0
    4.1462   -5.7789    0.7835 C   0  0  0  0  0  0  0  0  0  0  0  0
    4.3783   -6.9498    0.4816 O   0  0  0  0  0  0  0  0  0  0  0  0
    4.5870   -4.6751   -0.1791 C   0  0  1  0  0  0  0  0  0  0  0  0
    3.4510   -4.2454   -0.8861 O   0  0  0  0  0  0  0  0  0  0  0  0
    5.3320   -3.5469    0.5960 C   0  0  1  0  0  0  0  0  0  0  0  0
    6.6697   -4.1749    1.1041 C   0  0  0  0  0  0  0  0  0  0  0  0
    5.7888   -2.2526   -0.1521 C   0  0  1  0  0  0  0  0  0  0  0  0
    4.9975   -1.8607   -1.3746 C   0  0  0  0  0  0  0  0  0  0  0  0
    3.8112   -1.0678   -1.4155 C   0  0  0  0  0  0  0  0  0  0  0  0
    3.4546   -0.9563   -2.7307 C   0  0  0  0  0  0  0  0  0  0  0  0
    4.3246   -1.6418   -3.5146 O   0  0  0  0  0  0  0  0  0  0  0  0
    5.2305   -2.2000   -2.6738 C   0  0  0  0  0  0  0  0  0  0  0  0
    5.8331   -1.1476    0.9314 C   0  0  0  0  0  0  0  0  0  0  0  0
    5.2410   -1.7616    2.2075 C   0  0  0  0  0  0  0  0  0  0  0  0
    4.4566   -3.0152    1.7676 C   0  0  1  0  0  0  0  0  0  0  0  0
    3.2114   -2.4962    1.3471 O   0  0  0  0  0  0  0  0  0  0  0  0
    4.1119   -4.1568    2.7906 C   0  0  1  0  0  0  0  0  0  0  0  0
    4.5494   -0.8230    6.5782 H   0  0  0  0  0  0  0  0  0  0  0  0
    5.5391   -0.5049    5.1333 H   0  0  0  0  0  0  0  0  0  0  0  0
    6.2527   -1.3164    6.5295 H   0  0  0  0  0  0  0  0  0  0  0  0
    2.3120   -3.3113    3.6095 H   0  0  0  0  0  0  0  0  0  0  0  0
    3.8725   -5.2261    5.3934 H   0  0  0  0  0  0  0  0  0  0  0  0
    2.3747   -4.4392    5.8219 H   0  0  0  0  0  0  0  0  0  0  0  0
    2.2832   -6.7662    5.0827 H   0  0  0  0  0  0  0  0  0  0  0  0
    0.3076   -5.2262    4.9671 H   0  0  0  0  0  0  0  0  0  0  0  0
    0.6282   -5.0716    3.2483 H   0  0  0  0  0  0  0  0  0  0  0  0
   -0.4037   -7.4316    4.7967 H   0  0  0  0  0  0  0  0  0  0  0  0
   -1.5398   -7.6592    2.8738 H   0  0  0  0  0  0  0  0  0  0  0  0
    1.3929   -8.6783    4.0883 H   0  0  0  0  0  0  0  0  0  0  0  0
    0.3126   -8.9194    2.7516 H   0  0  0  0  0  0  0  0  0  0  0  0
    2.6142   -8.4348    1.9897 H   0  0  0  0  0  0  0  0  0  0  0  0
    0.9087   -7.8191    0.7958 H   0  0  0  0  0  0  0  0  0  0  0  0
    4.7347   -7.8626    2.7519 H   0  0  0  0  0  0  0  0  0  0  0  0
    3.9724   -8.0500    4.2956 H   0  0  0  0  0  0  0  0  0  0  0  0
    4.9730   -6.6526    3.9827 H   0  0  0  0  0  0  0  0  0  0  0  0
    2.4418   -4.9343    1.6944 H   0  0  0  0  0  0  0  0  0  0  0  0
    5.2857   -5.1004   -0.9072 H   0  0  0  0  0  0  0  0  0  0  0  0
    3.2464   -4.9090   -1.5513 H   0  0  0  0  0  0  0  0  0  0  0  0
    7.2900   -3.4578    1.6544 H   0  0  0  0  0  0  0  0  0  0  0  0
    7.2759   -4.5348    0.2652 H   0  0  0  0  0  0  0  0  0  0  0  0
    6.5417   -5.0355    1.7646 H   0  0  0  0  0  0  0  0  0  0  0  0
    6.8110   -2.3906   -0.5302 H   0  0  0  0  0  0  0  0  0  0  0  0
    3.2414   -0.6622   -0.5995 H   0  0  0  0  0  0  0  0  0  0  0  0
    2.6396   -0.4456   -3.2193 H   0  0  0  0  0  0  0  0  0  0  0  0
    6.0064   -2.7755   -3.1679 H   0  0  0  0  0  0  0  0  0  0  0  0
    6.8586   -0.8403    1.1267 H   0  0  0  0  0  0  0  0  0  0  0  0
    5.2957   -0.2430    0.6356 H   0  0  0  0  0  0  0  0  0  0  0  0
    6.0714   -2.0492    2.8423 H   0  0  0  0  0  0  0  0  0  0  0  0
    4.6273   -1.0426    2.7552 H   0  0  0  0  0  0  0  0  0  0  0  0
    3.3630   -1.9337    0.5868 H   0  0  0  0  0  0  0  0  0  0  0  0
    5.0440   -4.5475    3.1849 H   0  0  0  0  0  0  0  0  0  0  0  0
  1  2  1  0
  1 34  1  0
  1 35  1  0
  1 36  1  0
  2  3  2  0
  2  4  1  0
  4  5  1  0
  5 33  1  0
  5  6  1  0
  5 37  1  6
  6  7  1  0
  6 38  1  0
  6 39  1  0
  7 14  1  0
  7  8  1  0
  7 40  1  1
  8  9  1  0
  8 41  1  0
  8 42  1  0
  9 10  1  0
  9 11  1  0
  9 43  1  1
 10 44  1  0
 11 12  1  0
 11 45  1  0
 11 46  1  0
 12 13  1  0
 12 14  1  0
 12 47  1  6
 13 48  1  0
 14 15  1  1
 14 16  1  0
 15 49  1  0
 15 50  1  0
 15 51  1  0
 16 33  1  0
 16 17  1  0
 16 52  1  6
 17 18  2  0
 17 19  1  0
 19 20  1  0
 19 21  1  0
 19 53  1  6
 20 54  1  0
 21 31  1  0
 21 22  1  1
 21 23  1  0
 22 55  1  0
 22 56  1  0
 22 57  1  0
 23 24  1  0
 23 29  1  0
 23 58  1  6
 24 28  2  0
 24 25  1  0
 25 26  2  0
 25 59  1  0
 26 27  1  0
 26 60  1  0
 27 28  1  0
 28 61  1  0
 29 30  1  0
 29 62  1  0
 29 63  1  0
 30 31  1  0
 30 64  1  0
 30 65  1  0
 31 32  1  6
 31 33  1  0
 32 66  1  0
 33 67  1  1
M  END
>  <i_m_ct_stereo_status>  (327) 
1

>  <s_m_source_file>  (327) 
/var/tmp/pbs.5076255.sched01/tmpb6g28bo8/1236hu3uqnd.sdf

>  <i_m_source_file_index>  (327) 
19

>  <i_lp_mmshare_version>  (327) 
48012

>  <i_f3d_flags>  (327) 
0

>  <s_epik_input>  (327) 
W09IXVtDQEBIXTFbQ0gyXVtDQEhdKFtPSF0pW0NIMl1bQ0BASF0oW0NAQF0xMltDSDNdKVtDSDJdW0NAQEhdKE9DKD1PKVtDSDNdKVtDQEhdM1tDQEhdMkMoPU8pW0NAQEhdKFtPSF0pW0NAXTQoW0NIM10pW0NAXTMoW09IXSlbQ0gyXVtDSDJdW0NAQEhdNGM1W2NIXVtjSF1vW2NIXTU=

>  <s_epik_cmdline>  (327) 
J2VwaWtfcHl0aG9uJywgJy1waHQnLCAnMi4wJywgJy1waCcsICc3LjAnLCAnLXRuJywgJzgnLCAnLW1hJywgJzIwMCcsICctaW1hZScsICc8aW5maWxlLm1hZT4nLCAnLW9tYWUnLCAnPG91dGZpbGUubWFlPic=

>  <r_lp_tautomer_probability>  (327) 
1

>  <r_epik_Ionization_Penalty>  (327) 
9.13372e-07

>  <r_epik_Ionization_Penalty_Charging>  (327) 
0

>  <r_epik_Ionization_Penalty_Neutral>  (327) 
9.13372e-07

>  <r_epik_State_Penalty>  (327) 
-0

>  <r_epik_Charging_Adjusted_Penalty>  (327) 
0

>  <i_epik_Tot_Q>  (327) 
0

>  <i_epik_Tot_abs_Q>  (327) 
0

>  <s_epik_Chemistry_Notes>  (327) 
This compound has an ester and may undergo hydrolysis at high or low pH.

>  <s_lp_Force_Field>  (327) 
OPLS3e

>  <r_lp_Energy>  (327) 
53.8571

>  <b_lp_Chiralities_Consistent>  (327) 
1

>  <s_lp_Variant>  (327) 
100:0-1

>  <s_i_glide_gridfile>  (327) 
pfpi4k_grid

>  <i_i_glide_lignum>  (327) 
19

>  <i_i_glide_rotatable_bonds>  (327) 
7

>  <r_i_docking_score>  (327) 
-3.87168

>  <r_i_glide_ligand_efficiency>  (327) 
-0.117323

>  <r_i_glide_ligand_efficiency_sa>  (327) 
-0.376319

>  <r_i_glide_ligand_efficiency_ln>  (327) 
-0.86104

>  <r_i_glide_gscore>  (327) 
-3.87168

>  <r_i_glide_lipo>  (327) 
-0.502682

>  <r_i_glide_hbond>  (327) 
0

>  <r_i_glide_metal>  (327) 
-0

>  <r_i_glide_rewards>  (327) 
-0.386109

>  <r_i_glide_evdw>  (327) 
-28.4537

>  <r_i_glide_ecoul>  (327) 
-11.6568

>  <r_i_glide_erotb>  (327) 
0.188324

>  <r_i_glide_esite>  (327) 
0

>  <r_i_glide_emodel>  (327) 
-48.1339

>  <r_i_glide_energy>  (327) 
-40.1105

>  <r_i_glide_einternal>  (327) 
5.58216

>  <r_i_glide_intrahb_reward>  (327) 
-0

>  <i_i_glide_confnum>  (327) 
4

>  <i_i_glide_posenum>  (327) 
9

>  <r_i_glide_eff_state_penalty>  (327) 
0

>  <ligand_id>  (327) 
100

>  <original_smiles>  (327) 
CC(=O)OC1CC2CC(O)CC(O)C2(C)C2C(=O)C(O)C3(C)C(c4ccoc4)CCC3(O)C12

>  <smiles>  (327) 
[H]OC1([H])C(=O)C2([H])C([H])(C([H])(OC(=O)C([H])([H])[H])C([H])([H])C3([H])C([H])([H])C([H])(O[H])C([H])([H])C([H])(O[H])C23C([H])([H])[H])C2(O[H])C([H])([H])C([H])([H])C([H])(c3c([H])oc([H])c3[H])C12C([H])([H])[H]

$$$$
101:0:0
     RDKit          3D

 65 70  0  0  1  0  0  0  0  0999 V2000
    2.2439    4.7405    3.0536 C   0  0  0  0  0  0  0  0  0  0  0  0
    2.3824    3.3383    3.1636 O   0  0  0  0  0  0  0  0  0  0  0  0
    1.6328    2.6297    2.2334 C   0  0  0  0  0  0  0  0  0  0  0  0
    1.9601    1.2660    2.2024 O   0  0  0  0  0  0  0  0  0  0  0  0
    1.7033    0.4769    3.3718 C   0  0  2  0  0  0  0  0  0  0  0  0
    0.3641    0.8160    4.0023 C   0  0  0  0  0  0  0  0  0  0  0  0
   -0.7320    0.5738    3.4856 O   0  0  0  0  0  0  0  0  0  0  0  0
    0.6063    1.5239    5.3262 C   0  0  1  0  0  0  0  0  0  0  0  0
   -0.5637    1.6070    6.2915 C   0  0  0  0  0  0  0  0  0  0  0  0
   -0.6360    2.4343    7.4478 C   0  0  0  0  0  0  0  0  0  0  0  0
   -1.8556    2.2179    8.0249 C   0  0  0  0  0  0  0  0  0  0  0  0
   -2.5815    1.3435    7.2803 O   0  0  0  0  0  0  0  0  0  0  0  0
   -1.7833    0.9900    6.2356 C   0  0  0  0  0  0  0  0  0  0  0  0
    1.9343    0.8958    5.8342 C   0  0  1  0  0  0  0  0  0  0  0  0
    2.6573    1.8991    6.7609 C   0  0  0  0  0  0  0  0  0  0  0  0
    1.7430   -0.4555    6.5991 C   0  0  0  0  0  0  0  0  0  0  0  0
    1.9670   -1.7237    5.7476 C   0  0  0  0  0  0  0  0  0  0  0  0
    3.3900   -1.7409    5.1481 C   0  0  2  0  0  0  0  0  0  0  0  0
    3.8578   -0.3742    4.6183 C   0  0  1  0  0  0  0  0  0  0  0  0
    4.6393   -0.6444    3.3213 C   0  0  0  0  0  0  0  0  0  0  0  0
    4.9391   -2.1481    3.3563 C   0  0  2  0  0  0  0  0  0  0  0  0
    5.2439   -2.8052    2.0067 C   0  0  2  0  0  0  0  0  0  0  0  0
    6.0555   -2.0741    1.1062 O   0  0  0  0  0  0  0  0  0  0  0  0
    5.6201   -2.1882   -0.1644 C   0  0  0  0  0  0  0  0  0  0  0  0
    6.1673   -1.7022   -1.1514 O   0  0  0  0  0  0  0  0  0  0  0  0
    4.3451   -3.0368   -0.2176 C   0  0  1  0  0  0  0  0  0  0  0  0
    4.6574   -4.4437   -0.7522 C   0  0  0  0  0  0  0  0  0  0  0  0
    3.9886   -3.0513    1.2407 C   0  0  0  0  0  0  0  0  0  0  0  0
    2.7645   -3.0117    1.8008 C   0  0  0  0  0  0  0  0  0  0  0  0
    2.5399   -2.8378    3.1486 O   0  0  0  0  0  0  0  0  0  0  0  0
    3.6837   -2.7646    4.0290 C   0  0  2  0  0  0  0  0  0  0  0  0
    3.9146   -4.1833    4.5780 C   0  0  0  0  0  0  0  0  0  0  0  0
    2.7439    0.6900    4.5115 C   0  0  1  0  0  0  0  0  0  0  0  0
    2.8363    5.2181    3.8304 H   0  0  0  0  0  0  0  0  0  0  0  0
    1.2092    5.0541    3.1813 H   0  0  0  0  0  0  0  0  0  0  0  0
    2.6042    5.0947    2.0898 H   0  0  0  0  0  0  0  0  0  0  0  0
    0.5676    2.8089    2.3837 H   0  0  0  0  0  0  0  0  0  0  0  0
    1.8377    3.0217    1.2500 H   0  0  0  0  0  0  0  0  0  0  0  0
    1.6721   -0.5714    3.0822 H   0  0  0  0  0  0  0  0  0  0  0  0
    0.8037    2.5552    5.0370 H   0  0  0  0  0  0  0  0  0  0  0  0
    0.1167    3.1115    7.8248 H   0  0  0  0  0  0  0  0  0  0  0  0
   -2.3376    2.6004    8.9151 H   0  0  0  0  0  0  0  0  0  0  0  0
   -2.2400    0.3037    5.5345 H   0  0  0  0  0  0  0  0  0  0  0  0
    3.6494    1.5346    7.0324 H   0  0  0  0  0  0  0  0  0  0  0  0
    2.1067    2.0503    7.6910 H   0  0  0  0  0  0  0  0  0  0  0  0
    2.7789    2.8740    6.2821 H   0  0  0  0  0  0  0  0  0  0  0  0
    2.4606   -0.4966    7.4237 H   0  0  0  0  0  0  0  0  0  0  0  0
    0.7690   -0.5030    7.0827 H   0  0  0  0  0  0  0  0  0  0  0  0
    1.8286   -2.6026    6.3738 H   0  0  0  0  0  0  0  0  0  0  0  0
    1.2051   -1.7941    4.9730 H   0  0  0  0  0  0  0  0  0  0  0  0
    4.0599   -1.9666    5.9783 H   0  0  0  0  0  0  0  0  0  0  0  0
    4.5703    0.0199    5.3447 H   0  0  0  0  0  0  0  0  0  0  0  0
    4.0496   -0.3940    2.4405 H   0  0  0  0  0  0  0  0  0  0  0  0
    5.5496   -0.0517    3.2691 H   0  0  0  0  0  0  0  0  0  0  0  0
    5.7996   -2.2914    4.0091 H   0  0  0  0  0  0  0  0  0  0  0  0
    5.7117   -3.7753    2.1774 H   0  0  0  0  0  0  0  0  0  0  0  0
    3.5707   -2.5481   -0.8064 H   0  0  0  0  0  0  0  0  0  0  0  0
    5.4505   -4.9328   -0.1789 H   0  0  0  0  0  0  0  0  0  0  0  0
    4.9773   -4.4160   -1.7972 H   0  0  0  0  0  0  0  0  0  0  0  0
    3.7747   -5.0833   -0.7009 H   0  0  0  0  0  0  0  0  0  0  0  0
    1.8461   -3.0791    1.2331 H   0  0  0  0  0  0  0  0  0  0  0  0
    4.7599   -4.2233    5.2660 H   0  0  0  0  0  0  0  0  0  0  0  0
    4.1114   -4.8854    3.7670 H   0  0  0  0  0  0  0  0  0  0  0  0
    3.0325   -4.5409    5.1108 H   0  0  0  0  0  0  0  0  0  0  0  0
    3.2915    1.6070    4.3135 H   0  0  0  0  0  0  0  0  0  0  0  0
  1  2  1  0
  1 34  1  0
  1 35  1  0
  1 36  1  0
  2  3  1  0
  3  4  1  0
  3 37  1  0
  3 38  1  0
  4  5  1  0
  5 33  1  0
  5  6  1  0
  5 39  1  6
  6  7  2  0
  6  8  1  0
  8  9  1  0
  8 14  1  0
  8 40  1  6
  9 13  2  0
  9 10  1  0
 10 11  2  0
 10 41  1  0
 11 12  1  0
 11 42  1  0
 12 13  1  0
 13 43  1  0
 14 33  1  0
 14 15  1  1
 14 16  1  0
 15 44  1  0
 15 45  1  0
 15 46  1  0
 16 17  1  0
 16 47  1  0
 16 48  1  0
 17 18  1  0
 17 49  1  0
 17 50  1  0
 18 31  1  0
 18 19  1  0
 18 51  1  1
 19 20  1  0
 19 33  1  0
 19 52  1  1
 20 21  1  0
 20 53  1  0
 20 54  1  0
 21 31  1  0
 21 22  1  0
 21 55  1  1
 22 28  1  0
 22 23  1  0
 22 56  1  1
 23 24  1  0
 24 25  2  0
 24 26  1  0
 26 27  1  0
 26 28  1  0
 26 57  1  6
 27 58  1  0
 27 59  1  0
 27 60  1  0
 28 29  2  0
 29 30  1  0
 29 61  1  0
 30 31  1  0
 31 32  1  1
 32 62  1  0
 32 63  1  0
 32 64  1  0
 33 65  1  6
M  END
>  <i_m_ct_stereo_status>  (328) 
1

>  <s_m_source_file>  (328) 
/var/tmp/pbs.5076255.sched01/tmpb6g28bo8/1236hu3uqnd.sdf

>  <i_m_source_file_index>  (328) 
20

>  <i_lp_mmshare_version>  (328) 
48012

>  <i_f3d_flags>  (328) 
0

>  <s_epik_input>  (328) 
W2NIXTFvW2NIXVtjSF1jMVtDQEBIXTJDKD1PKVtDQEBIXShPW0NIMl1PW0NIM10pW0NAQEhdKFtDQEBdMjNbQ0gzXSlbQ0BIXTRbQ0BASF0oW0NIMl1bQ0gyXTMpW0NAXTUoW0NIM10pW0NASF0oW0NIMl00KVtDQEhdNkMoPVtDSF1PNSlbQ0BASF0oQyhPNik9TylbQ0gzXQ==

>  <s_epik_cmdline>  (328) 
J2VwaWtfcHl0aG9uJywgJy1waHQnLCAnMi4wJywgJy1waCcsICc3LjAnLCAnLXRuJywgJzgnLCAnLW1hJywgJzIwMCcsICctaW1hZScsICc8aW5maWxlLm1hZT4nLCAnLW9tYWUnLCAnPG91dGZpbGUubWFlPic=

>  <r_lp_tautomer_probability>  (328) 
1

>  <r_epik_Ionization_Penalty>  (328) 
5.92907e-12

>  <r_epik_Ionization_Penalty_Charging>  (328) 
0

>  <r_epik_Ionization_Penalty_Neutral>  (328) 
5.92907e-12

>  <r_epik_State_Penalty>  (328) 
-0

>  <r_epik_Charging_Adjusted_Penalty>  (328) 
0

>  <i_epik_Tot_Q>  (328) 
0

>  <i_epik_Tot_abs_Q>  (328) 
0

>  <s_epik_Chemistry_Notes>  (328) 
This compound has an ester and may undergo hydrolysis at high or low pH. This compound contains an acetal/aminal-like group ( X-CH(R)-Y where X, Y are N, S, or O) that may be acid/base labile, releasing an aldehyde.

>  <s_lp_Force_Field>  (328) 
OPLS3e

>  <r_lp_Energy>  (328) 
36.7044

>  <b_lp_Chiralities_Consistent>  (328) 
1

>  <s_lp_Variant>  (328) 
101:0-1

>  <s_i_glide_gridfile>  (328) 
pfpi4k_grid

>  <i_i_glide_lignum>  (328) 
20

>  <i_i_glide_rotatable_bonds>  (328) 
4

>  <r_i_docking_score>  (328) 
-2.29563

>  <r_i_glide_ligand_efficiency>  (328) 
-0.0695645

>  <r_i_glide_ligand_efficiency_sa>  (328) 
-0.223131

>  <r_i_glide_ligand_efficiency_ln>  (328) 
-0.510536

>  <r_i_glide_gscore>  (328) 
-2.29563

>  <r_i_glide_lipo>  (328) 
-0.203024

>  <r_i_glide_hbond>  (328) 
-0.294235

>  <r_i_glide_metal>  (328) 
-0

>  <r_i_glide_rewards>  (328) 
-0.296399

>  <r_i_glide_evdw>  (328) 
-24.7065

>  <r_i_glide_ecoul>  (328) 
-3.0015

>  <r_i_glide_erotb>  (328) 
0.28929

>  <r_i_glide_esite>  (328) 
-0.105712

>  <r_i_glide_emodel>  (328) 
-27.5431

>  <r_i_glide_energy>  (328) 
-27.7079

>  <r_i_glide_einternal>  (328) 
8.52151

>  <r_i_glide_intrahb_reward>  (328) 
-0

>  <i_i_glide_confnum>  (328) 
5

>  <i_i_glide_posenum>  (328) 
13

>  <r_i_glide_eff_state_penalty>  (328) 
0

>  <ligand_id>  (328) 
101

>  <original_smiles>  (328) 
COCOC1C(=O)C(c2ccoc2)C2(C)CCC3C(CC4C5OC(=O)C(C)C5=COC43C)C12

>  <smiles>  (328) 
[H]C1=C2C([H])(OC(=O)C2([H])C([H])([H])[H])C2([H])C([H])([H])C3([H])C([H])(C([H])([H])C([H])([H])C4(C([H])([H])[H])C([H])(c5c([H])oc([H])c5[H])C(=O)C([H])(OC([H])([H])OC([H])([H])[H])C34[H])C2(C([H])([H])[H])O1

$$$$
101:0:1
     RDKit          3D

 65 70  0  0  1  0  0  0  0  0999 V2000
    2.9677    5.7661    3.5096 C   0  0  0  0  0  0  0  0  0  0  0  0
    2.8890    4.3549    3.5564 O   0  0  0  0  0  0  0  0  0  0  0  0
    2.0289    3.8332    2.5992 C   0  0  0  0  0  0  0  0  0  0  0  0
    2.0835    2.4280    2.5338 O   0  0  0  0  0  0  0  0  0  0  0  0
    1.5707    1.6473    3.6175 C   0  0  2  0  0  0  0  0  0  0  0  0
    0.2394    2.1794    4.1032 C   0  0  0  0  0  0  0  0  0  0  0  0
   -0.8077    2.1331    3.4523 O   0  0  0  0  0  0  0  0  0  0  0  0
    0.4211    2.7720    5.4918 C   0  0  1  0  0  0  0  0  0  0  0  0
   -0.8374    3.0169    6.3142 C   0  0  0  0  0  0  0  0  0  0  0  0
   -0.9204    3.7675    7.5266 C   0  0  0  0  0  0  0  0  0  0  0  0
   -2.2233    3.7403    7.9270 C   0  0  0  0  0  0  0  0  0  0  0  0
   -2.9846    3.0644    7.0267 O   0  0  0  0  0  0  0  0  0  0  0  0
   -2.1298    2.6516    6.0536 C   0  0  0  0  0  0  0  0  0  0  0  0
    1.5507    1.9064    6.1172 C   0  0  1  0  0  0  0  0  0  0  0  0
    2.3029    2.7330    7.1824 C   0  0  0  0  0  0  0  0  0  0  0  0
    1.0444    0.5784    6.7660 C   0  0  0  0  0  0  0  0  0  0  0  0
    1.1595   -0.6666    5.8623 C   0  0  0  0  0  0  0  0  0  0  0  0
    2.6259   -0.9066    5.4441 C   0  0  2  0  0  0  0  0  0  0  0  0
    3.3732    0.3822    5.0598 C   0  0  1  0  0  0  0  0  0  0  0  0
    4.2627    0.0394    3.8541 C   0  0  0  0  0  0  0  0  0  0  0  0
    4.3036   -1.4961    3.8296 C   0  0  2  0  0  0  0  0  0  0  0  0
    4.6648   -2.1366    2.4906 C   0  0  2  0  0  0  0  0  0  0  0  0
    5.6966   -1.5242    1.7456 O   0  0  0  0  0  0  0  0  0  0  0  0
    5.4131   -1.5064    0.4284 C   0  0  0  0  0  0  0  0  0  0  0  0
    6.1532   -1.0787   -0.4537 O   0  0  0  0  0  0  0  0  0  0  0  0
    4.0325   -2.1218    0.1629 C   0  0  1  0  0  0  0  0  0  0  0  0
    4.1795   -3.5351   -0.4217 C   0  0  0  0  0  0  0  0  0  0  0  0
    3.4979   -2.1316    1.5614 C   0  0  0  0  0  0  0  0  0  0  0  0
    2.2339   -1.9097    1.9741 C   0  0  0  0  0  0  0  0  0  0  0  0
    1.8693   -1.7543    3.2902 O   0  0  0  0  0  0  0  0  0  0  0  0
    2.8861   -1.9166    4.3050 C   0  0  2  0  0  0  0  0  0  0  0  0
    2.8111   -3.3745    4.7884 C   0  0  0  0  0  0  0  0  0  0  0  0
    2.4746    1.6258    4.8892 C   0  0  1  0  0  0  0  0  0  0  0  0
    3.6302    6.1206    4.2986 H   0  0  0  0  0  0  0  0  0  0  0  0
    1.9926    6.2369    3.6535 H   0  0  0  0  0  0  0  0  0  0  0  0
    3.3790    6.0893    2.5528 H   0  0  0  0  0  0  0  0  0  0  0  0
    1.0254    4.2254    2.7778 H   0  0  0  0  0  0  0  0  0  0  0  0
    2.3357    4.1906    1.6147 H   0  0  0  0  0  0  0  0  0  0  0  0
    1.4119    0.6260    3.2648 H   0  0  0  0  0  0  0  0  0  0  0  0
    0.8151    3.7604    5.2846 H   0  0  0  0  0  0  0  0  0  0  0  0
   -0.1199    4.2657    8.0510 H   0  0  0  0  0  0  0  0  0  0  0  0
   -2.7470    4.1434    8.7821 H   0  0  0  0  0  0  0  0  0  0  0  0
   -2.5888    2.1157    5.2345 H   0  0  0  0  0  0  0  0  0  0  0  0
    3.1784    2.1927    7.5425 H   0  0  0  0  0  0  0  0  0  0  0  0
    1.6740    2.9326    8.0511 H   0  0  0  0  0  0  0  0  0  0  0  0
    2.6407    3.6938    6.7836 H   0  0  0  0  0  0  0  0  0  0  0  0
    1.6276    0.3851    7.6712 H   0  0  0  0  0  0  0  0  0  0  0  0
    0.0181    0.6796    7.1151 H   0  0  0  0  0  0  0  0  0  0  0  0
    0.8011   -1.5331    6.4128 H   0  0  0  0  0  0  0  0  0  0  0  0
    0.5022   -0.5784    4.9990 H   0  0  0  0  0  0  0  0  0  0  0  0
    3.1357   -1.2774    6.3334 H   0  0  0  0  0  0  0  0  0  0  0  0
    4.0422    0.6179    5.8900 H   0  0  0  0  0  0  0  0  0  0  0  0
    3.8413    0.4202    2.9241 H   0  0  0  0  0  0  0  0  0  0  0  0
    5.2573    0.4687    3.9471 H   0  0  0  0  0  0  0  0  0  0  0  0
    5.0399   -1.8092    4.5733 H   0  0  0  0  0  0  0  0  0  0  0  0
    4.9417   -3.1821    2.6554 H   0  0  0  0  0  0  0  0  0  0  0  0
    3.4391   -1.4795   -0.4793 H   0  0  0  0  0  0  0  0  0  0  0  0
    4.8030   -4.1745    0.2111 H   0  0  0  0  0  0  0  0  0  0  0  0
    4.6376   -3.5178   -1.4149 H   0  0  0  0  0  0  0  0  0  0  0  0
    3.2087   -4.0209   -0.5218 H   0  0  0  0  0  0  0  0  0  0  0  0
    1.4108   -1.7880    1.2882 H   0  0  0  0  0  0  0  0  0  0  0  0
    3.5422   -3.5877    5.5692 H   0  0  0  0  0  0  0  0  0  0  0  0
    2.9942   -4.0644    3.9642 H   0  0  0  0  0  0  0  0  0  0  0  0
    1.8211   -3.5987    5.1863 H   0  0  0  0  0  0  0  0  0  0  0  0
    3.1806    2.4457    4.8173 H   0  0  0  0  0  0  0  0  0  0  0  0
  1  2  1  0
  1 34  1  0
  1 35  1  0
  1 36  1  0
  2  3  1  0
  3  4  1  0
  3 37  1  0
  3 38  1  0
  4  5  1  0
  5 33  1  0
  5  6  1  0
  5 39  1  6
  6  7  2  0
  6  8  1  0
  8  9  1  0
  8 14  1  0
  8 40  1  6
  9 13  2  0
  9 10  1  0
 10 11  2  0
 10 41  1  0
 11 12  1  0
 11 42  1  0
 12 13  1  0
 13 43  1  0
 14 33  1  0
 14 15  1  1
 14 16  1  0
 15 44  1  0
 15 45  1  0
 15 46  1  0
 16 17  1  0
 16 47  1  0
 16 48  1  0
 17 18  1  0
 17 49  1  0
 17 50  1  0
 18 31  1  0
 18 19  1  0
 18 51  1  1
 19 20  1  0
 19 33  1  0
 19 52  1  1
 20 21  1  0
 20 53  1  0
 20 54  1  0
 21 31  1  0
 21 22  1  0
 21 55  1  1
 22 28  1  0
 22 23  1  0
 22 56  1  1
 23 24  1  0
 24 25  2  0
 24 26  1  0
 26 27  1  0
 26 28  1  0
 26 57  1  6
 27 58  1  0
 27 59  1  0
 27 60  1  0
 28 29  2  0
 29 30  1  0
 29 61  1  0
 30 31  1  0
 31 32  1  1
 32 62  1  0
 32 63  1  0
 32 64  1  0
 33 65  1  6
M  END
>  <i_m_ct_stereo_status>  (329) 
1

>  <s_m_source_file>  (329) 
/var/tmp/pbs.5076255.sched01/tmpb6g28bo8/1236hu3uqnd.sdf

>  <i_m_source_file_index>  (329) 
20

>  <i_lp_mmshare_version>  (329) 
48012

>  <i_f3d_flags>  (329) 
0

>  <s_epik_input>  (329) 
W2NIXTFvW2NIXVtjSF1jMVtDQEBIXTJDKD1PKVtDQEBIXShPW0NIMl1PW0NIM10pW0NAQEhdKFtDQEBdMjNbQ0gzXSlbQ0BIXTRbQ0BASF0oW0NIMl1bQ0gyXTMpW0NAXTUoW0NIM10pW0NASF0oW0NIMl00KVtDQEhdNkMoPVtDSF1PNSlbQ0BASF0oQyhPNik9TylbQ0gzXQ==

>  <s_epik_cmdline>  (329) 
J2VwaWtfcHl0aG9uJywgJy1waHQnLCAnMi4wJywgJy1waCcsICc3LjAnLCAnLXRuJywgJzgnLCAnLW1hJywgJzIwMCcsICctaW1hZScsICc8aW5maWxlLm1hZT4nLCAnLW9tYWUnLCAnPG91dGZpbGUubWFlPic=

>  <r_lp_tautomer_probability>  (329) 
1

>  <r_epik_Ionization_Penalty>  (329) 
5.92907e-12

>  <r_epik_Ionization_Penalty_Charging>  (329) 
0

>  <r_epik_Ionization_Penalty_Neutral>  (329) 
5.92907e-12

>  <r_epik_State_Penalty>  (329) 
-0

>  <r_epik_Charging_Adjusted_Penalty>  (329) 
0

>  <i_epik_Tot_Q>  (329) 
0

>  <i_epik_Tot_abs_Q>  (329) 
0

>  <s_epik_Chemistry_Notes>  (329) 
This compound has an ester and may undergo hydrolysis at high or low pH. This compound contains an acetal/aminal-like group ( X-CH(R)-Y where X, Y are N, S, or O) that may be acid/base labile, releasing an aldehyde.

>  <s_lp_Force_Field>  (329) 
OPLS3e

>  <r_lp_Energy>  (329) 
36.7044

>  <b_lp_Chiralities_Consistent>  (329) 
1

>  <s_lp_Variant>  (329) 
101:0-1

>  <s_i_glide_gridfile>  (329) 
pfpi4k_grid

>  <i_i_glide_lignum>  (329) 
20

>  <i_i_glide_rotatable_bonds>  (329) 
4

>  <r_i_docking_score>  (329) 
-2.22224

>  <r_i_glide_ligand_efficiency>  (329) 
-0.0673407

>  <r_i_glide_ligand_efficiency_sa>  (329) 
-0.215998

>  <r_i_glide_ligand_efficiency_ln>  (329) 
-0.494216

>  <r_i_glide_gscore>  (329) 
-2.22224

>  <r_i_glide_lipo>  (329) 
-0.31074

>  <r_i_glide_hbond>  (329) 
-0.0708511

>  <r_i_glide_metal>  (329) 
-0

>  <r_i_glide_rewards>  (329) 
-0.396944

>  <r_i_glide_evdw>  (329) 
-25.2291

>  <r_i_glide_ecoul>  (329) 
-2.30674

>  <r_i_glide_erotb>  (329) 
0.28929

>  <r_i_glide_esite>  (329) 
-0.125535

>  <r_i_glide_emodel>  (329) 
-27.132

>  <r_i_glide_energy>  (329) 
-27.5358

>  <r_i_glide_einternal>  (329) 
8.73902

>  <r_i_glide_intrahb_reward>  (329) 
-0

>  <i_i_glide_confnum>  (329) 
5

>  <i_i_glide_posenum>  (329) 
8

>  <r_i_glide_eff_state_penalty>  (329) 
0

>  <ligand_id>  (329) 
101

>  <original_smiles>  (329) 
COCOC1C(=O)C(c2ccoc2)C2(C)CCC3C(CC4C5OC(=O)C(C)C5=COC43C)C12

>  <smiles>  (329) 
[H]C1=C2C([H])(OC(=O)C2([H])C([H])([H])[H])C2([H])C([H])([H])C3([H])C([H])(C([H])([H])C([H])([H])C4(C([H])([H])[H])C([H])(c5c([H])oc([H])c5[H])C(=O)C([H])(OC([H])([H])OC([H])([H])[H])C34[H])C2(C([H])([H])[H])O1

$$$$
101:0:2
     RDKit          3D

 65 70  0  0  1  0  0  0  0  0999 V2000
   -1.0899   -4.3166    7.1301 C   0  0  0  0  0  0  0  0  0  0  0  0
   -1.3533   -3.0529    6.5390 O   0  0  0  0  0  0  0  0  0  0  0  0
   -0.5177   -2.7443    5.4711 C   0  0  0  0  0  0  0  0  0  0  0  0
    0.8045   -2.5938    5.8629 O   0  0  0  0  0  0  0  0  0  0  0  0
    1.7126   -2.3874    4.7794 C   0  0  2  0  0  0  0  0  0  0  0  0
    2.1456   -3.7067    4.1533 C   0  0  0  0  0  0  0  0  0  0  0  0
    1.4163   -4.4211    3.4602 O   0  0  0  0  0  0  0  0  0  0  0  0
    3.6034   -3.9826    4.4820 C   0  0  1  0  0  0  0  0  0  0  0  0
    4.3225   -4.9511    3.5571 C   0  0  0  0  0  0  0  0  0  0  0  0
    4.1837   -5.1237    2.1503 C   0  0  0  0  0  0  0  0  0  0  0  0
    5.0417   -6.1215    1.7805 C   0  0  0  0  0  0  0  0  0  0  0  0
    5.7099   -6.5941    2.8618 O   0  0  0  0  0  0  0  0  0  0  0  0
    5.2598   -5.8854    3.9269 C   0  0  0  0  0  0  0  0  0  0  0  0
    4.2065   -2.5582    4.6485 C   0  0  1  0  0  0  0  0  0  0  0  0
    5.4137   -2.6542    5.5989 C   0  0  0  0  0  0  0  0  0  0  0  0
    4.6749   -1.8639    3.3212 C   0  0  0  0  0  0  0  0  0  0  0  0
    3.6621   -0.8772    2.7057 C   0  0  0  0  0  0  0  0  0  0  0  0
    3.3315    0.2497    3.7033 C   0  0  2  0  0  0  0  0  0  0  0  0
    3.1462   -0.2401    5.1549 C   0  0  1  0  0  0  0  0  0  0  0  0
    1.9829    0.5769    5.7422 C   0  0  0  0  0  0  0  0  0  0  0  0
    1.8041    1.7549    4.7791 C   0  0  2  0  0  0  0  0  0  0  0  0
    0.4340    2.4425    4.8023 C   0  0  2  0  0  0  0  0  0  0  0  0
   -0.1740    2.6376    6.0642 O   0  0  0  0  0  0  0  0  0  0  0  0
   -1.5011    2.3801    6.0281 C   0  0  0  0  0  0  0  0  0  0  0  0
   -2.2847    2.4785    6.9683 O   0  0  0  0  0  0  0  0  0  0  0  0
   -1.9174    1.9382    4.6275 C   0  0  1  0  0  0  0  0  0  0  0  0
   -2.6390    3.0740    3.8908 C   0  0  0  0  0  0  0  0  0  0  0  0
   -0.5710    1.6494    4.0413 C   0  0  0  0  0  0  0  0  0  0  0  0
   -0.2411    0.6609    3.1938 C   0  0  0  0  0  0  0  0  0  0  0  0
    1.0526    0.3265    2.8667 O   0  0  0  0  0  0  0  0  0  0  0  0
    2.1165    1.1497    3.3886 C   0  0  2  0  0  0  0  0  0  0  0  0
    2.4170    2.2095    2.3204 C   0  0  0  0  0  0  0  0  0  0  0  0
    3.0290   -1.7767    5.3101 C   0  0  1  0  0  0  0  0  0  0  0  0
   -1.7934   -4.4974    7.9453 H   0  0  0  0  0  0  0  0  0  0  0  0
   -0.0823   -4.3628    7.5466 H   0  0  0  0  0  0  0  0  0  0  0  0
   -1.2080   -5.1209    6.4040 H   0  0  0  0  0  0  0  0  0  0  0  0
   -0.5782   -3.5066    4.6970 H   0  0  0  0  0  0  0  0  0  0  0  0
   -0.8650   -1.7959    5.0600 H   0  0  0  0  0  0  0  0  0  0  0  0
    1.2603   -1.7617    4.0114 H   0  0  0  0  0  0  0  0  0  0  0  0
    3.5700   -4.4638    5.4627 H   0  0  0  0  0  0  0  0  0  0  0  0
    3.5363   -4.5810    1.4797 H   0  0  0  0  0  0  0  0  0  0  0  0
    5.2906   -6.5931    0.8445 H   0  0  0  0  0  0  0  0  0  0  0  0
    5.7077   -6.1631    4.8691 H   0  0  0  0  0  0  0  0  0  0  0  0
    5.8079   -1.6630    5.8335 H   0  0  0  0  0  0  0  0  0  0  0  0
    6.2100   -3.2351    5.1327 H   0  0  0  0  0  0  0  0  0  0  0  0
    5.1543   -3.1464    6.5388 H   0  0  0  0  0  0  0  0  0  0  0  0
    5.5934   -1.3004    3.5127 H   0  0  0  0  0  0  0  0  0  0  0  0
    4.9696   -2.5855    2.5657 H   0  0  0  0  0  0  0  0  0  0  0  0
    4.0909   -0.4431    1.8051 H   0  0  0  0  0  0  0  0  0  0  0  0
    2.7682   -1.4028    2.3713 H   0  0  0  0  0  0  0  0  0  0  0  0
    4.2102    0.8968    3.7234 H   0  0  0  0  0  0  0  0  0  0  0  0
    4.0485    0.0424    5.6962 H   0  0  0  0  0  0  0  0  0  0  0  0
    1.0683   -0.0103    5.7878 H   0  0  0  0  0  0  0  0  0  0  0  0
    2.2020    0.9117    6.7537 H   0  0  0  0  0  0  0  0  0  0  0  0
    2.5642    2.4977    5.0225 H   0  0  0  0  0  0  0  0  0  0  0  0
    0.5077    3.4074    4.3045 H   0  0  0  0  0  0  0  0  0  0  0  0
   -2.5345    1.0396    4.6697 H   0  0  0  0  0  0  0  0  0  0  0  0
   -2.0327    3.9856    3.8624 H   0  0  0  0  0  0  0  0  0  0  0  0
   -3.5843    3.3184    4.3782 H   0  0  0  0  0  0  0  0  0  0  0  0
   -2.8623    2.7922    2.8597 H   0  0  0  0  0  0  0  0  0  0  0  0
   -0.9728    0.0278    2.7173 H   0  0  0  0  0  0  0  0  0  0  0  0
    3.2214    2.8806    2.6231 H   0  0  0  0  0  0  0  0  0  0  0  0
    1.5436    2.8265    2.1042 H   0  0  0  0  0  0  0  0  0  0  0  0
    2.7009    1.7272    1.3871 H   0  0  0  0  0  0  0  0  0  0  0  0
    3.0497   -2.0004    6.3772 H   0  0  0  0  0  0  0  0  0  0  0  0
  1  2  1  0
  1 34  1  0
  1 35  1  0
  1 36  1  0
  2  3  1  0
  3  4  1  0
  3 37  1  0
  3 38  1  0
  4  5  1  0
  5 33  1  0
  5  6  1  0
  5 39  1  6
  6  7  2  0
  6  8  1  0
  8  9  1  0
  8 14  1  0
  8 40  1  1
  9 13  2  0
  9 10  1  0
 10 11  2  0
 10 41  1  0
 11 12  1  0
 11 42  1  0
 12 13  1  0
 13 43  1  0
 14 33  1  0
 14 15  1  1
 14 16  1  0
 15 44  1  0
 15 45  1  0
 15 46  1  0
 16 17  1  0
 16 47  1  0
 16 48  1  0
 17 18  1  0
 17 49  1  0
 17 50  1  0
 18 31  1  0
 18 19  1  0
 18 51  1  1
 19 20  1  0
 19 33  1  0
 19 52  1  1
 20 21  1  0
 20 53  1  0
 20 54  1  0
 21 31  1  0
 21 22  1  0
 21 55  1  1
 22 28  1  0
 22 23  1  0
 22 56  1  6
 23 24  1  0
 24 25  2  0
 24 26  1  0
 26 27  1  0
 26 28  1  0
 26 57  1  1
 27 58  1  0
 27 59  1  0
 27 60  1  0
 28 29  2  0
 29 30  1  0
 29 61  1  0
 30 31  1  0
 31 32  1  6
 32 62  1  0
 32 63  1  0
 32 64  1  0
 33 65  1  1
M  END
>  <i_m_ct_stereo_status>  (330) 
1

>  <s_m_source_file>  (330) 
/var/tmp/pbs.5076255.sched01/tmpb6g28bo8/1236hu3uqnd.sdf

>  <i_m_source_file_index>  (330) 
20

>  <i_lp_mmshare_version>  (330) 
48012

>  <i_f3d_flags>  (330) 
0

>  <s_epik_input>  (330) 
W2NIXTFvW2NIXVtjSF1jMVtDQEBIXTJDKD1PKVtDQEBIXShPW0NIMl1PW0NIM10pW0NAQEhdKFtDQEBdMjNbQ0gzXSlbQ0BIXTRbQ0BASF0oW0NIMl1bQ0gyXTMpW0NAXTUoW0NIM10pW0NASF0oW0NIMl00KVtDQEhdNkMoPVtDSF1PNSlbQ0BASF0oQyhPNik9TylbQ0gzXQ==

>  <s_epik_cmdline>  (330) 
J2VwaWtfcHl0aG9uJywgJy1waHQnLCAnMi4wJywgJy1waCcsICc3LjAnLCAnLXRuJywgJzgnLCAnLW1hJywgJzIwMCcsICctaW1hZScsICc8aW5maWxlLm1hZT4nLCAnLW9tYWUnLCAnPG91dGZpbGUubWFlPic=

>  <r_lp_tautomer_probability>  (330) 
1

>  <r_epik_Ionization_Penalty>  (330) 
5.92907e-12

>  <r_epik_Ionization_Penalty_Charging>  (330) 
0

>  <r_epik_Ionization_Penalty_Neutral>  (330) 
5.92907e-12

>  <r_epik_State_Penalty>  (330) 
-0

>  <r_epik_Charging_Adjusted_Penalty>  (330) 
0

>  <i_epik_Tot_Q>  (330) 
0

>  <i_epik_Tot_abs_Q>  (330) 
0

>  <s_epik_Chemistry_Notes>  (330) 
This compound has an ester and may undergo hydrolysis at high or low pH. This compound contains an acetal/aminal-like group ( X-CH(R)-Y where X, Y are N, S, or O) that may be acid/base labile, releasing an aldehyde.

>  <s_lp_Force_Field>  (330) 
OPLS3e

>  <r_lp_Energy>  (330) 
36.7044

>  <b_lp_Chiralities_Consistent>  (330) 
1

>  <s_lp_Variant>  (330) 
101:0-1

>  <s_i_glide_gridfile>  (330) 
pfpi4k_grid

>  <i_i_glide_lignum>  (330) 
20

>  <i_i_glide_rotatable_bonds>  (330) 
4

>  <r_i_docking_score>  (330) 
-1.7015

>  <r_i_glide_ligand_efficiency>  (330) 
-0.0515605

>  <r_i_glide_ligand_efficiency_sa>  (330) 
-0.165382

>  <r_i_glide_ligand_efficiency_ln>  (330) 
-0.378404

>  <r_i_glide_gscore>  (330) 
-1.7015

>  <r_i_glide_lipo>  (330) 
-0.124004

>  <r_i_glide_hbond>  (330) 
0

>  <r_i_glide_metal>  (330) 
-0

>  <r_i_glide_rewards>  (330) 
-0.312338

>  <r_i_glide_evdw>  (330) 
-22.2972

>  <r_i_glide_ecoul>  (330) 
-2.81513

>  <r_i_glide_erotb>  (330) 
0.28929

>  <r_i_glide_esite>  (330) 
-0.0173144

>  <r_i_glide_emodel>  (330) 
-27.2005

>  <r_i_glide_energy>  (330) 
-25.1123

>  <r_i_glide_einternal>  (330) 
2.23476

>  <r_i_glide_intrahb_reward>  (330) 
-0

>  <i_i_glide_confnum>  (330) 
3

>  <i_i_glide_posenum>  (330) 
15

>  <r_i_glide_eff_state_penalty>  (330) 
0

>  <ligand_id>  (330) 
101

>  <original_smiles>  (330) 
COCOC1C(=O)C(c2ccoc2)C2(C)CCC3C(CC4C5OC(=O)C(C)C5=COC43C)C12

>  <smiles>  (330) 
[H]C1=C2C([H])(OC(=O)C2([H])C([H])([H])[H])C2([H])C([H])([H])C3([H])C([H])(C([H])([H])C([H])([H])C4(C([H])([H])[H])C([H])(c5c([H])oc([H])c5[H])C(=O)C([H])(OC([H])([H])OC([H])([H])[H])C34[H])C2(C([H])([H])[H])O1

$$$$
102:0:0
     RDKit          3D

 74 79  0  0  1  0  0  0  0  0999 V2000
   -2.7381    2.6322    6.8389 C   0  0  0  0  0  0  0  0  0  0  0  0
   -1.9229    2.0971    5.6469 C   0  0  2  0  0  0  0  0  0  0  0  0
   -0.8126    1.1596    6.1140 C   0  0  0  0  0  0  0  0  0  0  0  0
   -1.0155    0.1621    6.8086 O   0  0  0  0  0  0  0  0  0  0  0  0
    0.5647    1.6734    5.6417 C   0  0  2  0  0  0  0  0  0  0  0  0
    0.2271    3.1786    5.6202 C   0  0  1  0  0  0  0  0  0  0  0  0
    1.1954    4.0298    5.0334 O   0  0  0  0  0  0  0  0  0  0  0  0
   -1.1320    3.1834    4.8905 C   0  0  1  0  0  0  0  0  0  0  0  0
   -0.9562    2.7770    3.3993 C   0  0  0  0  0  0  0  0  0  0  0  0
   -0.2933    1.3835    3.2040 C   0  0  0  0  0  0  0  0  0  0  0  0
    0.9064    1.1894    4.1724 C   0  0  2  0  0  0  0  0  0  0  0  0
    1.7394   -0.1619    4.0867 C   0  0  1  0  0  0  0  0  0  0  0  0
    0.9234   -1.3624    4.6377 C   0  0  0  0  0  0  0  0  0  0  0  0
    2.0918   -0.4966    2.6132 C   0  0  0  0  0  0  0  0  0  0  0  0
    3.4015   -1.3180    2.4677 C   0  0  1  0  0  0  0  0  0  0  0  0
    3.6691   -1.7954    1.0758 N   0  0  0  0  0  0  0  0  0  0  0  0
    3.6121   -0.7142    0.0771 C   0  0  0  0  0  0  0  0  0  0  0  0
    3.9992   -1.2246   -1.3200 C   0  0  0  0  0  0  0  0  0  0  0  0
    3.1301   -2.3485   -1.7308 N   0  0  0  0  0  0  0  0  0  0  0  0
    3.4480   -2.8260   -3.1022 C   0  0  0  0  0  0  0  0  0  0  0  0
    3.2125   -3.4342   -0.7280 C   0  0  0  0  0  0  0  0  0  0  0  0
    2.8182   -2.9176    0.6726 C   0  0  0  0  0  0  0  0  0  0  0  0
    4.5590   -0.4584    3.0192 C   0  0  0  0  0  0  0  0  0  0  0  0
    5.6493   -0.3482    2.4682 O   0  0  0  0  0  0  0  0  0  0  0  0
    4.2564    0.2051    4.1478 O   0  0  0  0  0  0  0  0  0  0  0  0
    3.0856   -0.0380    4.9189 C   0  0  1  0  0  0  0  0  0  0  0  0
    3.0225    1.1536    5.8761 C   0  0  1  0  0  0  0  0  0  0  0  0
    1.6921    1.2470    6.5818 C   0  0  1  0  0  0  0  0  0  0  0  0
    2.4153    2.0687    7.6466 C   0  0  1  0  0  0  0  0  0  0  0  0
    1.9879    1.9024    8.9769 O   0  0  0  0  0  0  0  0  0  0  0  0
    3.7287    1.3318    7.2317 C   0  0  0  0  0  0  0  0  0  0  0  0
    4.0850    0.0228    7.9489 C   0  0  0  0  0  0  0  0  0  0  0  0
    4.9770    2.2169    7.2354 C   0  0  0  0  0  0  0  0  0  0  0  0
   -3.2620    1.8262    7.3497 H   0  0  0  0  0  0  0  0  0  0  0  0
   -3.4877    3.3441    6.5001 H   0  0  0  0  0  0  0  0  0  0  0  0
   -2.1096    3.1371    7.5753 H   0  0  0  0  0  0  0  0  0  0  0  0
   -2.5745    1.5589    4.9608 H   0  0  0  0  0  0  0  0  0  0  0  0
    0.0915    3.5366    6.6409 H   0  0  0  0  0  0  0  0  0  0  0  0
    1.2957    3.7982    4.1219 H   0  0  0  0  0  0  0  0  0  0  0  0
   -1.6133    4.1607    4.9674 H   0  0  0  0  0  0  0  0  0  0  0  0
   -1.9236    2.7870    2.8916 H   0  0  0  0  0  0  0  0  0  0  0  0
   -0.3549    3.5343    2.8931 H   0  0  0  0  0  0  0  0  0  0  0  0
   -1.0357    0.5949    3.3313 H   0  0  0  0  0  0  0  0  0  0  0  0
    0.0396    1.3190    2.1664 H   0  0  0  0  0  0  0  0  0  0  0  0
    1.6185    1.9110    3.7675 H   0  0  0  0  0  0  0  0  0  0  0  0
    1.4233   -2.3092    4.4302 H   0  0  0  0  0  0  0  0  0  0  0  0
   -0.0732   -1.4187    4.2027 H   0  0  0  0  0  0  0  0  0  0  0  0
    0.8070   -1.3219    5.7175 H   0  0  0  0  0  0  0  0  0  0  0  0
    1.2611   -1.0183    2.1442 H   0  0  0  0  0  0  0  0  0  0  0  0
    2.1919    0.4461    2.0727 H   0  0  0  0  0  0  0  0  0  0  0  0
    3.3364   -2.2011    3.1038 H   0  0  0  0  0  0  0  0  0  0  0  0
    2.6156   -0.2861    0.0539 H   0  0  0  0  0  0  0  0  0  0  0  0
    4.2838    0.1061    0.3327 H   0  0  0  0  0  0  0  0  0  0  0  0
    3.9021   -0.4106   -2.0387 H   0  0  0  0  0  0  0  0  0  0  0  0
    5.0449   -1.5301   -1.3318 H   0  0  0  0  0  0  0  0  0  0  0  0
    4.4739   -3.1996   -3.1494 H   0  0  0  0  0  0  0  0  0  0  0  0
    3.3572   -2.0207   -3.8331 H   0  0  0  0  0  0  0  0  0  0  0  0
    2.7866   -3.6372   -3.4112 H   0  0  0  0  0  0  0  0  0  0  0  0
    2.5500   -4.2484   -1.0241 H   0  0  0  0  0  0  0  0  0  0  0  0
    4.2202   -3.8490   -0.7123 H   0  0  0  0  0  0  0  0  0  0  0  0
    2.9192   -3.7319    1.3941 H   0  0  0  0  0  0  0  0  0  0  0  0
    1.7769   -2.6235    0.6722 H   0  0  0  0  0  0  0  0  0  0  0  0
    3.2438   -0.9653    5.4710 H   0  0  0  0  0  0  0  0  0  0  0  0
    3.1830    2.0839    5.3225 H   0  0  0  0  0  0  0  0  0  0  0  0
    1.4643    0.2813    7.0385 H   0  0  0  0  0  0  0  0  0  0  0  0
    2.4530    3.1341    7.3994 H   0  0  0  0  0  0  0  0  0  0  0  0
    1.2713    2.5028    9.1196 H   0  0  0  0  0  0  0  0  0  0  0  0
    4.4039    0.1978    8.9772 H   0  0  0  0  0  0  0  0  0  0  0  0
    4.8924   -0.4921    7.4262 H   0  0  0  0  0  0  0  0  0  0  0  0
    3.2405   -0.6677    7.9816 H   0  0  0  0  0  0  0  0  0  0  0  0
    5.3014    2.4345    8.2536 H   0  0  0  0  0  0  0  0  0  0  0  0
    4.7789    3.1784    6.7553 H   0  0  0  0  0  0  0  0  0  0  0  0
    5.8077    1.7530    6.7028 H   0  0  0  0  0  0  0  0  0  0  0  0
    2.1789   -1.9905   -1.6959 H   0  0  0  0  0  0  0  0  0  0  0  0
  1  2  1  0
  1 34  1  0
  1 35  1  0
  1 36  1  0
  2  8  1  0
  2  3  1  0
  2 37  1  6
  3  4  2  0
  5  3  1  1
  5 11  1  0
  5 28  1  0
  5  6  1  0
  6  7  1  0
  6  8  1  0
  6 38  1  1
  7 39  1  0
  8  9  1  0
  8 40  1  6
  9 10  1  0
  9 41  1  0
  9 42  1  0
 10 11  1  0
 10 43  1  0
 10 44  1  0
 11 12  1  0
 11 45  1  6
 12 26  1  0
 12 13  1  1
 12 14  1  0
 13 46  1  0
 13 47  1  0
 13 48  1  0
 14 15  1  0
 14 49  1  0
 14 50  1  0
 15 16  1  0
 15 23  1  0
 15 51  1  1
 16 22  1  0
 16 17  1  0
 17 18  1  0
 17 52  1  0
 17 53  1  0
 18 19  1  0
 18 54  1  0
 18 55  1  0
 19 20  1  0
 19 21  1  0
 19 74  1  0
 20 56  1  0
 20 57  1  0
 20 58  1  0
 21 22  1  0
 21 59  1  0
 21 60  1  0
 22 61  1  0
 22 62  1  0
 23 24  2  0
 23 25  1  0
 25 26  1  0
 26 27  1  0
 26 63  1  1
 27 31  1  0
 27 28  1  0
 27 64  1  6
 28 29  1  0
 28 65  1  1
 29 30  1  0
 29 31  1  0
 29 66  1  6
 30 67  1  0
 31 32  1  0
 31 33  1  0
 32 68  1  0
 32 69  1  0
 32 70  1  0
 33 71  1  0
 33 72  1  0
 33 73  1  0
M  CHG  1  19   1
M  END
>  <i_m_ct_stereo_status>  (331) 
1

>  <s_m_source_file>  (331) 
/var/tmp/pbs.5076255.sched01/tmpb6g28bo8/1236hu3uqnd.sdf

>  <i_m_source_file_index>  (331) 
21

>  <i_lp_mmshare_version>  (331) 
48012

>  <i_f3d_flags>  (331) 
0

>  <s_epik_input>  (331) 
Tz1DMVtDQEBIXShbQ0gzXSlbQ0BASF0oW0NAQEhdMltPSF0pW0NIMl1bQ0gyXVtDQEBIXShbQ0BdMTIzKVtDQF00KFtDSDNdKVtDQEhdKFtDQEhdNVtDQEhdM1tDQEBIXShbT0hdKUM1KFtDSDNdKVtDSDNdKU9DKD1PKVtDQEBIXShbQ0gyXTQpTjZbQ0gyXVtDSDJdTihbQ0gzXSlbQ0gyXVtDSDJdNg==

>  <s_epik_cmdline>  (331) 
J2VwaWtfcHl0aG9uJywgJy1waHQnLCAnMi4wJywgJy1waCcsICc3LjAnLCAnLXRuJywgJzgnLCAnLW1hJywgJzIwMCcsICctaW1hZScsICc8aW5maWxlLm1hZT4nLCAnLW9tYWUnLCAnPG91dGZpbGUubWFlPic=

>  <r_lp_tautomer_probability>  (331) 
0.99995

>  <r_epik_Ionization_Penalty>  (331) 
0.0516062

>  <r_epik_Ionization_Penalty_Charging>  (331) 
0.0503692

>  <r_epik_Ionization_Penalty_Neutral>  (331) 
0.00123693

>  <r_epik_State_Penalty>  (331) 
0.201045

>  <r_epik_Charging_Adjusted_Penalty>  (331) 
0.251414

>  <i_epik_Tot_Q>  (331) 
1

>  <i_epik_Tot_abs_Q>  (331) 
1

>  <s_epik_Chemistry_Notes>  (331) 
This compound has an ester and may undergo hydrolysis at high or low pH.

>  <s_lp_Force_Field>  (331) 
OPLS3e

>  <r_lp_Energy>  (331) 
94.8701

>  <b_lp_Chiralities_Consistent>  (331) 
1

>  <s_lp_Variant>  (331) 
102:0-1

>  <s_i_glide_gridfile>  (331) 
pfpi4k_grid

>  <i_i_glide_lignum>  (331) 
21

>  <i_i_glide_rotatable_bonds>  (331) 
3

>  <r_i_docking_score>  (331) 
-3.5329

>  <r_i_glide_ligand_efficiency>  (331) 
-0.107058

>  <r_i_glide_ligand_efficiency_sa>  (331) 
-0.343391

>  <r_i_glide_ligand_efficiency_ln>  (331) 
-0.785699

>  <r_i_glide_gscore>  (331) 
-3.5329

>  <r_i_glide_lipo>  (331) 
-0.316402

>  <r_i_glide_hbond>  (331) 
-0.471887

>  <r_i_glide_metal>  (331) 
-0

>  <r_i_glide_rewards>  (331) 
-0.376171

>  <r_i_glide_evdw>  (331) 
-22.7911

>  <r_i_glide_ecoul>  (331) 
-8.23993

>  <r_i_glide_erotb>  (331) 
0.0945037

>  <r_i_glide_esite>  (331) 
-0.0873987

>  <r_i_glide_emodel>  (331) 
-38.4663

>  <r_i_glide_energy>  (331) 
-31.0311

>  <r_i_glide_einternal>  (331) 
1.16966

>  <r_i_glide_intrahb_reward>  (331) 
-0

>  <i_i_glide_confnum>  (331) 
4

>  <i_i_glide_posenum>  (331) 
20

>  <r_i_glide_eff_state_penalty>  (331) 
0

>  <ligand_id>  (331) 
102

>  <original_smiles>  (331) 
CC1C(=O)C23C(O)C1CCC2C1(C)CC(N2CCN(C)CC2)C(=O)OC1C1C3C(O)C1(C)C

>  <smiles>  (331) 
[H]OC1([H])C2([H])C([H])([H])C([H])([H])C3([H])C1(C(=O)C2([H])C([H])([H])[H])C1([H])C([H])(O[H])C(C([H])([H])[H])(C([H])([H])[H])C1([H])C1([H])OC(=O)C([H])(N2C([H])([H])C([H])([H])[N+]([H])(C([H])([H])[H])C([H])([H])C2([H])[H])C([H])([H])C13C([H])([H])[H]

$$$$
102:0:1
     RDKit          3D

 74 79  0  0  1  0  0  0  0  0999 V2000
   -2.6950    2.5908    6.6113 C   0  0  0  0  0  0  0  0  0  0  0  0
   -1.9197    2.0028    5.4216 C   0  0  2  0  0  0  0  0  0  0  0  0
   -0.7534    1.1416    5.8921 C   0  0  0  0  0  0  0  0  0  0  0  0
   -0.8864    0.1868    6.6611 O   0  0  0  0  0  0  0  0  0  0  0  0
    0.5817    1.6730    5.3255 C   0  0  2  0  0  0  0  0  0  0  0  0
    0.1868    3.1602    5.2113 C   0  0  1  0  0  0  0  0  0  0  0  0
    1.0890    4.0054    4.5165 O   0  0  0  0  0  0  0  0  0  0  0  0
   -1.2069    3.0594    4.5554 C   0  0  1  0  0  0  0  0  0  0  0  0
   -1.0834    2.5544    3.0893 C   0  0  0  0  0  0  0  0  0  0  0  0
   -0.3686    1.1824    2.9539 C   0  0  0  0  0  0  0  0  0  0  0  0
    0.8827    1.1019    3.8739 C   0  0  2  0  0  0  0  0  0  0  0  0
    1.7652   -0.2165    3.8429 C   0  0  1  0  0  0  0  0  0  0  0  0
    1.0277   -1.4075    4.5110 C   0  0  0  0  0  0  0  0  0  0  0  0
    2.0678   -0.6377    2.3790 C   0  0  0  0  0  0  0  0  0  0  0  0
    3.4062   -1.4246    2.2254 C   0  0  1  0  0  0  0  0  0  0  0  0
    3.6337   -1.9791    0.8547 N   0  0  0  0  0  0  0  0  0  0  0  0
    3.6015   -0.9566   -0.2006 C   0  0  0  0  0  0  0  0  0  0  0  0
    3.9497   -1.5434   -1.5696 C   0  0  0  0  0  0  0  0  0  0  0  0
    3.0221   -2.6372   -1.9184 N   0  0  0  0  0  0  0  0  0  0  0  0
    3.2991   -3.1829   -3.2677 C   0  0  0  0  0  0  0  0  0  0  0  0
    3.0588   -3.6765   -0.8661 C   0  0  0  0  0  0  0  0  0  0  0  0
    2.7197   -3.0721    0.5138 C   0  0  0  0  0  0  0  0  0  0  0  0
    4.5459   -0.4931    2.6799 C   0  0  0  0  0  0  0  0  0  0  0  0
    5.6174   -0.3886    2.0906 O   0  0  0  0  0  0  0  0  0  0  0  0
    4.2648    0.2419    3.7657 O   0  0  0  0  0  0  0  0  0  0  0  0
    3.1382    0.0128    4.6017 C   0  0  1  0  0  0  0  0  0  0  0  0
    3.0713    1.2648    5.4781 C   0  0  1  0  0  0  0  0  0  0  0  0
    1.7707    1.3566    6.2411 C   0  0  1  0  0  0  0  0  0  0  0  0
    2.5112    2.2803    7.2050 C   0  0  1  0  0  0  0  0  0  0  0  0
    2.1468    2.2219    8.5644 O   0  0  0  0  0  0  0  0  0  0  0  0
    3.8366    1.5641    6.7830 C   0  0  0  0  0  0  0  0  0  0  0  0
    4.2793    0.3210    7.5626 C   0  0  0  0  0  0  0  0  0  0  0  0
    5.0446    2.4979    6.6588 C   0  0  0  0  0  0  0  0  0  0  0  0
   -3.1558    1.8024    7.2089 H   0  0  0  0  0  0  0  0  0  0  0  0
   -3.4913    3.2486    6.2648 H   0  0  0  0  0  0  0  0  0  0  0  0
   -2.0514    3.1696    7.2780 H   0  0  0  0  0  0  0  0  0  0  0  0
   -2.5874    1.3998    4.8083 H   0  0  0  0  0  0  0  0  0  0  0  0
    0.0907    3.5825    6.2133 H   0  0  0  0  0  0  0  0  0  0  0  0
    1.0846    3.7761    3.5979 H   0  0  0  0  0  0  0  0  0  0  0  0
   -1.7173    4.0226    4.5860 H   0  0  0  0  0  0  0  0  0  0  0  0
   -2.0715    2.4928    2.6306 H   0  0  0  0  0  0  0  0  0  0  0  0
   -0.5436    3.3001    2.5081 H   0  0  0  0  0  0  0  0  0  0  0  0
   -1.0691    0.3740    3.1689 H   0  0  0  0  0  0  0  0  0  0  0  0
   -0.0783    1.0615    1.9084 H   0  0  0  0  0  0  0  0  0  0  0  0
    1.5431    1.8207    3.3893 H   0  0  0  0  0  0  0  0  0  0  0  0
    1.5557   -2.3490    4.3460 H   0  0  0  0  0  0  0  0  0  0  0  0
    0.0116   -1.5342    4.1316 H   0  0  0  0  0  0  0  0  0  0  0  0
    0.9585   -1.2971    5.5909 H   0  0  0  0  0  0  0  0  0  0  0  0
    1.2268   -1.2186    1.9936 H   0  0  0  0  0  0  0  0  0  0  0  0
    2.0997    0.2639    1.7592 H   0  0  0  0  0  0  0  0  0  0  0  0
    3.3880   -2.2666    2.9142 H   0  0  0  0  0  0  0  0  0  0  0  0
    2.6179   -0.5033   -0.2375 H   0  0  0  0  0  0  0  0  0  0  0  0
    4.3040   -0.1457   -0.0196 H   0  0  0  0  0  0  0  0  0  0  0  0
    3.8874   -0.7537   -2.3171 H   0  0  0  0  0  0  0  0  0  0  0  0
    4.9784   -1.9032   -1.5737 H   0  0  0  0  0  0  0  0  0  0  0  0
    4.3011   -3.6252   -3.3049 H   0  0  0  0  0  0  0  0  0  0  0  0
    3.2528   -2.4026   -4.0313 H   0  0  0  0  0  0  0  0  0  0  0  0
    2.5773   -3.9537   -3.5447 H   0  0  0  0  0  0  0  0  0  0  0  0
    2.3386   -4.4557   -1.1079 H   0  0  0  0  0  0  0  0  0  0  0  0
    4.0388   -4.1492   -0.8429 H   0  0  0  0  0  0  0  0  0  0  0  0
    2.7680   -3.8561    1.2745 H   0  0  0  0  0  0  0  0  0  0  0  0
    1.7053   -2.6925    0.4941 H   0  0  0  0  0  0  0  0  0  0  0  0
    3.3592   -0.8681    5.2067 H   0  0  0  0  0  0  0  0  0  0  0  0
    3.1696    2.1583    4.8528 H   0  0  0  0  0  0  0  0  0  0  0  0
    1.6091    0.4117    6.7620 H   0  0  0  0  0  0  0  0  0  0  0  0
    2.4897    3.3198    6.8661 H   0  0  0  0  0  0  0  0  0  0  0  0
    2.2916    1.3348    8.8552 H   0  0  0  0  0  0  0  0  0  0  0  0
    4.6396    0.5774    8.5596 H   0  0  0  0  0  0  0  0  0  0  0  0
    5.0812   -0.1980    7.0354 H   0  0  0  0  0  0  0  0  0  0  0  0
    3.4662   -0.3990    7.6779 H   0  0  0  0  0  0  0  0  0  0  0  0
    5.4057    2.8003    7.6409 H   0  0  0  0  0  0  0  0  0  0  0  0
    4.7827    3.4117    6.1254 H   0  0  0  0  0  0  0  0  0  0  0  0
    5.8691    2.0330    6.1188 H   0  0  0  0  0  0  0  0  0  0  0  0
    2.0939   -2.2253   -1.8992 H   0  0  0  0  0  0  0  0  0  0  0  0
  1  2  1  0
  1 34  1  0
  1 35  1  0
  1 36  1  0
  2  8  1  0
  2  3  1  0
  2 37  1  6
  3  4  2  0
  5  3  1  1
  5 11  1  0
  5 28  1  0
  5  6  1  0
  6  7  1  0
  6  8  1  0
  6 38  1  1
  7 39  1  0
  8  9  1  0
  8 40  1  6
  9 10  1  0
  9 41  1  0
  9 42  1  0
 10 11  1  0
 10 43  1  0
 10 44  1  0
 11 12  1  0
 11 45  1  6
 12 26  1  0
 12 13  1  1
 12 14  1  0
 13 46  1  0
 13 47  1  0
 13 48  1  0
 14 15  1  0
 14 49  1  0
 14 50  1  0
 15 16  1  0
 15 23  1  0
 15 51  1  1
 16 22  1  0
 16 17  1  0
 17 18  1  0
 17 52  1  0
 17 53  1  0
 18 19  1  0
 18 54  1  0
 18 55  1  0
 19 20  1  0
 19 21  1  0
 19 74  1  0
 20 56  1  0
 20 57  1  0
 20 58  1  0
 21 22  1  0
 21 59  1  0
 21 60  1  0
 22 61  1  0
 22 62  1  0
 23 24  2  0
 23 25  1  0
 25 26  1  0
 26 27  1  0
 26 63  1  1
 27 31  1  0
 27 28  1  0
 27 64  1  6
 28 29  1  0
 28 65  1  1
 29 30  1  0
 29 31  1  0
 29 66  1  6
 30 67  1  0
 31 32  1  0
 31 33  1  0
 32 68  1  0
 32 69  1  0
 32 70  1  0
 33 71  1  0
 33 72  1  0
 33 73  1  0
M  CHG  1  19   1
M  END
>  <i_m_ct_stereo_status>  (332) 
1

>  <s_m_source_file>  (332) 
/var/tmp/pbs.5076255.sched01/tmpb6g28bo8/1236hu3uqnd.sdf

>  <i_m_source_file_index>  (332) 
21

>  <i_lp_mmshare_version>  (332) 
48012

>  <i_f3d_flags>  (332) 
0

>  <s_epik_input>  (332) 
Tz1DMVtDQEBIXShbQ0gzXSlbQ0BASF0oW0NAQEhdMltPSF0pW0NIMl1bQ0gyXVtDQEBIXShbQ0BdMTIzKVtDQF00KFtDSDNdKVtDQEhdKFtDQEhdNVtDQEhdM1tDQEBIXShbT0hdKUM1KFtDSDNdKVtDSDNdKU9DKD1PKVtDQEBIXShbQ0gyXTQpTjZbQ0gyXVtDSDJdTihbQ0gzXSlbQ0gyXVtDSDJdNg==

>  <s_epik_cmdline>  (332) 
J2VwaWtfcHl0aG9uJywgJy1waHQnLCAnMi4wJywgJy1waCcsICc3LjAnLCAnLXRuJywgJzgnLCAnLW1hJywgJzIwMCcsICctaW1hZScsICc8aW5maWxlLm1hZT4nLCAnLW9tYWUnLCAnPG91dGZpbGUubWFlPic=

>  <r_lp_tautomer_probability>  (332) 
0.99995

>  <r_epik_Ionization_Penalty>  (332) 
0.0516062

>  <r_epik_Ionization_Penalty_Charging>  (332) 
0.0503692

>  <r_epik_Ionization_Penalty_Neutral>  (332) 
0.00123693

>  <r_epik_State_Penalty>  (332) 
0.201045

>  <r_epik_Charging_Adjusted_Penalty>  (332) 
0.251414

>  <i_epik_Tot_Q>  (332) 
1

>  <i_epik_Tot_abs_Q>  (332) 
1

>  <s_epik_Chemistry_Notes>  (332) 
This compound has an ester and may undergo hydrolysis at high or low pH.

>  <s_lp_Force_Field>  (332) 
OPLS3e

>  <r_lp_Energy>  (332) 
94.8701

>  <b_lp_Chiralities_Consistent>  (332) 
1

>  <s_lp_Variant>  (332) 
102:0-1

>  <s_i_glide_gridfile>  (332) 
pfpi4k_grid

>  <i_i_glide_lignum>  (332) 
21

>  <i_i_glide_rotatable_bonds>  (332) 
3

>  <r_i_docking_score>  (332) 
-3.35123

>  <r_i_glide_ligand_efficiency>  (332) 
-0.101552

>  <r_i_glide_ligand_efficiency_sa>  (332) 
-0.325733

>  <r_i_glide_ligand_efficiency_ln>  (332) 
-0.745296

>  <r_i_glide_gscore>  (332) 
-3.35123

>  <r_i_glide_lipo>  (332) 
-0.292063

>  <r_i_glide_hbond>  (332) 
-0.392928

>  <r_i_glide_metal>  (332) 
-0

>  <r_i_glide_rewards>  (332) 
-0.378501

>  <r_i_glide_evdw>  (332) 
-22.5501

>  <r_i_glide_ecoul>  (332) 
-7.96347

>  <r_i_glide_erotb>  (332) 
0.0945037

>  <r_i_glide_esite>  (332) 
-0.0602155

>  <r_i_glide_emodel>  (332) 
-37.7789

>  <r_i_glide_energy>  (332) 
-30.5136

>  <r_i_glide_einternal>  (332) 
0.481941

>  <r_i_glide_intrahb_reward>  (332) 
-0

>  <i_i_glide_confnum>  (332) 
6

>  <i_i_glide_posenum>  (332) 
9

>  <r_i_glide_eff_state_penalty>  (332) 
0

>  <ligand_id>  (332) 
102

>  <original_smiles>  (332) 
CC1C(=O)C23C(O)C1CCC2C1(C)CC(N2CCN(C)CC2)C(=O)OC1C1C3C(O)C1(C)C

>  <smiles>  (332) 
[H]OC1([H])C2([H])C([H])([H])C([H])([H])C3([H])C1(C(=O)C2([H])C([H])([H])[H])C1([H])C([H])(O[H])C(C([H])([H])[H])(C([H])([H])[H])C1([H])C1([H])OC(=O)C([H])(N2C([H])([H])C([H])([H])[N+]([H])(C([H])([H])[H])C([H])([H])C2([H])[H])C([H])([H])C13C([H])([H])[H]

$$$$
102:0:2
     RDKit          3D

 74 79  0  0  1  0  0  0  0  0999 V2000
   -2.1976    1.9993    6.4046 C   0  0  0  0  0  0  0  0  0  0  0  0
   -1.3397    1.6153    5.1860 C   0  0  2  0  0  0  0  0  0  0  0  0
   -0.4015    0.4552    5.5168 C   0  0  0  0  0  0  0  0  0  0  0  0
   -0.7914   -0.6172    5.9770 O   0  0  0  0  0  0  0  0  0  0  0  0
    1.0730    0.8595    5.2782 C   0  0  2  0  0  0  0  0  0  0  0  0
    0.9227    2.3678    5.5627 C   0  0  1  0  0  0  0  0  0  0  0  0
    2.0444    3.1792    5.2497 O   0  0  0  0  0  0  0  0  0  0  0  0
   -0.3461    2.7120    4.7497 C   0  0  1  0  0  0  0  0  0  0  0  0
   -0.0606    2.6079    3.2233 C   0  0  0  0  0  0  0  0  0  0  0  0
    0.4516    1.2084    2.7765 C   0  0  0  0  0  0  0  0  0  0  0  0
    1.5122    0.6563    3.7694 C   0  0  2  0  0  0  0  0  0  0  0  0
    2.1920   -0.7420    3.4490 C   0  0  1  0  0  0  0  0  0  0  0  0
    1.1853   -1.9115    3.6596 C   0  0  0  0  0  0  0  0  0  0  0  0
    2.6476   -0.7942    1.9667 C   0  0  0  0  0  0  0  0  0  0  0  0
    3.8391   -1.7625    1.7365 C   0  0  1  0  0  0  0  0  0  0  0  0
    4.2054   -2.0076    0.3031 N   0  0  0  0  0  0  0  0  0  0  0  0
    3.0873   -1.9238   -0.6331 C   0  0  0  0  0  0  0  0  0  0  0  0
    3.5337   -2.1269   -2.0822 C   0  0  0  0  0  0  0  0  0  0  0  0
    4.1795   -3.4462   -2.2395 N   0  0  0  0  0  0  0  0  0  0  0  0
    4.5823   -3.7014   -3.6358 C   0  0  0  0  0  0  0  0  0  0  0  0
    5.3136   -3.5548   -1.2917 C   0  0  0  0  0  0  0  0  0  0  0  0
    4.8485   -3.3219    0.1578 C   0  0  0  0  0  0  0  0  0  0  0  0
    5.0387   -1.1966    2.5306 C   0  0  0  0  0  0  0  0  0  0  0  0
    6.1708   -1.0885    2.0716 O   0  0  0  0  0  0  0  0  0  0  0  0
    4.7165   -0.7653    3.7693 O   0  0  0  0  0  0  0  0  0  0  0  0
    3.4492   -0.9867    4.3825 C   0  0  1  0  0  0  0  0  0  0  0  0
    3.4214   -0.0286    5.5768 C   0  0  1  0  0  0  0  0  0  0  0  0
    2.0410    0.0922    6.1845 C   0  0  1  0  0  0  0  0  0  0  0  0
    2.7445    0.5708    7.4517 C   0  0  1  0  0  0  0  0  0  0  0  0
    2.1622    0.2203    8.6882 O   0  0  0  0  0  0  0  0  0  0  0  0
    3.9985   -0.2372    6.9893 C   0  0  0  0  0  0  0  0  0  0  0  0
    4.1223   -1.7043    7.4212 C   0  0  0  0  0  0  0  0  0  0  0  0
    5.3364    0.4483    7.2767 C   0  0  0  0  0  0  0  0  0  0  0  0
   -2.8543    1.1808    6.6957 H   0  0  0  0  0  0  0  0  0  0  0  0
   -2.8262    2.8606    6.1802 H   0  0  0  0  0  0  0  0  0  0  0  0
   -1.5860    2.2501    7.2726 H   0  0  0  0  0  0  0  0  0  0  0  0
   -1.9931    1.3295    4.3589 H   0  0  0  0  0  0  0  0  0  0  0  0
    0.7277    2.5238    6.6250 H   0  0  0  0  0  0  0  0  0  0  0  0
    2.1993    3.1402    4.3189 H   0  0  0  0  0  0  0  0  0  0  0  0
   -0.7082    3.7124    4.9995 H   0  0  0  0  0  0  0  0  0  0  0  0
   -0.9605    2.8600    2.6573 H   0  0  0  0  0  0  0  0  0  0  0  0
    0.6751    3.3660    2.9437 H   0  0  0  0  0  0  0  0  0  0  0  0
   -0.3885    0.5216    2.6683 H   0  0  0  0  0  0  0  0  0  0  0  0
    0.8766    1.3150    1.7766 H   0  0  0  0  0  0  0  0  0  0  0  0
    2.3396    1.3439    3.5878 H   0  0  0  0  0  0  0  0  0  0  0  0
    1.5787   -2.8551    3.2828 H   0  0  0  0  0  0  0  0  0  0  0  0
    0.2363   -1.7387    3.1564 H   0  0  0  0  0  0  0  0  0  0  0  0
    0.9580   -2.0880    4.7071 H   0  0  0  0  0  0  0  0  0  0  0  0
    1.7786   -1.0949    1.3867 H   0  0  0  0  0  0  0  0  0  0  0  0
    2.9242    0.2014    1.6108 H   0  0  0  0  0  0  0  0  0  0  0  0
    3.5608   -2.7206    2.1741 H   0  0  0  0  0  0  0  0  0  0  0  0
    2.2973   -2.6286   -0.3628 H   0  0  0  0  0  0  0  0  0  0  0  0
    2.7119   -0.9036   -0.5860 H   0  0  0  0  0  0  0  0  0  0  0  0
    2.6675   -2.0490   -2.7408 H   0  0  0  0  0  0  0  0  0  0  0  0
    4.2203   -1.3312   -2.3749 H   0  0  0  0  0  0  0  0  0  0  0  0
    5.3327   -2.9663   -3.9250 H   0  0  0  0  0  0  0  0  0  0  0  0
    3.7278   -3.6256   -4.3140 H   0  0  0  0  0  0  0  0  0  0  0  0
    5.0095   -4.6982   -3.7454 H   0  0  0  0  0  0  0  0  0  0  0  0
    5.7473   -4.5506   -1.3714 H   0  0  0  0  0  0  0  0  0  0  0  0
    6.0978   -2.8437   -1.5595 H   0  0  0  0  0  0  0  0  0  0  0  0
    5.7154   -3.3939    0.8161 H   0  0  0  0  0  0  0  0  0  0  0  0
    4.1594   -4.1120    0.4579 H   0  0  0  0  0  0  0  0  0  0  0  0
    3.4334   -2.0221    4.7273 H   0  0  0  0  0  0  0  0  0  0  0  0
    3.7457    0.9650    5.2547 H   0  0  0  0  0  0  0  0  0  0  0  0
    1.6560   -0.9067    6.3911 H   0  0  0  0  0  0  0  0  0  0  0  0
    2.9285    1.6486    7.4343 H   0  0  0  0  0  0  0  0  0  0  0  0
    2.2319   -0.7194    8.7660 H   0  0  0  0  0  0  0  0  0  0  0  0
    4.3539   -1.7975    8.4827 H   0  0  0  0  0  0  0  0  0  0  0  0
    4.9146   -2.2060    6.8604 H   0  0  0  0  0  0  0  0  0  0  0  0
    3.2052   -2.2662    7.2322 H   0  0  0  0  0  0  0  0  0  0  0  0
    5.5819    0.4054    8.3382 H   0  0  0  0  0  0  0  0  0  0  0  0
    5.3047    1.5052    7.0034 H   0  0  0  0  0  0  0  0  0  0  0  0
    6.1567   -0.0044    6.7186 H   0  0  0  0  0  0  0  0  0  0  0  0
    3.4973   -4.1523   -1.9863 H   0  0  0  0  0  0  0  0  0  0  0  0
  1  2  1  0
  1 34  1  0
  1 35  1  0
  1 36  1  0
  2  8  1  0
  2  3  1  0
  2 37  1  6
  3  4  2  0
  5  3  1  6
  5 11  1  0
  5 28  1  0
  5  6  1  0
  6  7  1  0
  6  8  1  0
  6 38  1  1
  7 39  1  0
  8  9  1  0
  8 40  1  6
  9 10  1  0
  9 41  1  0
  9 42  1  0
 10 11  1  0
 10 43  1  0
 10 44  1  0
 11 12  1  0
 11 45  1  1
 12 26  1  0
 12 13  1  6
 12 14  1  0
 13 46  1  0
 13 47  1  0
 13 48  1  0
 14 15  1  0
 14 49  1  0
 14 50  1  0
 15 16  1  0
 15 23  1  0
 15 51  1  1
 16 22  1  0
 16 17  1  0
 17 18  1  0
 17 52  1  0
 17 53  1  0
 18 19  1  0
 18 54  1  0
 18 55  1  0
 19 20  1  0
 19 21  1  0
 19 74  1  0
 20 56  1  0
 20 57  1  0
 20 58  1  0
 21 22  1  0
 21 59  1  0
 21 60  1  0
 22 61  1  0
 22 62  1  0
 23 24  2  0
 23 25  1  0
 25 26  1  0
 26 27  1  0
 26 63  1  1
 27 31  1  0
 27 28  1  0
 27 64  1  6
 28 29  1  0
 28 65  1  1
 29 30  1  0
 29 31  1  0
 29 66  1  6
 30 67  1  0
 31 32  1  0
 31 33  1  0
 32 68  1  0
 32 69  1  0
 32 70  1  0
 33 71  1  0
 33 72  1  0
 33 73  1  0
M  CHG  1  19   1
M  END
>  <i_m_ct_stereo_status>  (333) 
1

>  <s_m_source_file>  (333) 
/var/tmp/pbs.5076255.sched01/tmpb6g28bo8/1236hu3uqnd.sdf

>  <i_m_source_file_index>  (333) 
21

>  <i_lp_mmshare_version>  (333) 
48012

>  <i_f3d_flags>  (333) 
0

>  <s_epik_input>  (333) 
Tz1DMVtDQEBIXShbQ0gzXSlbQ0BASF0oW0NAQEhdMltPSF0pW0NIMl1bQ0gyXVtDQEBIXShbQ0BdMTIzKVtDQF00KFtDSDNdKVtDQEhdKFtDQEhdNVtDQEhdM1tDQEBIXShbT0hdKUM1KFtDSDNdKVtDSDNdKU9DKD1PKVtDQEBIXShbQ0gyXTQpTjZbQ0gyXVtDSDJdTihbQ0gzXSlbQ0gyXVtDSDJdNg==

>  <s_epik_cmdline>  (333) 
J2VwaWtfcHl0aG9uJywgJy1waHQnLCAnMi4wJywgJy1waCcsICc3LjAnLCAnLXRuJywgJzgnLCAnLW1hJywgJzIwMCcsICctaW1hZScsICc8aW5maWxlLm1hZT4nLCAnLW9tYWUnLCAnPG91dGZpbGUubWFlPic=

>  <r_lp_tautomer_probability>  (333) 
0.99995

>  <r_epik_Ionization_Penalty>  (333) 
0.0516062

>  <r_epik_Ionization_Penalty_Charging>  (333) 
0.0503692

>  <r_epik_Ionization_Penalty_Neutral>  (333) 
0.00123693

>  <r_epik_State_Penalty>  (333) 
0.201045

>  <r_epik_Charging_Adjusted_Penalty>  (333) 
0.251414

>  <i_epik_Tot_Q>  (333) 
1

>  <i_epik_Tot_abs_Q>  (333) 
1

>  <s_epik_Chemistry_Notes>  (333) 
This compound has an ester and may undergo hydrolysis at high or low pH.

>  <s_lp_Force_Field>  (333) 
OPLS3e

>  <r_lp_Energy>  (333) 
94.8701

>  <b_lp_Chiralities_Consistent>  (333) 
1

>  <s_lp_Variant>  (333) 
102:0-1

>  <s_i_glide_gridfile>  (333) 
pfpi4k_grid

>  <i_i_glide_lignum>  (333) 
21

>  <i_i_glide_rotatable_bonds>  (333) 
3

>  <r_i_docking_score>  (333) 
-2.63727

>  <r_i_glide_ligand_efficiency>  (333) 
-0.0799172

>  <r_i_glide_ligand_efficiency_sa>  (333) 
-0.256337

>  <r_i_glide_ligand_efficiency_ln>  (333) 
-0.586515

>  <r_i_glide_gscore>  (333) 
-2.63727

>  <r_i_glide_lipo>  (333) 
-0.210252

>  <r_i_glide_hbond>  (333) 
0

>  <r_i_glide_metal>  (333) 
-0

>  <r_i_glide_rewards>  (333) 
-0.399138

>  <r_i_glide_evdw>  (333) 
-22.6652

>  <r_i_glide_ecoul>  (333) 
-6.2622

>  <r_i_glide_erotb>  (333) 
0.0945037

>  <r_i_glide_esite>  (333) 
-0.049794

>  <r_i_glide_emodel>  (333) 
-33.7802

>  <r_i_glide_energy>  (333) 
-28.9274

>  <r_i_glide_einternal>  (333) 
2.22686

>  <r_i_glide_intrahb_reward>  (333) 
-0

>  <i_i_glide_confnum>  (333) 
2

>  <i_i_glide_posenum>  (333) 
33

>  <r_i_glide_eff_state_penalty>  (333) 
0

>  <ligand_id>  (333) 
102

>  <original_smiles>  (333) 
CC1C(=O)C23C(O)C1CCC2C1(C)CC(N2CCN(C)CC2)C(=O)OC1C1C3C(O)C1(C)C

>  <smiles>  (333) 
[H]OC1([H])C2([H])C([H])([H])C([H])([H])C3([H])C1(C(=O)C2([H])C([H])([H])[H])C1([H])C([H])(O[H])C(C([H])([H])[H])(C([H])([H])[H])C1([H])C1([H])OC(=O)C([H])(N2C([H])([H])C([H])([H])[N+]([H])(C([H])([H])[H])C([H])([H])C2([H])[H])C([H])([H])C13C([H])([H])[H]

$$$$
102:1:0
     RDKit          3D

 74 79  0  0  1  0  0  0  0  0999 V2000
   -2.5899    2.1597    6.4525 C   0  0  0  0  0  0  0  0  0  0  0  0
   -1.8028    1.6200    5.2457 C   0  0  2  0  0  0  0  0  0  0  0  0
   -0.7021    0.6634    5.6969 C   0  0  0  0  0  0  0  0  0  0  0  0
   -0.9180   -0.3222    6.3774 O   0  0  0  0  0  0  0  0  0  0  0  0
    0.6791    1.1611    5.2229 C   0  0  2  0  0  0  0  0  0  0  0  0
    0.3708    2.6591    5.2109 C   0  0  1  0  0  0  0  0  0  0  0  0
    1.3435    3.5075    4.6214 O   0  0  0  0  0  0  0  0  0  0  0  0
   -1.0015    2.6942    4.4962 C   0  0  1  0  0  0  0  0  0  0  0  0
   -0.8392    2.2954    2.9988 C   0  0  0  0  0  0  0  0  0  0  0  0
   -0.1919    0.8970    2.7939 C   0  0  0  0  0  0  0  0  0  0  0  0
    1.0095    0.6786    3.7618 C   0  0  2  0  0  0  0  0  0  0  0  0
    1.8192   -0.6759    3.6728 C   0  0  1  0  0  0  0  0  0  0  0  0
    0.9925   -1.8805    4.1928 C   0  0  0  0  0  0  0  0  0  0  0  0
    2.1422   -0.9719    2.2037 C   0  0  0  0  0  0  0  0  0  0  0  0
    3.4395   -1.7867    1.9882 C   0  0  1  0  0  0  0  0  0  0  0  0
    3.7066   -2.0839    0.5320 N   0  0  0  0  0  0  0  0  0  0  0  0
    3.6412   -0.9001   -0.3693 C   0  0  0  0  0  0  0  0  0  0  0  0
    4.0213   -1.2337   -1.8092 C   0  0  0  0  0  0  0  0  0  0  0  0
    3.1143   -2.2562   -2.3021 N   0  0  0  0  0  0  0  0  0  0  0  0
    3.4286   -2.5333   -3.6925 C   0  0  0  0  0  0  0  0  0  0  0  0
    3.2461   -3.4685   -1.5014 C   0  0  0  0  0  0  0  0  0  0  0  0
    2.8773   -3.1891   -0.0286 C   0  0  0  0  0  0  0  0  0  0  0  0
    4.6380   -1.0224    2.5566 C   0  0  0  0  0  0  0  0  0  0  0  0
    5.7319   -0.9801    1.9943 O   0  0  0  0  0  0  0  0  0  0  0  0
    4.3514   -0.3681    3.7027 O   0  0  0  0  0  0  0  0  0  0  0  0
    3.1704   -0.5959    4.4731 C   0  0  1  0  0  0  0  0  0  0  0  0
    3.1342    0.5985    5.4351 C   0  0  1  0  0  0  0  0  0  0  0  0
    1.8113    0.7072    6.1494 C   0  0  1  0  0  0  0  0  0  0  0  0
    2.5545    1.5122    7.2074 C   0  0  1  0  0  0  0  0  0  0  0  0
    2.1314    1.3733    8.5451 O   0  0  0  0  0  0  0  0  0  0  0  0
    3.8558    0.7564    6.7829 C   0  0  0  0  0  0  0  0  0  0  0  0
    4.2090   -0.5554    7.4803 C   0  0  0  0  0  0  0  0  0  0  0  0
    5.1229    1.6264    6.7744 C   0  0  0  0  0  0  0  0  0  0  0  0
   -3.1019    1.3527    6.9682 H   0  0  0  0  0  0  0  0  0  0  0  0
   -3.3412    2.8822    6.1340 H   0  0  0  0  0  0  0  0  0  0  0  0
   -1.9404    2.6516    7.1795 H   0  0  0  0  0  0  0  0  0  0  0  0
   -2.4776    1.0964    4.5647 H   0  0  0  0  0  0  0  0  0  0  0  0
    0.2523    3.0215    6.2355 H   0  0  0  0  0  0  0  0  0  0  0  0
    1.3818    3.3353    3.6849 H   0  0  0  0  0  0  0  0  0  0  0  0
   -1.4636    3.6856    4.5762 H   0  0  0  0  0  0  0  0  0  0  0  0
   -1.8090    2.3292    2.4945 H   0  0  0  0  0  0  0  0  0  0  0  0
   -0.2249    3.0428    2.4933 H   0  0  0  0  0  0  0  0  0  0  0  0
   -0.9525    0.1236    2.9140 H   0  0  0  0  0  0  0  0  0  0  0  0
    0.1232    0.8443    1.7488 H   0  0  0  0  0  0  0  0  0  0  0  0
    1.7222    1.4008    3.3511 H   0  0  0  0  0  0  0  0  0  0  0  0
    1.4813   -2.8278    3.9669 H   0  0  0  0  0  0  0  0  0  0  0  0
   -0.0021   -1.9195    3.7500 H   0  0  0  0  0  0  0  0  0  0  0  0
    0.8689   -1.8569    5.2715 H   0  0  0  0  0  0  0  0  0  0  0  0
    1.3041   -1.4792    1.7296 H   0  0  0  0  0  0  0  0  0  0  0  0
    2.2321    0.0078    1.7273 H   0  0  0  0  0  0  0  0  0  0  0  0
    3.3742   -2.7417    2.5218 H   0  0  0  0  0  0  0  0  0  0  0  0
    2.6182   -0.5435   -0.3842 H   0  0  0  0  0  0  0  0  0  0  0  0
    4.2732   -0.0816   -0.0227 H   0  0  0  0  0  0  0  0  0  0  0  0
    3.8766   -0.3292   -2.3960 H   0  0  0  0  0  0  0  0  0  0  0  0
    5.0638   -1.5343   -1.8923 H   0  0  0  0  0  0  0  0  0  0  0  0
    4.4288   -2.9589   -3.7951 H   0  0  0  0  0  0  0  0  0  0  0  0
    3.3791   -1.6161   -4.2819 H   0  0  0  0  0  0  0  0  0  0  0  0
    2.7043   -3.2322   -4.1114 H   0  0  0  0  0  0  0  0  0  0  0  0
    2.5485   -4.2131   -1.8823 H   0  0  0  0  0  0  0  0  0  0  0  0
    4.2540   -3.8775   -1.5823 H   0  0  0  0  0  0  0  0  0  0  0  0
    3.0114   -4.0972    0.5679 H   0  0  0  0  0  0  0  0  0  0  0  0
    1.8195   -2.9266    0.0336 H   0  0  0  0  0  0  0  0  0  0  0  0
    3.3258   -1.5184    5.0180 H   0  0  0  0  0  0  0  0  0  0  0  0
    3.3062    1.5220    4.8996 H   0  0  0  0  0  0  0  0  0  0  0  0
    1.5856   -0.2444    6.5896 H   0  0  0  0  0  0  0  0  0  0  0  0
    2.6149    2.5665    6.9526 H   0  0  0  0  0  0  0  0  0  0  0  0
    2.2069    0.4470    8.7595 H   0  0  0  0  0  0  0  0  0  0  0  0
    4.5559   -0.4022    8.5019 H   0  0  0  0  0  0  0  0  0  0  0  0
    4.9945   -1.0880    6.9381 H   0  0  0  0  0  0  0  0  0  0  0  0
    3.3546   -1.2355    7.5229 H   0  0  0  0  0  0  0  0  0  0  0  0
    5.4607    1.8363    7.7896 H   0  0  0  0  0  0  0  0  0  0  0  0
    4.9339    2.5867    6.2997 H   0  0  0  0  0  0  0  0  0  0  0  0
    5.9423    1.1514    6.2328 H   0  0  0  0  0  0  0  0  0  0  0  0
    4.6600   -2.4134    0.4941 H   0  0  0  0  0  0  0  0  0  0  0  0
  1  2  1  0
  1 34  1  0
  1 35  1  0
  1 36  1  0
  2  8  1  0
  2  3  1  0
  2 37  1  6
  3  4  2  0
  5  3  1  1
  5 11  1  0
  5 28  1  0
  5  6  1  0
  6  7  1  0
  6  8  1  0
  6 38  1  1
  7 39  1  0
  8  9  1  0
  8 40  1  6
  9 10  1  0
  9 41  1  0
  9 42  1  0
 10 11  1  0
 10 43  1  0
 10 44  1  0
 11 12  1  0
 11 45  1  6
 12 26  1  0
 12 13  1  1
 12 14  1  0
 13 46  1  0
 13 47  1  0
 13 48  1  0
 14 15  1  0
 14 49  1  0
 14 50  1  0
 15 16  1  0
 15 23  1  0
 15 51  1  1
 16 22  1  0
 16 17  1  0
 16 74  1  0
 17 18  1  0
 17 52  1  0
 17 53  1  0
 18 19  1  0
 18 54  1  0
 18 55  1  0
 19 20  1  0
 19 21  1  0
 20 56  1  0
 20 57  1  0
 20 58  1  0
 21 22  1  0
 21 59  1  0
 21 60  1  0
 22 61  1  0
 22 62  1  0
 23 24  2  0
 23 25  1  0
 25 26  1  0
 26 27  1  0
 26 63  1  1
 27 31  1  0
 27 28  1  0
 27 64  1  6
 28 29  1  0
 28 65  1  1
 29 30  1  0
 29 31  1  0
 29 66  1  6
 30 67  1  0
 31 32  1  0
 31 33  1  0
 32 68  1  0
 32 69  1  0
 32 70  1  0
 33 71  1  0
 33 72  1  0
 33 73  1  0
M  CHG  1  16   1
M  END
>  <i_m_ct_stereo_status>  (334) 
1

>  <s_m_source_file>  (334) 
/var/tmp/pbs.5076255.sched01/tmpb6g28bo8/1236hu3uqnd.sdf

>  <i_m_source_file_index>  (334) 
22

>  <i_lp_mmshare_version>  (334) 
48012

>  <i_f3d_flags>  (334) 
0

>  <s_epik_input>  (334) 
Tz1DMVtDQEBIXShbQ0gzXSlbQ0BASF0oW0NAQEhdMltPSF0pW0NIMl1bQ0gyXVtDQEBIXShbQ0BdMTIzKVtDQF00KFtDSDNdKVtDQEhdKFtDQEhdNVtDQEhdM1tDQEBIXShbT0hdKUM1KFtDSDNdKVtDSDNdKU9DKD1PKVtDQEBIXShbQ0gyXTQpTjZbQ0gyXVtDSDJdTihbQ0gzXSlbQ0gyXVtDSDJdNg==

>  <s_epik_cmdline>  (334) 
J2VwaWtfcHl0aG9uJywgJy1waHQnLCAnMi4wJywgJy1waCcsICc3LjAnLCAnLXRuJywgJzgnLCAnLW1hJywgJzIwMCcsICctaW1hZScsICc8aW5maWxlLm1hZT4nLCAnLW9tYWUnLCAnPG91dGZpbGUubWFlPic=

>  <r_epik_Ionization_Penalty>  (334) 
0.133985

>  <r_epik_Ionization_Penalty_Charging>  (334) 
0.133063

>  <r_epik_Ionization_Penalty_Neutral>  (334) 
0.000921457

>  <r_epik_State_Penalty>  (334) 
0.860479

>  <r_epik_Charging_Adjusted_Penalty>  (334) 
0.993542

>  <i_epik_Tot_Q>  (334) 
1

>  <i_epik_Tot_abs_Q>  (334) 
1

>  <s_epik_Chemistry_Notes>  (334) 
This compound has an ester and may undergo hydrolysis at high or low pH.

>  <s_lp_Force_Field>  (334) 
OPLS3e

>  <r_lp_Energy>  (334) 
94.7181

>  <b_lp_Chiralities_Consistent>  (334) 
1

>  <s_lp_Variant>  (334) 
102:0-2

>  <s_i_glide_gridfile>  (334) 
pfpi4k_grid

>  <i_i_glide_lignum>  (334) 
22

>  <i_i_glide_rotatable_bonds>  (334) 
3

>  <r_i_docking_score>  (334) 
-2.69011

>  <r_i_glide_ligand_efficiency>  (334) 
-0.0815185

>  <r_i_glide_ligand_efficiency_sa>  (334) 
-0.261473

>  <r_i_glide_ligand_efficiency_ln>  (334) 
-0.598267

>  <r_i_glide_gscore>  (334) 
-2.69011

>  <r_i_glide_lipo>  (334) 
-0.360622

>  <r_i_glide_hbond>  (334) 
-0.0576461

>  <r_i_glide_metal>  (334) 
-0

>  <r_i_glide_rewards>  (334) 
-0.357259

>  <r_i_glide_evdw>  (334) 
-23.0827

>  <r_i_glide_ecoul>  (334) 
-5.33227

>  <r_i_glide_erotb>  (334) 
0.0945037

>  <r_i_glide_esite>  (334) 
-0.0551104

>  <r_i_glide_emodel>  (334) 
-33.3743

>  <r_i_glide_energy>  (334) 
-28.415

>  <r_i_glide_einternal>  (334) 
0.748568

>  <r_i_glide_intrahb_reward>  (334) 
-0

>  <i_i_glide_confnum>  (334) 
2

>  <i_i_glide_posenum>  (334) 
39

>  <r_i_glide_eff_state_penalty>  (334) 
0

>  <ligand_id>  (334) 
102

>  <original_smiles>  (334) 
CC1C(=O)C23C(O)C1CCC2C1(C)CC(N2CCN(C)CC2)C(=O)OC1C1C3C(O)C1(C)C

>  <smiles>  (334) 
[H]OC1([H])C2([H])C([H])([H])C([H])([H])C3([H])C1(C(=O)C2([H])C([H])([H])[H])C1([H])C([H])(O[H])C(C([H])([H])[H])(C([H])([H])[H])C1([H])C1([H])OC(=O)C([H])([N+]2([H])C([H])([H])C([H])([H])N(C([H])([H])[H])C([H])([H])C2([H])[H])C([H])([H])C13C([H])([H])[H]

$$$$
102:1:1
     RDKit          3D

 74 79  0  0  1  0  0  0  0  0999 V2000
   -2.7331    2.5662    6.2817 C   0  0  0  0  0  0  0  0  0  0  0  0
   -1.9399    1.8863    5.1531 C   0  0  2  0  0  0  0  0  0  0  0  0
   -0.7452    1.1275    5.6926 C   0  0  0  0  0  0  0  0  0  0  0  0
   -0.8399    0.2301    6.5522 O   0  0  0  0  0  0  0  0  0  0  0  0
    0.5649    1.6478    5.0736 C   0  0  2  0  0  0  0  0  0  0  0  0
    0.1144    3.0971    4.8021 C   0  0  1  0  0  0  0  0  0  0  0  0
    0.9845    3.9006    4.0187 O   0  0  0  0  0  0  0  0  0  0  0  0
   -1.2777    2.8711    4.1741 C   0  0  1  0  0  0  0  0  0  0  0  0
   -1.1441    2.2182    2.7701 C   0  0  0  0  0  0  0  0  0  0  0  0
   -0.3722    0.8713    2.7788 C   0  0  0  0  0  0  0  0  0  0  0  0
    0.8826    0.9360    3.6987 C   0  0  2  0  0  0  0  0  0  0  0  0
    1.8164   -0.3397    3.8131 C   0  0  1  0  0  0  0  0  0  0  0  0
    1.1265   -1.4919    4.5896 C   0  0  0  0  0  0  0  0  0  0  0  0
    2.1066   -0.8673    2.4011 C   0  0  0  0  0  0  0  0  0  0  0  0
    3.4591   -1.6031    2.2604 C   0  0  1  0  0  0  0  0  0  0  0  0
    3.7028   -2.1179    0.8776 N   0  0  0  0  0  0  0  0  0  0  0  0
    3.6248   -1.0891   -0.2037 C   0  0  0  0  0  0  0  0  0  0  0  0
    3.9671   -1.6678   -1.5708 C   0  0  0  0  0  0  0  0  0  0  0  0
    3.0522   -2.7565   -1.8743 N   0  0  0  0  0  0  0  0  0  0  0  0
    3.3344   -3.2453   -3.2139 C   0  0  0  0  0  0  0  0  0  0  0  0
    3.2011   -3.8259   -0.8891 C   0  0  0  0  0  0  0  0  0  0  0  0
    2.8653   -3.2972    0.5176 C   0  0  0  0  0  0  0  0  0  0  0  0
    4.6066   -0.6664    2.6395 C   0  0  0  0  0  0  0  0  0  0  0  0
    5.7016   -0.6683    2.0917 O   0  0  0  0  0  0  0  0  0  0  0  0
    4.3180    0.1729    3.6616 O   0  0  0  0  0  0  0  0  0  0  0  0
    3.1880    0.0019    4.5214 C   0  0  1  0  0  0  0  0  0  0  0  0
    3.0785    1.3532    5.2456 C   0  0  1  0  0  0  0  0  0  0  0  0
    1.7788    1.4691    6.0099 C   0  0  1  0  0  0  0  0  0  0  0  0
    2.4899    2.5192    6.8482 C   0  0  1  0  0  0  0  0  0  0  0  0
    2.1250    2.5777    8.2035 O   0  0  0  0  0  0  0  0  0  0  0  0
    3.8363    1.8121    6.4994 C   0  0  0  0  0  0  0  0  0  0  0  0
    4.3280    0.6735    7.4056 C   0  0  0  0  0  0  0  0  0  0  0  0
    5.0074    2.7673    6.2655 C   0  0  0  0  0  0  0  0  0  0  0  0
   -3.1511    1.8260    6.9643 H   0  0  0  0  0  0  0  0  0  0  0  0
   -3.5624    3.1488    5.8780 H   0  0  0  0  0  0  0  0  0  0  0  0
   -2.1074    3.2386    6.8724 H   0  0  0  0  0  0  0  0  0  0  0  0
   -2.5823    1.1893    4.6094 H   0  0  0  0  0  0  0  0  0  0  0  0
    0.0093    3.6099    5.7582 H   0  0  0  0  0  0  0  0  0  0  0  0
    0.8813    3.6694    3.1011 H   0  0  0  0  0  0  0  0  0  0  0  0
   -1.8285    3.8147    4.1054 H   0  0  0  0  0  0  0  0  0  0  0  0
   -2.1299    2.0696    2.3295 H   0  0  0  0  0  0  0  0  0  0  0  0
   -0.6287    2.9148    2.1119 H   0  0  0  0  0  0  0  0  0  0  0  0
   -1.0431    0.0661    3.0884 H   0  0  0  0  0  0  0  0  0  0  0  0
   -0.0887    0.6532    1.7490 H   0  0  0  0  0  0  0  0  0  0  0  0
    1.5118    1.6249    3.1332 H   0  0  0  0  0  0  0  0  0  0  0  0
    1.6942   -2.4241    4.5101 H   0  0  0  0  0  0  0  0  0  0  0  0
    0.1179   -1.7005    4.2149 H   0  0  0  0  0  0  0  0  0  0  0  0
    1.0443   -1.2811    5.6557 H   0  0  0  0  0  0  0  0  0  0  0  0
    1.2966   -1.5281    2.0943 H   0  0  0  0  0  0  0  0  0  0  0  0
    2.0938   -0.0080    1.7177 H   0  0  0  0  0  0  0  0  0  0  0  0
    3.4981   -2.4484    2.9579 H   0  0  0  0  0  0  0  0  0  0  0  0
    2.6274   -0.6737   -0.2558 H   0  0  0  0  0  0  0  0  0  0  0  0
    4.2742   -0.2328   -0.0392 H   0  0  0  0  0  0  0  0  0  0  0  0
    3.8237   -0.8755   -2.3025 H   0  0  0  0  0  0  0  0  0  0  0  0
    5.0032   -1.9910   -1.6236 H   0  0  0  0  0  0  0  0  0  0  0  0
    4.3308   -3.6986   -3.2583 H   0  0  0  0  0  0  0  0  0  0  0  0
    3.2915   -2.4255   -3.9371 H   0  0  0  0  0  0  0  0  0  0  0  0
    2.5887   -3.9841   -3.5086 H   0  0  0  0  0  0  0  0  0  0  0  0
    2.5012   -4.6265   -1.1148 H   0  0  0  0  0  0  0  0  0  0  0  0
    4.2041   -4.2458   -0.9346 H   0  0  0  0  0  0  0  0  0  0  0  0
    2.9962   -4.0992    1.2530 H   0  0  0  0  0  0  0  0  0  0  0  0
    1.8226   -3.0258    0.5365 H   0  0  0  0  0  0  0  0  0  0  0  0
    3.4341   -0.7992    5.2222 H   0  0  0  0  0  0  0  0  0  0  0  0
    3.1353    2.1715    4.5273 H   0  0  0  0  0  0  0  0  0  0  0  0
    1.6446    0.5891    6.6309 H   0  0  0  0  0  0  0  0  0  0  0  0
    2.4206    3.5204    6.4092 H   0  0  0  0  0  0  0  0  0  0  0  0
    2.4548    3.3954    8.5397 H   0  0  0  0  0  0  0  0  0  0  0  0
    4.6955    1.0539    8.3605 H   0  0  0  0  0  0  0  0  0  0  0  0
    5.1389    0.1275    6.9187 H   0  0  0  0  0  0  0  0  0  0  0  0
    3.5362   -0.0458    7.6141 H   0  0  0  0  0  0  0  0  0  0  0  0
    5.3600    3.1834    7.2063 H   0  0  0  0  0  0  0  0  0  0  0  0
    4.7108    3.6031    5.6354 H   0  0  0  0  0  0  0  0  0  0  0  0
    5.8417    2.2631    5.7799 H   0  0  0  0  0  0  0  0  0  0  0  0
    4.6511   -2.4537    0.8653 H   0  0  0  0  0  0  0  0  0  0  0  0
  1  2  1  0
  1 34  1  0
  1 35  1  0
  1 36  1  0
  2  8  1  0
  2  3  1  0
  2 37  1  6
  3  4  2  0
  5  3  1  1
  5 11  1  0
  5 28  1  0
  5  6  1  0
  6  7  1  0
  6  8  1  0
  6 38  1  1
  7 39  1  0
  8  9  1  0
  8 40  1  6
  9 10  1  0
  9 41  1  0
  9 42  1  0
 10 11  1  0
 10 43  1  0
 10 44  1  0
 11 12  1  0
 11 45  1  6
 12 26  1  0
 12 13  1  1
 12 14  1  0
 13 46  1  0
 13 47  1  0
 13 48  1  0
 14 15  1  0
 14 49  1  0
 14 50  1  0
 15 16  1  0
 15 23  1  0
 15 51  1  1
 16 22  1  0
 16 17  1  0
 16 74  1  0
 17 18  1  0
 17 52  1  0
 17 53  1  0
 18 19  1  0
 18 54  1  0
 18 55  1  0
 19 20  1  0
 19 21  1  0
 20 56  1  0
 20 57  1  0
 20 58  1  0
 21 22  1  0
 21 59  1  0
 21 60  1  0
 22 61  1  0
 22 62  1  0
 23 24  2  0
 23 25  1  0
 25 26  1  0
 26 27  1  0
 26 63  1  1
 27 31  1  0
 27 28  1  0
 27 64  1  6
 28 29  1  0
 28 65  1  1
 29 30  1  0
 29 31  1  0
 29 66  1  6
 30 67  1  0
 31 32  1  0
 31 33  1  0
 32 68  1  0
 32 69  1  0
 32 70  1  0
 33 71  1  0
 33 72  1  0
 33 73  1  0
M  CHG  1  16   1
M  END
>  <i_m_ct_stereo_status>  (335) 
1

>  <s_m_source_file>  (335) 
/var/tmp/pbs.5076255.sched01/tmpb6g28bo8/1236hu3uqnd.sdf

>  <i_m_source_file_index>  (335) 
22

>  <i_lp_mmshare_version>  (335) 
48012

>  <i_f3d_flags>  (335) 
0

>  <s_epik_input>  (335) 
Tz1DMVtDQEBIXShbQ0gzXSlbQ0BASF0oW0NAQEhdMltPSF0pW0NIMl1bQ0gyXVtDQEBIXShbQ0BdMTIzKVtDQF00KFtDSDNdKVtDQEhdKFtDQEhdNVtDQEhdM1tDQEBIXShbT0hdKUM1KFtDSDNdKVtDSDNdKU9DKD1PKVtDQEBIXShbQ0gyXTQpTjZbQ0gyXVtDSDJdTihbQ0gzXSlbQ0gyXVtDSDJdNg==

>  <s_epik_cmdline>  (335) 
J2VwaWtfcHl0aG9uJywgJy1waHQnLCAnMi4wJywgJy1waCcsICc3LjAnLCAnLXRuJywgJzgnLCAnLW1hJywgJzIwMCcsICctaW1hZScsICc8aW5maWxlLm1hZT4nLCAnLW9tYWUnLCAnPG91dGZpbGUubWFlPic=

>  <r_epik_Ionization_Penalty>  (335) 
0.133985

>  <r_epik_Ionization_Penalty_Charging>  (335) 
0.133063

>  <r_epik_Ionization_Penalty_Neutral>  (335) 
0.000921457

>  <r_epik_State_Penalty>  (335) 
0.860479

>  <r_epik_Charging_Adjusted_Penalty>  (335) 
0.993542

>  <i_epik_Tot_Q>  (335) 
1

>  <i_epik_Tot_abs_Q>  (335) 
1

>  <s_epik_Chemistry_Notes>  (335) 
This compound has an ester and may undergo hydrolysis at high or low pH.

>  <s_lp_Force_Field>  (335) 
OPLS3e

>  <r_lp_Energy>  (335) 
94.7181

>  <b_lp_Chiralities_Consistent>  (335) 
1

>  <s_lp_Variant>  (335) 
102:0-2

>  <s_i_glide_gridfile>  (335) 
pfpi4k_grid

>  <i_i_glide_lignum>  (335) 
22

>  <i_i_glide_rotatable_bonds>  (335) 
3

>  <r_i_docking_score>  (335) 
-2.67157

>  <r_i_glide_ligand_efficiency>  (335) 
-0.0809566

>  <r_i_glide_ligand_efficiency_sa>  (335) 
-0.259671

>  <r_i_glide_ligand_efficiency_ln>  (335) 
-0.594143

>  <r_i_glide_gscore>  (335) 
-2.67157

>  <r_i_glide_lipo>  (335) 
-0.2516

>  <r_i_glide_hbond>  (335) 
-0.0391326

>  <r_i_glide_metal>  (335) 
-0

>  <r_i_glide_rewards>  (335) 
-0.375754

>  <r_i_glide_evdw>  (335) 
-23.9798

>  <r_i_glide_ecoul>  (335) 
-5.74007

>  <r_i_glide_erotb>  (335) 
0.0945037

>  <r_i_glide_esite>  (335) 
-0.0395849

>  <r_i_glide_emodel>  (335) 
-33.2682

>  <r_i_glide_energy>  (335) 
-29.7199

>  <r_i_glide_einternal>  (335) 
3.26234

>  <r_i_glide_intrahb_reward>  (335) 
-0

>  <i_i_glide_confnum>  (335) 
2

>  <i_i_glide_posenum>  (335) 
38

>  <r_i_glide_eff_state_penalty>  (335) 
0

>  <ligand_id>  (335) 
102

>  <original_smiles>  (335) 
CC1C(=O)C23C(O)C1CCC2C1(C)CC(N2CCN(C)CC2)C(=O)OC1C1C3C(O)C1(C)C

>  <smiles>  (335) 
[H]OC1([H])C2([H])C([H])([H])C([H])([H])C3([H])C1(C(=O)C2([H])C([H])([H])[H])C1([H])C([H])(O[H])C(C([H])([H])[H])(C([H])([H])[H])C1([H])C1([H])OC(=O)C([H])([N+]2([H])C([H])([H])C([H])([H])N(C([H])([H])[H])C([H])([H])C2([H])[H])C([H])([H])C13C([H])([H])[H]

$$$$
102:1:2
     RDKit          3D

 74 79  0  0  1  0  0  0  0  0999 V2000
   -2.1558    1.8708    6.3469 C   0  0  0  0  0  0  0  0  0  0  0  0
   -1.3910    1.3833    5.1049 C   0  0  2  0  0  0  0  0  0  0  0  0
   -0.4057    0.2701    5.4789 C   0  0  0  0  0  0  0  0  0  0  0  0
   -0.7340   -0.7483    6.0458 O   0  0  0  0  0  0  0  0  0  0  0  0
    1.0427    0.6735    5.0826 C   0  0  2  0  0  0  0  0  0  0  0  0
    0.8826    2.1908    5.2218 C   0  0  1  0  0  0  0  0  0  0  0  0
    1.9611    2.9754    4.7412 O   0  0  0  0  0  0  0  0  0  0  0  0
   -0.4559    2.4371    4.4900 C   0  0  1  0  0  0  0  0  0  0  0  0
   -0.2819    2.1829    2.9630 C   0  0  0  0  0  0  0  0  0  0  0  0
    0.2226    0.7497    2.6262 C   0  0  0  0  0  0  0  0  0  0  0  0
    1.3630    0.3084    3.5856 C   0  0  2  0  0  0  0  0  0  0  0  0
    2.0291   -1.1111    3.3758 C   0  0  1  0  0  0  0  0  0  0  0  0
    1.0770   -2.2679    3.7563 C   0  0  0  0  0  0  0  0  0  0  0  0
    2.3701   -1.2828    1.8924 C   0  0  0  0  0  0  0  0  0  0  0  0
    3.5775   -2.2076    1.6037 C   0  0  1  0  0  0  0  0  0  0  0  0
    3.8546   -2.3798    0.1407 N   0  0  0  0  0  0  0  0  0  0  0  0
    3.9719   -1.1116   -0.6372 C   0  0  0  0  0  0  0  0  0  0  0  0
    4.3704   -1.3361   -2.0897 C   0  0  0  0  0  0  0  0  0  0  0  0
    3.3463   -2.1549   -2.7056 N   0  0  0  0  0  0  0  0  0  0  0  0
    3.6697   -2.3298   -4.1055 C   0  0  0  0  0  0  0  0  0  0  0  0
    3.2851   -3.4589   -2.0458 C   0  0  0  0  0  0  0  0  0  0  0  0
    2.9159   -3.3004   -0.5541 C   0  0  0  0  0  0  0  0  0  0  0  0
    4.8269   -1.6425    2.2777 C   0  0  0  0  0  0  0  0  0  0  0  0
    5.9437   -1.6631    1.7565 O   0  0  0  0  0  0  0  0  0  0  0  0
    4.5875   -1.0665    3.4869 O   0  0  0  0  0  0  0  0  0  0  0  0
    3.3615   -1.2498    4.2079 C   0  0  1  0  0  0  0  0  0  0  0  0
    3.4190   -0.1645    5.2827 C   0  0  1  0  0  0  0  0  0  0  0  0
    2.0981    0.0151    5.9797 C   0  0  1  0  0  0  0  0  0  0  0  0
    2.8863    0.6215    7.1275 C   0  0  1  0  0  0  0  0  0  0  0  0
    2.4187    0.3534    8.4281 O   0  0  0  0  0  0  0  0  0  0  0  0
    4.1128   -0.2149    6.6471 C   0  0  0  0  0  0  0  0  0  0  0  0
    4.3102   -1.6231    7.2173 C   0  0  0  0  0  0  0  0  0  0  0  0
    5.4616    0.5087    6.7544 C   0  0  0  0  0  0  0  0  0  0  0  0
   -2.7647    1.0757    6.7735 H   0  0  0  0  0  0  0  0  0  0  0  0
   -2.8211    2.6962    6.0900 H   0  0  0  0  0  0  0  0  0  0  0  0
   -1.4803    2.2187    7.1300 H   0  0  0  0  0  0  0  0  0  0  0  0
   -2.0975    0.9970    4.3686 H   0  0  0  0  0  0  0  0  0  0  0  0
    0.7738    2.4509    6.2733 H   0  0  0  0  0  0  0  0  0  0  0  0
    2.0216    2.8779    3.8000 H   0  0  0  0  0  0  0  0  0  0  0  0
   -0.8142    3.4567    4.6651 H   0  0  0  0  0  0  0  0  0  0  0  0
   -1.2290    2.3645    2.4469 H   0  0  0  0  0  0  0  0  0  0  0  0
    0.4152    2.9209    2.5523 H   0  0  0  0  0  0  0  0  0  0  0  0
   -0.6166    0.0540    2.6591 H   0  0  0  0  0  0  0  0  0  0  0  0
    0.5557    0.7639    1.5888 H   0  0  0  0  0  0  0  0  0  0  0  0
    2.1593    0.9860    3.2679 H   0  0  0  0  0  0  0  0  0  0  0  0
    1.4720   -3.2341    3.4392 H   0  0  0  0  0  0  0  0  0  0  0  0
    0.1008   -2.1555    3.2914 H   0  0  0  0  0  0  0  0  0  0  0  0
    0.9231   -2.3409    4.8282 H   0  0  0  0  0  0  0  0  0  0  0  0
    1.5027   -1.6582    1.3550 H   0  0  0  0  0  0  0  0  0  0  0  0
    2.5666   -0.2732    1.5137 H   0  0  0  0  0  0  0  0  0  0  0  0
    3.4021   -3.1913    2.0470 H   0  0  0  0  0  0  0  0  0  0  0  0
    2.9837   -0.6591   -0.6798 H   0  0  0  0  0  0  0  0  0  0  0  0
    4.6678   -0.3946   -0.2008 H   0  0  0  0  0  0  0  0  0  0  0  0
    4.3653   -0.3588   -2.5764 H   0  0  0  0  0  0  0  0  0  0  0  0
    5.3656   -1.7682   -2.1860 H   0  0  0  0  0  0  0  0  0  0  0  0
    4.6084   -2.8752   -4.2262 H   0  0  0  0  0  0  0  0  0  0  0  0
    3.7610   -1.3581   -4.5946 H   0  0  0  0  0  0  0  0  0  0  0  0
    2.8763   -2.8822   -4.6048 H   0  0  0  0  0  0  0  0  0  0  0  0
    2.4920   -4.0167   -2.5396 H   0  0  0  0  0  0  0  0  0  0  0  0
    4.2299   -3.9912   -2.1603 H   0  0  0  0  0  0  0  0  0  0  0  0
    2.9122   -4.2857   -0.0697 H   0  0  0  0  0  0  0  0  0  0  0  0
    1.8885   -2.9337   -0.4923 H   0  0  0  0  0  0  0  0  0  0  0  0
    3.4051   -2.2426    4.6574 H   0  0  0  0  0  0  0  0  0  0  0  0
    3.6983    0.7885    4.8495 H   0  0  0  0  0  0  0  0  0  0  0  0
    1.7585   -0.9463    6.3227 H   0  0  0  0  0  0  0  0  0  0  0  0
    3.0703    1.6931    6.9960 H   0  0  0  0  0  0  0  0  0  0  0  0
    1.8622    1.0759    8.6683 H   0  0  0  0  0  0  0  0  0  0  0  0
    4.6400   -1.6028    8.2565 H   0  0  0  0  0  0  0  0  0  0  0  0
    5.0535   -2.1726    6.6373 H   0  0  0  0  0  0  0  0  0  0  0  0
    3.3902   -2.2028    7.1772 H   0  0  0  0  0  0  0  0  0  0  0  0
    5.7893    0.5766    7.7933 H   0  0  0  0  0  0  0  0  0  0  0  0
    5.3886    1.5291    6.3793 H   0  0  0  0  0  0  0  0  0  0  0  0
    6.2436    0.0051    6.1825 H   0  0  0  0  0  0  0  0  0  0  0  0
    4.7549   -2.8247    0.0810 H   0  0  0  0  0  0  0  0  0  0  0  0
  1  2  1  0
  1 34  1  0
  1 35  1  0
  1 36  1  0
  2  8  1  0
  2  3  1  0
  2 37  1  6
  3  4  2  0
  5  3  1  1
  5 11  1  0
  5 28  1  0
  5  6  1  0
  6  7  1  0
  6  8  1  0
  6 38  1  1
  7 39  1  0
  8  9  1  0
  8 40  1  6
  9 10  1  0
  9 41  1  0
  9 42  1  0
 10 11  1  0
 10 43  1  0
 10 44  1  0
 11 12  1  0
 11 45  1  6
 12 26  1  0
 12 13  1  1
 12 14  1  0
 13 46  1  0
 13 47  1  0
 13 48  1  0
 14 15  1  0
 14 49  1  0
 14 50  1  0
 15 16  1  0
 15 23  1  0
 15 51  1  1
 16 22  1  0
 16 17  1  0
 16 74  1  0
 17 18  1  0
 17 52  1  0
 17 53  1  0
 18 19  1  0
 18 54  1  0
 18 55  1  0
 19 20  1  0
 19 21  1  0
 20 56  1  0
 20 57  1  0
 20 58  1  0
 21 22  1  0
 21 59  1  0
 21 60  1  0
 22 61  1  0
 22 62  1  0
 23 24  2  0
 23 25  1  0
 25 26  1  0
 26 27  1  0
 26 63  1  1
 27 31  1  0
 27 28  1  0
 27 64  1  6
 28 29  1  0
 28 65  1  1
 29 30  1  0
 29 31  1  0
 29 66  1  6
 30 67  1  0
 31 32  1  0
 31 33  1  0
 32 68  1  0
 32 69  1  0
 32 70  1  0
 33 71  1  0
 33 72  1  0
 33 73  1  0
M  CHG  1  16   1
M  END
>  <i_m_ct_stereo_status>  (336) 
1

>  <s_m_source_file>  (336) 
/var/tmp/pbs.5076255.sched01/tmpb6g28bo8/1236hu3uqnd.sdf

>  <i_m_source_file_index>  (336) 
22

>  <i_lp_mmshare_version>  (336) 
48012

>  <i_f3d_flags>  (336) 
0

>  <s_epik_input>  (336) 
Tz1DMVtDQEBIXShbQ0gzXSlbQ0BASF0oW0NAQEhdMltPSF0pW0NIMl1bQ0gyXVtDQEBIXShbQ0BdMTIzKVtDQF00KFtDSDNdKVtDQEhdKFtDQEhdNVtDQEhdM1tDQEBIXShbT0hdKUM1KFtDSDNdKVtDSDNdKU9DKD1PKVtDQEBIXShbQ0gyXTQpTjZbQ0gyXVtDSDJdTihbQ0gzXSlbQ0gyXVtDSDJdNg==

>  <s_epik_cmdline>  (336) 
J2VwaWtfcHl0aG9uJywgJy1waHQnLCAnMi4wJywgJy1waCcsICc3LjAnLCAnLXRuJywgJzgnLCAnLW1hJywgJzIwMCcsICctaW1hZScsICc8aW5maWxlLm1hZT4nLCAnLW9tYWUnLCAnPG91dGZpbGUubWFlPic=

>  <r_epik_Ionization_Penalty>  (336) 
0.133985

>  <r_epik_Ionization_Penalty_Charging>  (336) 
0.133063

>  <r_epik_Ionization_Penalty_Neutral>  (336) 
0.000921457

>  <r_epik_State_Penalty>  (336) 
0.860479

>  <r_epik_Charging_Adjusted_Penalty>  (336) 
0.993542

>  <i_epik_Tot_Q>  (336) 
1

>  <i_epik_Tot_abs_Q>  (336) 
1

>  <s_epik_Chemistry_Notes>  (336) 
This compound has an ester and may undergo hydrolysis at high or low pH.

>  <s_lp_Force_Field>  (336) 
OPLS3e

>  <r_lp_Energy>  (336) 
94.7181

>  <b_lp_Chiralities_Consistent>  (336) 
1

>  <s_lp_Variant>  (336) 
102:0-2

>  <s_i_glide_gridfile>  (336) 
pfpi4k_grid

>  <i_i_glide_lignum>  (336) 
22

>  <i_i_glide_rotatable_bonds>  (336) 
3

>  <r_i_docking_score>  (336) 
-2.34974

>  <r_i_glide_ligand_efficiency>  (336) 
-0.0712041

>  <r_i_glide_ligand_efficiency_sa>  (336) 
-0.22839

>  <r_i_glide_ligand_efficiency_ln>  (336) 
-0.522569

>  <r_i_glide_gscore>  (336) 
-2.34974

>  <r_i_glide_lipo>  (336) 
-0.0537463

>  <r_i_glide_hbond>  (336) 
0

>  <r_i_glide_metal>  (336) 
-0

>  <r_i_glide_rewards>  (336) 
-0.348991

>  <r_i_glide_evdw>  (336) 
-25.1803

>  <r_i_glide_ecoul>  (336) 
-4.92922

>  <r_i_glide_erotb>  (336) 
0.0945037

>  <r_i_glide_esite>  (336) 
-0.0431038

>  <r_i_glide_emodel>  (336) 
-33.4951

>  <r_i_glide_energy>  (336) 
-30.1096

>  <r_i_glide_einternal>  (336) 
2.14056

>  <r_i_glide_intrahb_reward>  (336) 
-0

>  <i_i_glide_confnum>  (336) 
2

>  <i_i_glide_posenum>  (336) 
9

>  <r_i_glide_eff_state_penalty>  (336) 
0

>  <ligand_id>  (336) 
102

>  <original_smiles>  (336) 
CC1C(=O)C23C(O)C1CCC2C1(C)CC(N2CCN(C)CC2)C(=O)OC1C1C3C(O)C1(C)C

>  <smiles>  (336) 
[H]OC1([H])C2([H])C([H])([H])C([H])([H])C3([H])C1(C(=O)C2([H])C([H])([H])[H])C1([H])C([H])(O[H])C(C([H])([H])[H])(C([H])([H])[H])C1([H])C1([H])OC(=O)C([H])([N+]2([H])C([H])([H])C([H])([H])N(C([H])([H])[H])C([H])([H])C2([H])[H])C([H])([H])C13C([H])([H])[H]

$$$$
102:2:0
     RDKit          3D

 73 78  0  0  1  0  0  0  0  0999 V2000
    3.0006   -9.8945    1.7744 C   0  0  0  0  0  0  0  0  0  0  0  0
    2.4299   -8.5170    2.1233 C   0  0  2  0  0  0  0  0  0  0  0  0
    2.8808   -8.0610    3.4970 C   0  0  0  0  0  0  0  0  0  0  0  0
    4.0756   -7.9503    3.8283 O   0  0  0  0  0  0  0  0  0  0  0  0
    1.6859   -7.7919    4.4210 C   0  0  2  0  0  0  0  0  0  0  0  0
    0.7041   -8.7986    3.7895 C   0  0  1  0  0  0  0  0  0  0  0  0
   -0.6425   -8.6940    4.2310 O   0  0  0  0  0  0  0  0  0  0  0  0
    0.8979   -8.5046    2.2843 C   0  0  1  0  0  0  0  0  0  0  0  0
    0.3298   -7.1021    1.9174 C   0  0  0  0  0  0  0  0  0  0  0  0
    0.9816   -5.9438    2.7333 C   0  0  0  0  0  0  0  0  0  0  0  0
    1.1184   -6.3195    4.2307 C   0  0  2  0  0  0  0  0  0  0  0  0
    1.7041   -5.2301    5.2218 C   0  0  1  0  0  0  0  0  0  0  0  0
    3.2227   -5.0047    4.9755 C   0  0  0  0  0  0  0  0  0  0  0  0
    0.9900   -3.8586    5.0421 C   0  0  0  0  0  0  0  0  0  0  0  0
    0.9458   -3.0074    6.3336 C   0  0  1  0  0  0  0  0  0  0  0  0
    0.4443   -1.6273    6.1277 N   0  0  0  0  0  0  0  0  0  0  0  0
    0.6823   -0.7424    7.2909 C   0  0  0  0  0  0  0  0  0  0  0  0
    0.1258    0.6813    7.1105 C   0  0  0  0  0  0  0  0  0  0  0  0
   -1.3020    0.6607    6.8021 N   0  0  0  0  0  0  0  0  0  0  0  0
   -1.8289    2.0073    6.6753 C   0  0  0  0  0  0  0  0  0  0  0  0
   -1.4970   -0.1064    5.5740 C   0  0  0  0  0  0  0  0  0  0  0  0
   -0.9772   -1.5476    5.7279 C   0  0  0  0  0  0  0  0  0  0  0  0
    0.2042   -3.8177    7.4432 C   0  0  0  0  0  0  0  0  0  0  0  0
   -0.5753   -3.3609    8.2676 O   0  0  0  0  0  0  0  0  0  0  0  0
    0.4399   -5.1319    7.4083 O   0  0  0  0  0  0  0  0  0  0  0  0
    1.5297   -5.7050    6.7157 C   0  0  1  0  0  0  0  0  0  0  0  0
    1.1642   -7.1843    6.7977 C   0  0  1  0  0  0  0  0  0  0  0  0
    2.0220   -8.0192    5.8943 C   0  0  1  0  0  0  0  0  0  0  0  0
    1.6558   -9.1980    6.7897 C   0  0  1  0  0  0  0  0  0  0  0  0
    2.6294  -10.1903    6.9862 O   0  0  0  0  0  0  0  0  0  0  0  0
    1.4290   -8.1658    7.9438 C   0  0  0  0  0  0  0  0  0  0  0  0
    2.6185   -7.7944    8.8439 C   0  0  0  0  0  0  0  0  0  0  0  0
    0.2460   -8.4908    8.8617 C   0  0  0  0  0  0  0  0  0  0  0  0
    4.0867   -9.8680    1.7038 H   0  0  0  0  0  0  0  0  0  0  0  0
    2.6143  -10.2370    0.8176 H   0  0  0  0  0  0  0  0  0  0  0  0
    2.7406  -10.6489    2.5187 H   0  0  0  0  0  0  0  0  0  0  0  0
    2.7526   -7.7966    1.3709 H   0  0  0  0  0  0  0  0  0  0  0  0
    1.0299   -9.8158    4.0087 H   0  0  0  0  0  0  0  0  0  0  0  0
   -0.9669   -9.5664    4.4514 H   0  0  0  0  0  0  0  0  0  0  0  0
    0.4178   -9.2747    1.6769 H   0  0  0  0  0  0  0  0  0  0  0  0
    0.4647   -6.9237    0.8473 H   0  0  0  0  0  0  0  0  0  0  0  0
   -0.7503   -7.1086    2.0875 H   0  0  0  0  0  0  0  0  0  0  0  0
    1.9473   -5.6783    2.2980 H   0  0  0  0  0  0  0  0  0  0  0  0
    0.3601   -5.0593    2.6316 H   0  0  0  0  0  0  0  0  0  0  0  0
    0.0677   -6.3497    4.5293 H   0  0  0  0  0  0  0  0  0  0  0  0
    3.6008   -4.1574    5.5495 H   0  0  0  0  0  0  0  0  0  0  0  0
    3.4583   -4.8162    3.9286 H   0  0  0  0  0  0  0  0  0  0  0  0
    3.8195   -5.8562    5.2922 H   0  0  0  0  0  0  0  0  0  0  0  0
    1.4806   -3.2883    4.2553 H   0  0  0  0  0  0  0  0  0  0  0  0
   -0.0315   -4.0216    4.6876 H   0  0  0  0  0  0  0  0  0  0  0  0
    1.9863   -2.9044    6.6412 H   0  0  0  0  0  0  0  0  0  0  0  0
    0.2226   -1.1206    8.2028 H   0  0  0  0  0  0  0  0  0  0  0  0
    1.7543   -0.6743    7.4938 H   0  0  0  0  0  0  0  0  0  0  0  0
    0.2807    1.2273    8.0464 H   0  0  0  0  0  0  0  0  0  0  0  0
    0.6790    1.2264    6.3404 H   0  0  0  0  0  0  0  0  0  0  0  0
   -2.9001    1.9973    6.4756 H   0  0  0  0  0  0  0  0  0  0  0  0
   -1.3329    2.5364    5.8617 H   0  0  0  0  0  0  0  0  0  0  0  0
   -1.6704    2.5757    7.5931 H   0  0  0  0  0  0  0  0  0  0  0  0
   -2.5612   -0.1518    5.3387 H   0  0  0  0  0  0  0  0  0  0  0  0
   -1.0127    0.3933    4.7327 H   0  0  0  0  0  0  0  0  0  0  0  0
   -1.1244   -2.0549    4.7743 H   0  0  0  0  0  0  0  0  0  0  0  0
   -1.6230   -2.0452    6.4472 H   0  0  0  0  0  0  0  0  0  0  0  0
    2.4357   -5.4859    7.2820 H   0  0  0  0  0  0  0  0  0  0  0  0
    0.1213   -7.3241    6.5134 H   0  0  0  0  0  0  0  0  0  0  0  0
    3.0620   -7.7772    6.0881 H   0  0  0  0  0  0  0  0  0  0  0  0
    0.7138   -9.6679    6.4855 H   0  0  0  0  0  0  0  0  0  0  0  0
    2.1631  -10.9774    7.2764 H   0  0  0  0  0  0  0  0  0  0  0  0
    2.8906   -8.6081    9.5143 H   0  0  0  0  0  0  0  0  0  0  0  0
    2.3846   -6.9187    9.4543 H   0  0  0  0  0  0  0  0  0  0  0  0
    3.5033   -7.5412    8.2606 H   0  0  0  0  0  0  0  0  0  0  0  0
    0.4819   -9.3282    9.5194 H   0  0  0  0  0  0  0  0  0  0  0  0
   -0.6293   -8.7820    8.2784 H   0  0  0  0  0  0  0  0  0  0  0  0
   -0.0371   -7.6388    9.4806 H   0  0  0  0  0  0  0  0  0  0  0  0
  1  2  1  0
  1 34  1  0
  1 35  1  0
  1 36  1  0
  2  8  1  0
  2  3  1  0
  2 37  1  6
  3  4  2  0
  5  3  1  6
  5 11  1  0
  5 28  1  0
  5  6  1  0
  6  7  1  0
  6  8  1  0
  6 38  1  6
  7 39  1  0
  8  9  1  0
  8 40  1  6
  9 10  1  0
  9 41  1  0
  9 42  1  0
 10 11  1  0
 10 43  1  0
 10 44  1  0
 11 12  1  0
 11 45  1  1
 12 26  1  0
 12 13  1  6
 12 14  1  0
 13 46  1  0
 13 47  1  0
 13 48  1  0
 14 15  1  0
 14 49  1  0
 14 50  1  0
 15 16  1  0
 15 23  1  0
 15 51  1  1
 16 22  1  0
 16 17  1  0
 17 18  1  0
 17 52  1  0
 17 53  1  0
 18 19  1  0
 18 54  1  0
 18 55  1  0
 19 20  1  0
 19 21  1  0
 20 56  1  0
 20 57  1  0
 20 58  1  0
 21 22  1  0
 21 59  1  0
 21 60  1  0
 22 61  1  0
 22 62  1  0
 23 24  2  0
 23 25  1  0
 25 26  1  0
 26 27  1  0
 26 63  1  1
 27 31  1  0
 27 28  1  0
 27 64  1  6
 28 29  1  0
 28 65  1  6
 29 30  1  0
 29 31  1  0
 29 66  1  6
 30 67  1  0
 31 32  1  0
 31 33  1  0
 32 68  1  0
 32 69  1  0
 32 70  1  0
 33 71  1  0
 33 72  1  0
 33 73  1  0
M  END
>  <i_m_ct_stereo_status>  (337) 
1

>  <s_m_source_file>  (337) 
/var/tmp/pbs.5076255.sched01/tmpb6g28bo8/1236hu3uqnd.sdf

>  <i_m_source_file_index>  (337) 
23

>  <i_lp_mmshare_version>  (337) 
48012

>  <i_f3d_flags>  (337) 
0

>  <s_epik_input>  (337) 
Tz1DMVtDQEBIXShbQ0gzXSlbQ0BASF0oW0NAQEhdMltPSF0pW0NIMl1bQ0gyXVtDQEBIXShbQ0BdMTIzKVtDQF00KFtDSDNdKVtDQEhdKFtDQEhdNVtDQEhdM1tDQEBIXShbT0hdKUM1KFtDSDNdKVtDSDNdKU9DKD1PKVtDQEBIXShbQ0gyXTQpTjZbQ0gyXVtDSDJdTihbQ0gzXSlbQ0gyXVtDSDJdNg==

>  <s_epik_cmdline>  (337) 
J2VwaWtfcHl0aG9uJywgJy1waHQnLCAnMi4wJywgJy1waCcsICc3LjAnLCAnLXRuJywgJzgnLCAnLW1hJywgJzIwMCcsICctaW1hZScsICc8aW5maWxlLm1hZT4nLCAnLW9tYWUnLCAnPG91dGZpbGUubWFlPic=

>  <r_lp_tautomer_probability>  (337) 
0.99995

>  <r_epik_Ionization_Penalty>  (337) 
2.43562

>  <r_epik_Ionization_Penalty_Charging>  (337) 
0

>  <r_epik_Ionization_Penalty_Neutral>  (337) 
2.43562

>  <r_epik_State_Penalty>  (337) 
1.73239

>  <r_epik_Charging_Adjusted_Penalty>  (337) 
1.73239

>  <i_epik_Tot_Q>  (337) 
0

>  <i_epik_Tot_abs_Q>  (337) 
0

>  <s_epik_Chemistry_Notes>  (337) 
This compound has an ester and may undergo hydrolysis at high or low pH.

>  <s_lp_Force_Field>  (337) 
OPLS3e

>  <r_lp_Energy>  (337) 
88.8637

>  <b_lp_Chiralities_Consistent>  (337) 
1

>  <s_lp_Variant>  (337) 
102:0-3

>  <s_i_glide_gridfile>  (337) 
pfpi4k_grid

>  <i_i_glide_lignum>  (337) 
23

>  <i_i_glide_rotatable_bonds>  (337) 
3

>  <r_i_docking_score>  (337) 
-3.46896

>  <r_i_glide_ligand_efficiency>  (337) 
-0.10512

>  <r_i_glide_ligand_efficiency_sa>  (337) 
-0.337176

>  <r_i_glide_ligand_efficiency_ln>  (337) 
-0.771478

>  <r_i_glide_gscore>  (337) 
-3.46896

>  <r_i_glide_lipo>  (337) 
-0.00299937

>  <r_i_glide_hbond>  (337) 
-0.536308

>  <r_i_glide_metal>  (337) 
-0

>  <r_i_glide_rewards>  (337) 
-0.268594

>  <r_i_glide_evdw>  (337) 
-19.5464

>  <r_i_glide_ecoul>  (337) 
-11.7504

>  <r_i_glide_erotb>  (337) 
0.0948808

>  <r_i_glide_esite>  (337) 
-0.0160511

>  <r_i_glide_emodel>  (337) 
-36.2707

>  <r_i_glide_energy>  (337) 
-31.2968

>  <r_i_glide_einternal>  (337) 
5.1008

>  <r_i_glide_intrahb_reward>  (337) 
-0

>  <i_i_glide_confnum>  (337) 
4

>  <i_i_glide_posenum>  (337) 
25

>  <r_i_glide_eff_state_penalty>  (337) 
0

>  <ligand_id>  (337) 
102

>  <original_smiles>  (337) 
CC1C(=O)C23C(O)C1CCC2C1(C)CC(N2CCN(C)CC2)C(=O)OC1C1C3C(O)C1(C)C

>  <smiles>  (337) 
[H]OC1([H])C2([H])C([H])([H])C([H])([H])C3([H])C1(C(=O)C2([H])C([H])([H])[H])C1([H])C([H])(O[H])C(C([H])([H])[H])(C([H])([H])[H])C1([H])C1([H])OC(=O)C([H])(N2C([H])([H])C([H])([H])N(C([H])([H])[H])C([H])([H])C2([H])[H])C([H])([H])C13C([H])([H])[H]

$$$$
102:2:1
     RDKit          3D

 73 78  0  0  1  0  0  0  0  0999 V2000
    2.9235   -9.8834    1.7909 C   0  0  0  0  0  0  0  0  0  0  0  0
    2.3459   -8.5048    2.1296 C   0  0  2  0  0  0  0  0  0  0  0  0
    2.8265   -8.0278    3.4963 C   0  0  0  0  0  0  0  0  0  0  0  0
    4.0132   -7.9065    3.7992 O   0  0  0  0  0  0  0  0  0  0  0  0
    1.6339   -7.7506    4.4340 C   0  0  2  0  0  0  0  0  0  0  0  0
    0.6432   -8.7688    3.8291 C   0  0  1  0  0  0  0  0  0  0  0  0
   -0.6994   -8.6575    4.2874 O   0  0  0  0  0  0  0  0  0  0  0  0
    0.8145   -8.4956    2.3154 C   0  0  1  0  0  0  0  0  0  0  0  0
    0.2384   -7.0984    1.9409 C   0  0  0  0  0  0  0  0  0  0  0  0
    0.8972   -5.9287    2.7304 C   0  0  0  0  0  0  0  0  0  0  0  0
    1.0617   -6.2845    4.2328 C   0  0  2  0  0  0  0  0  0  0  0  0
    1.6605   -5.1830    5.2060 C   0  0  1  0  0  0  0  0  0  0  0  0
    3.1746   -4.9565    4.9341 C   0  0  0  0  0  0  0  0  0  0  0  0
    0.9575   -3.8226    4.9860 C   0  0  0  0  0  0  0  0  0  0  0  0
    0.9506   -2.9044    6.2333 C   0  0  1  0  0  0  0  0  0  0  0  0
    0.4187   -1.5475    5.9786 N   0  0  0  0  0  0  0  0  0  0  0  0
   -0.9328   -1.5077    5.3939 C   0  0  0  0  0  0  0  0  0  0  0  0
   -1.4663   -0.0746    5.2567 C   0  0  0  0  0  0  0  0  0  0  0  0
   -0.5710    0.7491    4.4528 N   0  0  0  0  0  0  0  0  0  0  0  0
   -1.0904    2.0953    4.2817 C   0  0  0  0  0  0  0  0  0  0  0  0
    0.7565    0.7494    5.0649 C   0  0  0  0  0  0  0  0  0  0  0  0
    1.3199   -0.6810    5.2081 C   0  0  0  0  0  0  0  0  0  0  0  0
    0.1911   -3.6347    7.3681 C   0  0  0  0  0  0  0  0  0  0  0  0
   -0.5819   -3.0769    8.1489 O   0  0  0  0  0  0  0  0  0  0  0  0
    0.4137   -4.9626    7.4131 O   0  0  0  0  0  0  0  0  0  0  0  0
    1.4754   -5.6115    6.7181 C   0  0  1  0  0  0  0  0  0  0  0  0
    1.1323   -7.0990    6.8194 C   0  0  1  0  0  0  0  0  0  0  0  0
    1.9900   -7.9449    5.9071 C   0  0  1  0  0  0  0  0  0  0  0  0
    1.6447   -9.1184    6.8232 C   0  0  1  0  0  0  0  0  0  0  0  0
    2.6303  -10.1039    7.0109 O   0  0  0  0  0  0  0  0  0  0  0  0
    1.4333   -8.0748    7.9687 C   0  0  0  0  0  0  0  0  0  0  0  0
    2.6401   -7.6900    8.8374 C   0  0  0  0  0  0  0  0  0  0  0  0
    0.2695   -8.3984    8.9038 C   0  0  0  0  0  0  0  0  0  0  0  0
    4.0093   -9.8511    1.7093 H   0  0  0  0  0  0  0  0  0  0  0  0
    2.5407  -10.2427    0.8382 H   0  0  0  0  0  0  0  0  0  0  0  0
    2.6743  -10.6298    2.5477 H   0  0  0  0  0  0  0  0  0  0  0  0
    2.6535   -7.7918    1.3634 H   0  0  0  0  0  0  0  0  0  0  0  0
    0.9782   -9.7825    4.0564 H   0  0  0  0  0  0  0  0  0  0  0  0
   -1.0444   -9.5350    4.4474 H   0  0  0  0  0  0  0  0  0  0  0  0
    0.3281   -9.2748    1.7274 H   0  0  0  0  0  0  0  0  0  0  0  0
    0.3552   -6.9328    0.8668 H   0  0  0  0  0  0  0  0  0  0  0  0
   -0.8374   -7.1063    2.1275 H   0  0  0  0  0  0  0  0  0  0  0  0
    1.8531   -5.6616    2.2780 H   0  0  0  0  0  0  0  0  0  0  0  0
    0.2655   -5.0529    2.6331 H   0  0  0  0  0  0  0  0  0  0  0  0
    0.0175   -6.3170    4.5484 H   0  0  0  0  0  0  0  0  0  0  0  0
    3.5578   -4.0969    5.4841 H   0  0  0  0  0  0  0  0  0  0  0  0
    3.3870   -4.7795    3.8803 H   0  0  0  0  0  0  0  0  0  0  0  0
    3.7841   -5.8006    5.2472 H   0  0  0  0  0  0  0  0  0  0  0  0
    1.4283   -3.3120    4.1485 H   0  0  0  0  0  0  0  0  0  0  0  0
   -0.0730   -4.0091    4.6829 H   0  0  0  0  0  0  0  0  0  0  0  0
    1.9811   -2.7942    6.5745 H   0  0  0  0  0  0  0  0  0  0  0  0
   -0.9314   -1.9590    4.4047 H   0  0  0  0  0  0  0  0  0  0  0  0
   -1.6367   -2.0788    5.9967 H   0  0  0  0  0  0  0  0  0  0  0  0
   -2.4459   -0.1148    4.7806 H   0  0  0  0  0  0  0  0  0  0  0  0
   -1.6100    0.3742    6.2392 H   0  0  0  0  0  0  0  0  0  0  0  0
   -0.4323    2.6859    3.6438 H   0  0  0  0  0  0  0  0  0  0  0  0
   -1.1840    2.6058    5.2404 H   0  0  0  0  0  0  0  0  0  0  0  0
   -2.0733    2.0733    3.8108 H   0  0  0  0  0  0  0  0  0  0  0  0
    1.4403    1.3382    4.4492 H   0  0  0  0  0  0  0  0  0  0  0  0
    0.7222    1.2356    6.0402 H   0  0  0  0  0  0  0  0  0  0  0  0
    2.2966   -0.6294    5.6991 H   0  0  0  0  0  0  0  0  0  0  0  0
    1.4944   -1.0871    4.2115 H   0  0  0  0  0  0  0  0  0  0  0  0
    2.3974   -5.3924    7.2594 H   0  0  0  0  0  0  0  0  0  0  0  0
    0.0839   -7.2534    6.5464 H   0  0  0  0  0  0  0  0  0  0  0  0
    3.0412   -7.7006    6.0766 H   0  0  0  0  0  0  0  0  0  0  0  0
    0.7081   -9.6023    6.5312 H   0  0  0  0  0  0  0  0  0  0  0  0
    2.1777  -10.9061    7.2793 H   0  0  0  0  0  0  0  0  0  0  0  0
    2.9270   -8.4964    9.5119 H   0  0  0  0  0  0  0  0  0  0  0  0
    2.4141   -6.8074    9.4403 H   0  0  0  0  0  0  0  0  0  0  0  0
    3.5161   -7.4419    8.2332 H   0  0  0  0  0  0  0  0  0  0  0  0
    0.5206   -9.2274    9.5655 H   0  0  0  0  0  0  0  0  0  0  0  0
   -0.6140   -8.6997    8.3369 H   0  0  0  0  0  0  0  0  0  0  0  0
   -0.0057   -7.5407    9.5156 H   0  0  0  0  0  0  0  0  0  0  0  0
  1  2  1  0
  1 34  1  0
  1 35  1  0
  1 36  1  0
  2  8  1  0
  2  3  1  0
  2 37  1  6
  3  4  2  0
  5  3  1  6
  5 11  1  0
  5 28  1  0
  5  6  1  0
  6  7  1  0
  6  8  1  0
  6 38  1  6
  7 39  1  0
  8  9  1  0
  8 40  1  6
  9 10  1  0
  9 41  1  0
  9 42  1  0
 10 11  1  0
 10 43  1  0
 10 44  1  0
 11 12  1  0
 11 45  1  1
 12 26  1  0
 12 13  1  6
 12 14  1  0
 13 46  1  0
 13 47  1  0
 13 48  1  0
 14 15  1  0
 14 49  1  0
 14 50  1  0
 15 16  1  0
 15 23  1  0
 15 51  1  1
 16 22  1  0
 16 17  1  0
 17 18  1  0
 17 52  1  0
 17 53  1  0
 18 19  1  0
 18 54  1  0
 18 55  1  0
 19 20  1  0
 19 21  1  0
 20 56  1  0
 20 57  1  0
 20 58  1  0
 21 22  1  0
 21 59  1  0
 21 60  1  0
 22 61  1  0
 22 62  1  0
 23 24  2  0
 23 25  1  0
 25 26  1  0
 26 27  1  0
 26 63  1  1
 27 31  1  0
 27 28  1  0
 27 64  1  6
 28 29  1  0
 28 65  1  6
 29 30  1  0
 29 31  1  0
 29 66  1  6
 30 67  1  0
 31 32  1  0
 31 33  1  0
 32 68  1  0
 32 69  1  0
 32 70  1  0
 33 71  1  0
 33 72  1  0
 33 73  1  0
M  END
>  <i_m_ct_stereo_status>  (338) 
1

>  <s_m_source_file>  (338) 
/var/tmp/pbs.5076255.sched01/tmpb6g28bo8/1236hu3uqnd.sdf

>  <i_m_source_file_index>  (338) 
23

>  <i_lp_mmshare_version>  (338) 
48012

>  <i_f3d_flags>  (338) 
0

>  <s_epik_input>  (338) 
Tz1DMVtDQEBIXShbQ0gzXSlbQ0BASF0oW0NAQEhdMltPSF0pW0NIMl1bQ0gyXVtDQEBIXShbQ0BdMTIzKVtDQF00KFtDSDNdKVtDQEhdKFtDQEhdNVtDQEhdM1tDQEBIXShbT0hdKUM1KFtDSDNdKVtDSDNdKU9DKD1PKVtDQEBIXShbQ0gyXTQpTjZbQ0gyXVtDSDJdTihbQ0gzXSlbQ0gyXVtDSDJdNg==

>  <s_epik_cmdline>  (338) 
J2VwaWtfcHl0aG9uJywgJy1waHQnLCAnMi4wJywgJy1waCcsICc3LjAnLCAnLXRuJywgJzgnLCAnLW1hJywgJzIwMCcsICctaW1hZScsICc8aW5maWxlLm1hZT4nLCAnLW9tYWUnLCAnPG91dGZpbGUubWFlPic=

>  <r_lp_tautomer_probability>  (338) 
0.99995

>  <r_epik_Ionization_Penalty>  (338) 
2.43562

>  <r_epik_Ionization_Penalty_Charging>  (338) 
0

>  <r_epik_Ionization_Penalty_Neutral>  (338) 
2.43562

>  <r_epik_State_Penalty>  (338) 
1.73239

>  <r_epik_Charging_Adjusted_Penalty>  (338) 
1.73239

>  <i_epik_Tot_Q>  (338) 
0

>  <i_epik_Tot_abs_Q>  (338) 
0

>  <s_epik_Chemistry_Notes>  (338) 
This compound has an ester and may undergo hydrolysis at high or low pH.

>  <s_lp_Force_Field>  (338) 
OPLS3e

>  <r_lp_Energy>  (338) 
88.8637

>  <b_lp_Chiralities_Consistent>  (338) 
1

>  <s_lp_Variant>  (338) 
102:0-3

>  <s_i_glide_gridfile>  (338) 
pfpi4k_grid

>  <i_i_glide_lignum>  (338) 
23

>  <i_i_glide_rotatable_bonds>  (338) 
3

>  <r_i_docking_score>  (338) 
-2.98774

>  <r_i_glide_ligand_efficiency>  (338) 
-0.0905376

>  <r_i_glide_ligand_efficiency_sa>  (338) 
-0.290402

>  <r_i_glide_ligand_efficiency_ln>  (338) 
-0.664458

>  <r_i_glide_gscore>  (338) 
-2.98774

>  <r_i_glide_lipo>  (338) 
-0.00366263

>  <r_i_glide_hbond>  (338) 
-0.418034

>  <r_i_glide_metal>  (338) 
-0

>  <r_i_glide_rewards>  (338) 
-0.268594

>  <r_i_glide_evdw>  (338) 
-20.0886

>  <r_i_glide_ecoul>  (338) 
-9.12751

>  <r_i_glide_erotb>  (338) 
0.0948808

>  <r_i_glide_esite>  (338) 
-0.0187736

>  <r_i_glide_emodel>  (338) 
-34.4394

>  <r_i_glide_energy>  (338) 
-29.2161

>  <r_i_glide_einternal>  (338) 
2.61077

>  <r_i_glide_intrahb_reward>  (338) 
-0

>  <i_i_glide_confnum>  (338) 
4

>  <i_i_glide_posenum>  (338) 
1

>  <r_i_glide_eff_state_penalty>  (338) 
0

>  <ligand_id>  (338) 
102

>  <original_smiles>  (338) 
CC1C(=O)C23C(O)C1CCC2C1(C)CC(N2CCN(C)CC2)C(=O)OC1C1C3C(O)C1(C)C

>  <smiles>  (338) 
[H]OC1([H])C2([H])C([H])([H])C([H])([H])C3([H])C1(C(=O)C2([H])C([H])([H])[H])C1([H])C([H])(O[H])C(C([H])([H])[H])(C([H])([H])[H])C1([H])C1([H])OC(=O)C([H])(N2C([H])([H])C([H])([H])N(C([H])([H])[H])C([H])([H])C2([H])[H])C([H])([H])C13C([H])([H])[H]

$$$$
102:2:2
     RDKit          3D

 73 78  0  0  1  0  0  0  0  0999 V2000
    4.3896   -9.1361    1.5504 C   0  0  0  0  0  0  0  0  0  0  0  0
    3.5749   -7.8867    1.9214 C   0  0  2  0  0  0  0  0  0  0  0  0
    3.6552   -7.5948    3.4206 C   0  0  0  0  0  0  0  0  0  0  0  0
    4.7108   -7.4170    4.0249 O   0  0  0  0  0  0  0  0  0  0  0  0
    2.2496   -7.5878    4.0567 C   0  0  2  0  0  0  0  0  0  0  0  0
    1.5787   -8.5784    3.0822 C   0  0  1  0  0  0  0  0  0  0  0  0
    0.1673   -8.6755    3.1743 O   0  0  0  0  0  0  0  0  0  0  0  0
    2.0563   -8.0457    1.7118 C   0  0  1  0  0  0  0  0  0  0  0  0
    1.4022   -6.6636    1.4093 C   0  0  0  0  0  0  0  0  0  0  0  0
    1.7004   -5.5855    2.4951 C   0  0  0  0  0  0  0  0  0  0  0  0
    1.5507   -6.1706    3.9250 C   0  0  2  0  0  0  0  0  0  0  0  0
    1.7535   -5.1944    5.1604 C   0  0  1  0  0  0  0  0  0  0  0  0
    3.2446   -4.7832    5.3133 C   0  0  0  0  0  0  0  0  0  0  0  0
    0.9443   -3.8892    4.9642 C   0  0  0  0  0  0  0  0  0  0  0  0
    0.5210   -3.2003    6.2862 C   0  0  1  0  0  0  0  0  0  0  0  0
   -0.1113   -1.8704    6.1063 N   0  0  0  0  0  0  0  0  0  0  0  0
    0.8097   -0.8197    5.6501 C   0  0  0  0  0  0  0  0  0  0  0  0
    0.1120    0.5551    5.5685 C   0  0  0  0  0  0  0  0  0  0  0  0
   -1.0553    0.5185    4.6904 N   0  0  0  0  0  0  0  0  0  0  0  0
   -1.6982    1.8181    4.5875 C   0  0  0  0  0  0  0  0  0  0  0  0
   -1.9815   -0.4988    5.1687 C   0  0  0  0  0  0  0  0  0  0  0  0
   -1.3084   -1.8736    5.2532 C   0  0  0  0  0  0  0  0  0  0  0  0
   -0.3769   -4.1888    7.0808 C   0  0  0  0  0  0  0  0  0  0  0  0
   -1.3756   -3.8544    7.7124 O   0  0  0  0  0  0  0  0  0  0  0  0
    0.0108   -5.4761    6.9915 O   0  0  0  0  0  0  0  0  0  0  0  0
    1.2823   -5.8864    6.5020 C   0  0  1  0  0  0  0  0  0  0  0  0
    1.1229   -7.3926    6.3041 C   0  0  1  0  0  0  0  0  0  0  0  0
    2.2771   -7.9928    5.5341 C   0  0  1  0  0  0  0  0  0  0  0  0
    1.8814   -9.3285    6.1694 C   0  0  1  0  0  0  0  0  0  0  0  0
    2.9047  -10.2399    6.4891 O   0  0  0  0  0  0  0  0  0  0  0  0
    1.2743   -8.5047    7.3491 C   0  0  0  0  0  0  0  0  0  0  0  0
    2.1811   -8.1599    8.5398 C   0  0  0  0  0  0  0  0  0  0  0  0
   -0.0124   -9.0958    7.9070 C   0  0  0  0  0  0  0  0  0  0  0  0
    5.4498   -8.9823    1.7494 H   0  0  0  0  0  0  0  0  0  0  0  0
    4.2818   -9.3783    0.4938 H   0  0  0  0  0  0  0  0  0  0  0  0
    4.0748  -10.0125    2.1202 H   0  0  0  0  0  0  0  0  0  0  0  0
    3.9572   -7.0295    1.3662 H   0  0  0  0  0  0  0  0  0  0  0  0
    1.9750   -9.5814    3.2502 H   0  0  0  0  0  0  0  0  0  0  0  0
   -0.1065   -9.4288    2.6719 H   0  0  0  0  0  0  0  0  0  0  0  0
    1.8249   -8.7602    0.9179 H   0  0  0  0  0  0  0  0  0  0  0  0
    1.7427   -6.3022    0.4366 H   0  0  0  0  0  0  0  0  0  0  0  0
    0.3229   -6.8041    1.3162 H   0  0  0  0  0  0  0  0  0  0  0  0
    2.6949   -5.1659    2.3403 H   0  0  0  0  0  0  0  0  0  0  0  0
    1.0160   -4.7509    2.3675 H   0  0  0  0  0  0  0  0  0  0  0  0
    0.4751   -6.3545    3.9618 H   0  0  0  0  0  0  0  0  0  0  0  0
    3.3706   -3.9947    6.0551 H   0  0  0  0  0  0  0  0  0  0  0  0
    3.6708   -4.4148    4.3816 H   0  0  0  0  0  0  0  0  0  0  0  0
    3.8691   -5.6064    5.6495 H   0  0  0  0  0  0  0  0  0  0  0  0
    1.5274   -3.2070    4.3499 H   0  0  0  0  0  0  0  0  0  0  0  0
    0.0473   -4.1190    4.3897 H   0  0  0  0  0  0  0  0  0  0  0  0
    1.4195   -3.0497    6.8855 H   0  0  0  0  0  0  0  0  0  0  0  0
    1.6610   -0.7473    6.3329 H   0  0  0  0  0  0  0  0  0  0  0  0
    1.2193   -1.0531    4.6667 H   0  0  0  0  0  0  0  0  0  0  0  0
   -0.1779    0.8858    6.5666 H   0  0  0  0  0  0  0  0  0  0  0  0
    0.8248    1.2913    5.1893 H   0  0  0  0  0  0  0  0  0  0  0  0
   -2.0699    2.1524    5.5565 H   0  0  0  0  0  0  0  0  0  0  0  0
   -2.5396    1.7773    3.8954 H   0  0  0  0  0  0  0  0  0  0  0  0
   -0.9979    2.5651    4.2138 H   0  0  0  0  0  0  0  0  0  0  0  0
   -2.3832   -0.2121    6.1388 H   0  0  0  0  0  0  0  0  0  0  0  0
   -2.8298   -0.5726    4.4884 H   0  0  0  0  0  0  0  0  0  0  0  0
   -1.0444   -2.1816    4.2432 H   0  0  0  0  0  0  0  0  0  0  0  0
   -2.0481   -2.5764    5.6318 H   0  0  0  0  0  0  0  0  0  0  0  0
    2.0126   -5.6725    7.2854 H   0  0  0  0  0  0  0  0  0  0  0  0
    0.1940   -7.5991    5.7608 H   0  0  0  0  0  0  0  0  0  0  0  0
    3.2164   -7.6786    5.9949 H   0  0  0  0  0  0  0  0  0  0  0  0
    1.1137   -9.8487    5.5899 H   0  0  0  0  0  0  0  0  0  0  0  0
    2.4758  -10.9997    6.8782 H   0  0  0  0  0  0  0  0  0  0  0  0
    2.4032   -9.0396    9.1442 H   0  0  0  0  0  0  0  0  0  0  0  0
    1.7045   -7.4181    9.1845 H   0  0  0  0  0  0  0  0  0  0  0  0
    3.1343   -7.7358    8.2179 H   0  0  0  0  0  0  0  0  0  0  0  0
    0.2204   -9.9888    8.4846 H   0  0  0  0  0  0  0  0  0  0  0  0
   -0.6912   -9.3995    7.1053 H   0  0  0  0  0  0  0  0  0  0  0  0
   -0.5475   -8.3929    8.5431 H   0  0  0  0  0  0  0  0  0  0  0  0
  1  2  1  0
  1 34  1  0
  1 35  1  0
  1 36  1  0
  2  8  1  0
  2  3  1  0
  2 37  1  6
  3  4  2  0
  5  3  1  6
  5 11  1  0
  5 28  1  0
  5  6  1  0
  6  7  1  0
  6  8  1  0
  6 38  1  1
  7 39  1  0
  8  9  1  0
  8 40  1  6
  9 10  1  0
  9 41  1  0
  9 42  1  0
 10 11  1  0
 10 43  1  0
 10 44  1  0
 11 12  1  0
 11 45  1  6
 12 26  1  0
 12 13  1  1
 12 14  1  0
 13 46  1  0
 13 47  1  0
 13 48  1  0
 14 15  1  0
 14 49  1  0
 14 50  1  0
 15 16  1  0
 15 23  1  0
 15 51  1  1
 16 22  1  0
 16 17  1  0
 17 18  1  0
 17 52  1  0
 17 53  1  0
 18 19  1  0
 18 54  1  0
 18 55  1  0
 19 20  1  0
 19 21  1  0
 20 56  1  0
 20 57  1  0
 20 58  1  0
 21 22  1  0
 21 59  1  0
 21 60  1  0
 22 61  1  0
 22 62  1  0
 23 24  2  0
 23 25  1  0
 25 26  1  0
 26 27  1  0
 26 63  1  1
 27 31  1  0
 27 28  1  0
 27 64  1  6
 28 29  1  0
 28 65  1  1
 29 30  1  0
 29 31  1  0
 29 66  1  6
 30 67  1  0
 31 32  1  0
 31 33  1  0
 32 68  1  0
 32 69  1  0
 32 70  1  0
 33 71  1  0
 33 72  1  0
 33 73  1  0
M  END
>  <i_m_ct_stereo_status>  (339) 
1

>  <s_m_source_file>  (339) 
/var/tmp/pbs.5076255.sched01/tmpb6g28bo8/1236hu3uqnd.sdf

>  <i_m_source_file_index>  (339) 
23

>  <i_lp_mmshare_version>  (339) 
48012

>  <i_f3d_flags>  (339) 
0

>  <s_epik_input>  (339) 
Tz1DMVtDQEBIXShbQ0gzXSlbQ0BASF0oW0NAQEhdMltPSF0pW0NIMl1bQ0gyXVtDQEBIXShbQ0BdMTIzKVtDQF00KFtDSDNdKVtDQEhdKFtDQEhdNVtDQEhdM1tDQEBIXShbT0hdKUM1KFtDSDNdKVtDSDNdKU9DKD1PKVtDQEBIXShbQ0gyXTQpTjZbQ0gyXVtDSDJdTihbQ0gzXSlbQ0gyXVtDSDJdNg==

>  <s_epik_cmdline>  (339) 
J2VwaWtfcHl0aG9uJywgJy1waHQnLCAnMi4wJywgJy1waCcsICc3LjAnLCAnLXRuJywgJzgnLCAnLW1hJywgJzIwMCcsICctaW1hZScsICc8aW5maWxlLm1hZT4nLCAnLW9tYWUnLCAnPG91dGZpbGUubWFlPic=

>  <r_lp_tautomer_probability>  (339) 
0.99995

>  <r_epik_Ionization_Penalty>  (339) 
2.43562

>  <r_epik_Ionization_Penalty_Charging>  (339) 
0

>  <r_epik_Ionization_Penalty_Neutral>  (339) 
2.43562

>  <r_epik_State_Penalty>  (339) 
1.73239

>  <r_epik_Charging_Adjusted_Penalty>  (339) 
1.73239

>  <i_epik_Tot_Q>  (339) 
0

>  <i_epik_Tot_abs_Q>  (339) 
0

>  <s_epik_Chemistry_Notes>  (339) 
This compound has an ester and may undergo hydrolysis at high or low pH.

>  <s_lp_Force_Field>  (339) 
OPLS3e

>  <r_lp_Energy>  (339) 
88.8637

>  <b_lp_Chiralities_Consistent>  (339) 
1

>  <s_lp_Variant>  (339) 
102:0-3

>  <s_i_glide_gridfile>  (339) 
pfpi4k_grid

>  <i_i_glide_lignum>  (339) 
23

>  <i_i_glide_rotatable_bonds>  (339) 
3

>  <r_i_docking_score>  (339) 
-2.37534

>  <r_i_glide_ligand_efficiency>  (339) 
-0.0719799

>  <r_i_glide_ligand_efficiency_sa>  (339) 
-0.230878

>  <r_i_glide_ligand_efficiency_ln>  (339) 
-0.528262

>  <r_i_glide_gscore>  (339) 
-2.37534

>  <r_i_glide_lipo>  (339) 
-0.00322654

>  <r_i_glide_hbond>  (339) 
-0.169065

>  <r_i_glide_metal>  (339) 
-0

>  <r_i_glide_rewards>  (339) 
-0.268594

>  <r_i_glide_evdw>  (339) 
-24.7405

>  <r_i_glide_ecoul>  (339) 
-5.17418

>  <r_i_glide_erotb>  (339) 
0.0948808

>  <r_i_glide_esite>  (339) 
-0.0161792

>  <r_i_glide_emodel>  (339) 
-34.456

>  <r_i_glide_energy>  (339) 
-29.9147

>  <r_i_glide_einternal>  (339) 
1.57372

>  <r_i_glide_intrahb_reward>  (339) 
-0

>  <i_i_glide_confnum>  (339) 
1

>  <i_i_glide_posenum>  (339) 
17

>  <r_i_glide_eff_state_penalty>  (339) 
0

>  <ligand_id>  (339) 
102

>  <original_smiles>  (339) 
CC1C(=O)C23C(O)C1CCC2C1(C)CC(N2CCN(C)CC2)C(=O)OC1C1C3C(O)C1(C)C

>  <smiles>  (339) 
[H]OC1([H])C2([H])C([H])([H])C([H])([H])C3([H])C1(C(=O)C2([H])C([H])([H])[H])C1([H])C([H])(O[H])C(C([H])([H])[H])(C([H])([H])[H])C1([H])C1([H])OC(=O)C([H])(N2C([H])([H])C([H])([H])N(C([H])([H])[H])C([H])([H])C2([H])[H])C([H])([H])C13C([H])([H])[H]

$$$$
103:0:0
     RDKit          3D

 38 40  0  0  1  0  0  0  0  0999 V2000
    0.0424   -6.1190    5.9176 C   0  0  0  0  0  0  0  0  0  0  0  0
    0.6851   -6.0480    4.6197 N   0  0  0  0  0  0  0  0  0  0  0  0
    1.1724   -4.8928    4.1437 C   0  0  0  0  0  0  0  0  0  0  0  0
    1.0459   -3.7254    4.8207 N   0  0  0  0  0  0  0  0  0  0  0  0
    1.5232   -2.5965    4.2833 C   0  0  0  0  0  0  0  0  0  0  0  0
    2.1406   -2.4271    3.1096 N   0  0  0  0  0  0  0  0  0  0  0  0
    2.2599   -3.6065    2.4272 C   0  0  0  0  0  0  0  0  0  0  0  0
    1.8025   -4.8713    2.8758 C   0  0  0  0  0  0  0  0  0  0  0  0
    2.0433   -5.8440    1.9203 N   0  0  0  0  0  0  0  0  0  0  0  0
    2.6519   -5.1913    0.9638 C   0  0  0  0  0  0  0  0  0  0  0  0
    2.8196   -3.8423    1.1875 N   0  0  0  0  0  0  0  0  0  0  0  0
    3.4767   -2.8381    0.3062 C   0  0  2  0  0  0  0  0  0  0  0  0
    2.9594   -3.0079   -0.9769 O   0  0  0  0  0  0  0  0  0  0  0  0
    4.0180   -3.1423   -1.9331 C   0  0  1  0  0  0  0  0  0  0  0  0
    3.7254   -2.3660   -3.2210 C   0  0  0  0  0  0  0  0  0  0  0  0
    4.2114   -2.7179   -4.3007 O   0  0  0  0  0  0  0  0  0  0  0  0
    2.9986   -1.2513   -3.0896 N   0  0  0  0  0  0  0  0  0  0  0  0
    2.8426   -0.2358   -4.1294 C   0  0  0  0  0  0  0  0  0  0  0  0
    5.3003   -2.7008   -1.1974 C   0  0  1  0  0  0  0  0  0  0  0  0
    5.5058   -1.2889   -1.1902 O   0  0  0  0  0  0  0  0  0  0  0  0
    4.9812   -3.1465    0.2171 C   0  0  1  0  0  0  0  0  0  0  0  0
    5.7698   -2.4475    1.1606 O   0  0  0  0  0  0  0  0  0  0  0  0
    0.8217   -6.9268    4.1423 H   0  0  0  0  0  0  0  0  0  0  0  0
   -0.1816   -7.1679    6.1140 H   0  0  0  0  0  0  0  0  0  0  0  0
   -0.8954   -5.5576    5.9180 H   0  0  0  0  0  0  0  0  0  0  0  0
    0.6945   -5.7609    6.7194 H   0  0  0  0  0  0  0  0  0  0  0  0
    1.3983   -1.7140    4.8940 H   0  0  0  0  0  0  0  0  0  0  0  0
    3.0096   -5.6906    0.0774 H   0  0  0  0  0  0  0  0  0  0  0  0
    3.1891   -1.8423    0.6638 H   0  0  0  0  0  0  0  0  0  0  0  0
    4.1151   -4.2035   -2.1811 H   0  0  0  0  0  0  0  0  0  0  0  0
    2.5384   -1.0861   -2.2052 H   0  0  0  0  0  0  0  0  0  0  0  0
    2.1650    0.5321   -3.7942 H   0  0  0  0  0  0  0  0  0  0  0  0
    2.4261   -0.6509   -5.0537 H   0  0  0  0  0  0  0  0  0  0  0  0
    3.8025    0.2446   -4.3520 H   0  0  0  0  0  0  0  0  0  0  0  0
    6.1839   -3.2017   -1.6039 H   0  0  0  0  0  0  0  0  0  0  0  0
    4.6657   -0.8619   -1.0896 H   0  0  0  0  0  0  0  0  0  0  0  0
    5.1398   -4.2237    0.2824 H   0  0  0  0  0  0  0  0  0  0  0  0
    5.5803   -1.5259    1.0613 H   0  0  0  0  0  0  0  0  0  0  0  0
  1 24  1  0
  1 25  1  0
  1 26  1  0
  1  2  1  0
  2  3  1  0
  2 23  1  0
  3  4  2  0
  3  8  1  0
  4  5  1  0
  5 27  1  0
  5  6  2  0
  6  7  1  0
  7 11  1  0
  7  8  2  0
  8  9  1  0
  9 10  2  0
 10 28  1  0
 10 11  1  0
 11 12  1  0
 12 21  1  0
 12 13  1  0
 12 29  1  1
 13 14  1  0
 14 15  1  0
 14 19  1  0
 14 30  1  6
 15 16  2  0
 15 17  1  0
 17 18  1  0
 17 31  1  0
 18 32  1  0
 18 33  1  0
 18 34  1  0
 19 20  1  0
 19 21  1  0
 19 35  1  6
 20 36  1  0
 21 22  1  0
 21 37  1  6
 22 38  1  0
M  END
>  <i_m_ct_stereo_status>  (340) 
1

>  <s_m_source_file>  (340) 
/var/tmp/pbs.5076255.sched01/tmpb6g28bo8/1236hu3uqnd.sdf

>  <i_m_source_file_index>  (340) 
24

>  <i_lp_mmshare_version>  (340) 
48012

>  <i_f3d_flags>  (340) 
0

>  <s_epik_input>  (340) 
bjFbY0hdW25IXVxjKD1OXFtDSDNdKWMoYzEyKW5bY0hdbjJbQ0BASF0zT1tDQEBIXShDKD1PKVtOSF1bQ0gzXSlbQ0BASF0oW09IXSlbQ0BIXTNbT0hd

>  <s_epik_cmdline>  (340) 
J2VwaWtfcHl0aG9uJywgJy1waHQnLCAnMi4wJywgJy1waCcsICc3LjAnLCAnLXRuJywgJzgnLCAnLW1hJywgJzIwMCcsICctaW1hZScsICc8aW5maWxlLm1hZT4nLCAnLW9tYWUnLCAnPG91dGZpbGUubWFlPic=

>  <r_lp_tautomer_probability>  (340) 
1

>  <r_epik_Ionization_Penalty>  (340) 
0.000602663

>  <r_epik_Ionization_Penalty_Charging>  (340) 
0

>  <r_epik_Ionization_Penalty_Neutral>  (340) 
0.000602663

>  <r_epik_State_Penalty>  (340) 
-0

>  <r_epik_Charging_Adjusted_Penalty>  (340) 
0

>  <i_epik_Tot_Q>  (340) 
0

>  <i_epik_Tot_abs_Q>  (340) 
0

>  <s_epik_Chemistry_Notes>  (340) 
This compound contains an acetal/aminal-like group ( X-CH(R)-Y where X, Y are N, S, or O) that may be acid/base labile, releasing an aldehyde.

>  <s_lp_Force_Field>  (340) 
OPLS3e

>  <r_lp_Energy>  (340) 
32.0041

>  <b_lp_Chiralities_Consistent>  (340) 
1

>  <s_lp_Variant>  (340) 
103:0-1

>  <s_i_glide_gridfile>  (340) 
pfpi4k_grid

>  <i_i_glide_lignum>  (340) 
24

>  <i_i_glide_rotatable_bonds>  (340) 
6

>  <r_i_docking_score>  (340) 
-4.15163

>  <r_i_glide_ligand_efficiency>  (340) 
-0.18871

>  <r_i_glide_ligand_efficiency_sa>  (340) 
-0.528774

>  <r_i_glide_ligand_efficiency_ln>  (340) 
-1.01481

>  <r_i_glide_gscore>  (340) 
-4.15163

>  <r_i_glide_lipo>  (340) 
-0.209531

>  <r_i_glide_hbond>  (340) 
-0.348395

>  <r_i_glide_metal>  (340) 
-0

>  <r_i_glide_rewards>  (340) 
-1.5143

>  <r_i_glide_evdw>  (340) 
-24.0955

>  <r_i_glide_ecoul>  (340) 
-7.85622

>  <r_i_glide_erotb>  (340) 
0.389278

>  <r_i_glide_esite>  (340) 
-0.0854751

>  <r_i_glide_emodel>  (340) 
-39.6981

>  <r_i_glide_energy>  (340) 
-31.9517

>  <r_i_glide_einternal>  (340) 
1.91743

>  <r_i_glide_intrahb_reward>  (340) 
-0

>  <i_i_glide_confnum>  (340) 
2

>  <i_i_glide_posenum>  (340) 
3

>  <r_i_glide_eff_state_penalty>  (340) 
0

>  <ligand_id>  (340) 
103

>  <original_smiles>  (340) 
CN=c1[nH]cnc2c1ncn2C1OC(C(=O)NC)C(O)C1O

>  <smiles>  (340) 
[H]OC1([H])C([H])(C(=O)N([H])C([H])([H])[H])OC([H])(n2c([H])nc3c(N([H])C([H])([H])[H])nc([H])nc32)C1([H])O[H]

$$$$
103:0:1
     RDKit          3D

 38 40  0  0  1  0  0  0  0  0999 V2000
   -0.2151   -6.1997    5.7659 C   0  0  0  0  0  0  0  0  0  0  0  0
    0.5624   -6.1523    4.5417 N   0  0  0  0  0  0  0  0  0  0  0  0
    1.0886   -4.9976    4.1019 C   0  0  0  0  0  0  0  0  0  0  0  0
    0.9545   -3.8311    4.7841 N   0  0  0  0  0  0  0  0  0  0  0  0
    1.4872   -2.7106    4.2864 C   0  0  0  0  0  0  0  0  0  0  0  0
    2.1807   -2.5481    3.1504 N   0  0  0  0  0  0  0  0  0  0  0  0
    2.3065   -3.7264    2.4593 C   0  0  0  0  0  0  0  0  0  0  0  0
    1.7861   -4.9816    2.8732 C   0  0  0  0  0  0  0  0  0  0  0  0
    2.0575   -5.9444    1.9212 N   0  0  0  0  0  0  0  0  0  0  0  0
    2.7280   -5.3058    1.0030 C   0  0  0  0  0  0  0  0  0  0  0  0
    2.9370   -3.9668    1.2480 N   0  0  0  0  0  0  0  0  0  0  0  0
    3.6627   -2.9673    0.4115 C   0  0  2  0  0  0  0  0  0  0  0  0
    3.1004   -3.0170   -0.8607 O   0  0  0  0  0  0  0  0  0  0  0  0
    4.1199   -3.1712   -1.8423 C   0  0  1  0  0  0  0  0  0  0  0  0
    3.8460   -2.2981   -3.0717 C   0  0  0  0  0  0  0  0  0  0  0  0
    4.4024   -2.5418   -4.1367 O   0  0  0  0  0  0  0  0  0  0  0  0
    3.0165   -1.2589   -2.9205 N   0  0  0  0  0  0  0  0  0  0  0  0
    2.9350   -0.1718   -3.8883 C   0  0  0  0  0  0  0  0  0  0  0  0
    5.4575   -2.8941   -1.1267 C   0  0  1  0  0  0  0  0  0  0  0  0
    5.7898   -1.5097   -1.0995 O   0  0  0  0  0  0  0  0  0  0  0  0
    5.1249   -3.3889    0.2628 C   0  0  1  0  0  0  0  0  0  0  0  0
    5.9802   -2.8600    1.2512 O   0  0  0  0  0  0  0  0  0  0  0  0
    0.7314   -7.0321    4.0870 H   0  0  0  0  0  0  0  0  0  0  0  0
   -0.4707   -7.2479    5.9419 H   0  0  0  0  0  0  0  0  0  0  0  0
   -1.1495   -5.6318    5.6690 H   0  0  0  0  0  0  0  0  0  0  0  0
    0.3503   -5.8320    6.6342 H   0  0  0  0  0  0  0  0  0  0  0  0
    1.3523   -1.8326    4.8929 H   0  0  0  0  0  0  0  0  0  0  0  0
    3.0981   -5.8064    0.1207 H   0  0  0  0  0  0  0  0  0  0  0  0
    3.4778   -1.9783    0.8422 H   0  0  0  0  0  0  0  0  0  0  0  0
    4.1252   -4.2200   -2.1537 H   0  0  0  0  0  0  0  0  0  0  0  0
    2.5219   -1.1644   -2.0405 H   0  0  0  0  0  0  0  0  0  0  0  0
    2.1828    0.5374   -3.5908 H   0  0  0  0  0  0  0  0  0  0  0  0
    2.6583   -0.5370   -4.8847 H   0  0  0  0  0  0  0  0  0  0  0  0
    3.8800    0.3812   -3.9683 H   0  0  0  0  0  0  0  0  0  0  0  0
    6.2855   -3.4506   -1.5799 H   0  0  0  0  0  0  0  0  0  0  0  0
    5.0562   -1.0338   -0.7379 H   0  0  0  0  0  0  0  0  0  0  0  0
    5.1991   -4.4760    0.2505 H   0  0  0  0  0  0  0  0  0  0  0  0
    5.6955   -3.1893    2.0904 H   0  0  0  0  0  0  0  0  0  0  0  0
  1 24  1  0
  1 25  1  0
  1 26  1  0
  1  2  1  0
  2  3  1  0
  2 23  1  0
  3  4  2  0
  3  8  1  0
  4  5  1  0
  5 27  1  0
  5  6  2  0
  6  7  1  0
  7 11  1  0
  7  8  2  0
  8  9  1  0
  9 10  2  0
 10 28  1  0
 10 11  1  0
 11 12  1  0
 12 21  1  0
 12 13  1  0
 12 29  1  1
 13 14  1  0
 14 15  1  0
 14 19  1  0
 14 30  1  6
 15 16  2  0
 15 17  1  0
 17 18  1  0
 17 31  1  0
 18 32  1  0
 18 33  1  0
 18 34  1  0
 19 20  1  0
 19 21  1  0
 19 35  1  6
 20 36  1  0
 21 22  1  0
 21 37  1  6
 22 38  1  0
M  END
>  <i_m_ct_stereo_status>  (341) 
1

>  <s_m_source_file>  (341) 
/var/tmp/pbs.5076255.sched01/tmpb6g28bo8/1236hu3uqnd.sdf

>  <i_m_source_file_index>  (341) 
24

>  <i_lp_mmshare_version>  (341) 
48012

>  <i_f3d_flags>  (341) 
0

>  <s_epik_input>  (341) 
bjFbY0hdW25IXVxjKD1OXFtDSDNdKWMoYzEyKW5bY0hdbjJbQ0BASF0zT1tDQEBIXShDKD1PKVtOSF1bQ0gzXSlbQ0BASF0oW09IXSlbQ0BIXTNbT0hd

>  <s_epik_cmdline>  (341) 
J2VwaWtfcHl0aG9uJywgJy1waHQnLCAnMi4wJywgJy1waCcsICc3LjAnLCAnLXRuJywgJzgnLCAnLW1hJywgJzIwMCcsICctaW1hZScsICc8aW5maWxlLm1hZT4nLCAnLW9tYWUnLCAnPG91dGZpbGUubWFlPic=

>  <r_lp_tautomer_probability>  (341) 
1

>  <r_epik_Ionization_Penalty>  (341) 
0.000602663

>  <r_epik_Ionization_Penalty_Charging>  (341) 
0

>  <r_epik_Ionization_Penalty_Neutral>  (341) 
0.000602663

>  <r_epik_State_Penalty>  (341) 
-0

>  <r_epik_Charging_Adjusted_Penalty>  (341) 
0

>  <i_epik_Tot_Q>  (341) 
0

>  <i_epik_Tot_abs_Q>  (341) 
0

>  <s_epik_Chemistry_Notes>  (341) 
This compound contains an acetal/aminal-like group ( X-CH(R)-Y where X, Y are N, S, or O) that may be acid/base labile, releasing an aldehyde.

>  <s_lp_Force_Field>  (341) 
OPLS3e

>  <r_lp_Energy>  (341) 
32.0041

>  <b_lp_Chiralities_Consistent>  (341) 
1

>  <s_lp_Variant>  (341) 
103:0-1

>  <s_i_glide_gridfile>  (341) 
pfpi4k_grid

>  <i_i_glide_lignum>  (341) 
24

>  <i_i_glide_rotatable_bonds>  (341) 
6

>  <r_i_docking_score>  (341) 
-4.07882

>  <r_i_glide_ligand_efficiency>  (341) 
-0.185401

>  <r_i_glide_ligand_efficiency_sa>  (341) 
-0.5195

>  <r_i_glide_ligand_efficiency_ln>  (341) 
-0.997012

>  <r_i_glide_gscore>  (341) 
-4.07882

>  <r_i_glide_lipo>  (341) 
-0.205247

>  <r_i_glide_hbond>  (341) 
-0.389821

>  <r_i_glide_metal>  (341) 
-0

>  <r_i_glide_rewards>  (341) 
-1.48555

>  <r_i_glide_evdw>  (341) 
-22.8566

>  <r_i_glide_ecoul>  (341) 
-7.66496

>  <r_i_glide_erotb>  (341) 
0.389278

>  <r_i_glide_esite>  (341) 
-0.0949072

>  <r_i_glide_emodel>  (341) 
-38.7116

>  <r_i_glide_energy>  (341) 
-30.5215

>  <r_i_glide_einternal>  (341) 
1.82584

>  <r_i_glide_intrahb_reward>  (341) 
-0

>  <i_i_glide_confnum>  (341) 
2

>  <i_i_glide_posenum>  (341) 
9

>  <r_i_glide_eff_state_penalty>  (341) 
0

>  <ligand_id>  (341) 
103

>  <original_smiles>  (341) 
CN=c1[nH]cnc2c1ncn2C1OC(C(=O)NC)C(O)C1O

>  <smiles>  (341) 
[H]OC1([H])C([H])(C(=O)N([H])C([H])([H])[H])OC([H])(n2c([H])nc3c(N([H])C([H])([H])[H])nc([H])nc32)C1([H])O[H]

$$$$
103:0:2
     RDKit          3D

 38 40  0  0  1  0  0  0  0  0999 V2000
   -1.6478   -8.5848    3.8624 C   0  0  0  0  0  0  0  0  0  0  0  0
   -0.6735   -8.1038    2.9139 N   0  0  0  0  0  0  0  0  0  0  0  0
    0.1675   -7.0963    3.2483 C   0  0  0  0  0  0  0  0  0  0  0  0
    0.3154   -6.6694    4.5309 N   0  0  0  0  0  0  0  0  0  0  0  0
    1.1664   -5.6602    4.7853 C   0  0  0  0  0  0  0  0  0  0  0  0
    1.9312   -4.9690    3.9304 N   0  0  0  0  0  0  0  0  0  0  0  0
    1.7690   -5.3996    2.6522 C   0  0  0  0  0  0  0  0  0  0  0  0
    0.9037   -6.4445    2.2256 C   0  0  0  0  0  0  0  0  0  0  0  0
    0.9360   -6.5766    0.8572 N   0  0  0  0  0  0  0  0  0  0  0  0
    1.8269   -5.6807    0.4888 C   0  0  0  0  0  0  0  0  0  0  0  0
    2.3543   -4.9253    1.5024 N   0  0  0  0  0  0  0  0  0  0  0  0
    3.3372   -3.8096    1.3951 C   0  0  2  0  0  0  0  0  0  0  0  0
    3.4019   -3.3555    0.0640 O   0  0  0  0  0  0  0  0  0  0  0  0
    4.7577   -3.3763   -0.3959 C   0  0  1  0  0  0  0  0  0  0  0  0
    5.0373   -2.2028   -1.3683 C   0  0  0  0  0  0  0  0  0  0  0  0
    6.1951   -1.8874   -1.6594 O   0  0  0  0  0  0  0  0  0  0  0  0
    3.9721   -1.5677   -1.8765 N   0  0  0  0  0  0  0  0  0  0  0  0
    4.0574   -0.4548   -2.8094 C   0  0  0  0  0  0  0  0  0  0  0  0
    5.6077   -3.4667    0.8778 C   0  0  1  0  0  0  0  0  0  0  0  0
    5.7807   -2.1913    1.4844 O   0  0  0  0  0  0  0  0  0  0  0  0
    4.7292   -4.3262    1.7673 C   0  0  1  0  0  0  0  0  0  0  0  0
    5.0700   -4.1317    3.1187 O   0  0  0  0  0  0  0  0  0  0  0  0
   -0.6320   -8.5668    2.0143 H   0  0  0  0  0  0  0  0  0  0  0  0
   -2.1656   -9.4171    3.3982 H   0  0  0  0  0  0  0  0  0  0  0  0
   -2.3744   -7.7972    4.0871 H   0  0  0  0  0  0  0  0  0  0  0  0
   -1.1805   -8.9380    4.7911 H   0  0  0  0  0  0  0  0  0  0  0  0
    1.2777   -5.4179    5.8249 H   0  0  0  0  0  0  0  0  0  0  0  0
    2.0148   -5.4744   -0.5569 H   0  0  0  0  0  0  0  0  0  0  0  0
    2.9345   -3.0068    2.0206 H   0  0  0  0  0  0  0  0  0  0  0  0
    4.8739   -4.2969   -0.9621 H   0  0  0  0  0  0  0  0  0  0  0  0
    3.0495   -1.8602   -1.5642 H   0  0  0  0  0  0  0  0  0  0  0  0
    3.0696   -0.1182   -3.0968 H   0  0  0  0  0  0  0  0  0  0  0  0
    4.6004   -0.7463   -3.7010 H   0  0  0  0  0  0  0  0  0  0  0  0
    4.5847    0.3800   -2.3610 H   0  0  0  0  0  0  0  0  0  0  0  0
    6.5781   -3.9298    0.6845 H   0  0  0  0  0  0  0  0  0  0  0  0
    4.9809   -1.6981    1.4142 H   0  0  0  0  0  0  0  0  0  0  0  0
    4.8115   -5.3706    1.4704 H   0  0  0  0  0  0  0  0  0  0  0  0
    5.0175   -3.2030    3.2888 H   0  0  0  0  0  0  0  0  0  0  0  0
  1 24  1  0
  1 25  1  0
  1 26  1  0
  1  2  1  0
  2  3  1  0
  2 23  1  0
  3  4  2  0
  3  8  1  0
  4  5  1  0
  5 27  1  0
  5  6  2  0
  6  7  1  0
  7 11  1  0
  7  8  2  0
  8  9  1  0
  9 10  2  0
 10 28  1  0
 10 11  1  0
 11 12  1  0
 12 21  1  0
 12 13  1  0
 12 29  1  1
 13 14  1  0
 14 15  1  0
 14 19  1  0
 14 30  1  6
 15 16  2  0
 15 17  1  0
 17 18  1  0
 17 31  1  0
 18 32  1  0
 18 33  1  0
 18 34  1  0
 19 20  1  0
 19 21  1  0
 19 35  1  6
 20 36  1  0
 21 22  1  0
 21 37  1  6
 22 38  1  0
M  END
>  <i_m_ct_stereo_status>  (342) 
1

>  <s_m_source_file>  (342) 
/var/tmp/pbs.5076255.sched01/tmpb6g28bo8/1236hu3uqnd.sdf

>  <i_m_source_file_index>  (342) 
24

>  <i_lp_mmshare_version>  (342) 
48012

>  <i_f3d_flags>  (342) 
0

>  <s_epik_input>  (342) 
bjFbY0hdW25IXVxjKD1OXFtDSDNdKWMoYzEyKW5bY0hdbjJbQ0BASF0zT1tDQEBIXShDKD1PKVtOSF1bQ0gzXSlbQ0BASF0oW09IXSlbQ0BIXTNbT0hd

>  <s_epik_cmdline>  (342) 
J2VwaWtfcHl0aG9uJywgJy1waHQnLCAnMi4wJywgJy1waCcsICc3LjAnLCAnLXRuJywgJzgnLCAnLW1hJywgJzIwMCcsICctaW1hZScsICc8aW5maWxlLm1hZT4nLCAnLW9tYWUnLCAnPG91dGZpbGUubWFlPic=

>  <r_lp_tautomer_probability>  (342) 
1

>  <r_epik_Ionization_Penalty>  (342) 
0.000602663

>  <r_epik_Ionization_Penalty_Charging>  (342) 
0

>  <r_epik_Ionization_Penalty_Neutral>  (342) 
0.000602663

>  <r_epik_State_Penalty>  (342) 
-0

>  <r_epik_Charging_Adjusted_Penalty>  (342) 
0

>  <i_epik_Tot_Q>  (342) 
0

>  <i_epik_Tot_abs_Q>  (342) 
0

>  <s_epik_Chemistry_Notes>  (342) 
This compound contains an acetal/aminal-like group ( X-CH(R)-Y where X, Y are N, S, or O) that may be acid/base labile, releasing an aldehyde.

>  <s_lp_Force_Field>  (342) 
OPLS3e

>  <r_lp_Energy>  (342) 
32.0041

>  <b_lp_Chiralities_Consistent>  (342) 
1

>  <s_lp_Variant>  (342) 
103:0-1

>  <s_i_glide_gridfile>  (342) 
pfpi4k_grid

>  <i_i_glide_lignum>  (342) 
24

>  <i_i_glide_rotatable_bonds>  (342) 
6

>  <r_i_docking_score>  (342) 
-3.896

>  <r_i_glide_ligand_efficiency>  (342) 
-0.177091

>  <r_i_glide_ligand_efficiency_sa>  (342) 
-0.496216

>  <r_i_glide_ligand_efficiency_ln>  (342) 
-0.952325

>  <r_i_glide_gscore>  (342) 
-3.896

>  <r_i_glide_lipo>  (342) 
-0.314112

>  <r_i_glide_hbond>  (342) 
-0.241906

>  <r_i_glide_metal>  (342) 
-0

>  <r_i_glide_rewards>  (342) 
-1.31195

>  <r_i_glide_evdw>  (342) 
-23.3442

>  <r_i_glide_ecoul>  (342) 
-6.54573

>  <r_i_glide_erotb>  (342) 
0.389278

>  <r_i_glide_esite>  (342) 
-0.268243

>  <r_i_glide_emodel>  (342) 
-37.5357

>  <r_i_glide_energy>  (342) 
-29.8899

>  <r_i_glide_einternal>  (342) 
1.57888

>  <r_i_glide_intrahb_reward>  (342) 
-0

>  <i_i_glide_confnum>  (342) 
2

>  <i_i_glide_posenum>  (342) 
16

>  <r_i_glide_eff_state_penalty>  (342) 
0

>  <ligand_id>  (342) 
103

>  <original_smiles>  (342) 
CN=c1[nH]cnc2c1ncn2C1OC(C(=O)NC)C(O)C1O

>  <smiles>  (342) 
[H]OC1([H])C([H])(C(=O)N([H])C([H])([H])[H])OC([H])(n2c([H])nc3c(N([H])C([H])([H])[H])nc([H])nc32)C1([H])O[H]

$$$$
104:0:0
     RDKit          3D

 65 70  0  0  1  0  0  0  0  0999 V2000
    1.8878   -7.9813    5.5120 C   0  0  0  0  0  0  0  0  0  0  0  0
    2.9723   -7.9623    4.3951 C   0  0  0  0  0  0  0  0  0  0  0  0
    4.1749   -8.7290    5.0189 C   0  0  0  0  0  0  0  0  0  0  0  0
    2.3756   -8.7191    3.1613 C   0  0  0  0  0  0  0  0  0  0  0  0
    2.9213   -8.3757    1.7355 C   0  0  0  0  0  0  0  0  0  0  0  0
    3.5893   -6.9618    1.4687 C   0  0  2  0  0  0  0  0  0  0  0  0
    4.7760   -7.1975    0.4899 C   0  0  0  0  0  0  0  0  0  0  0  0
    6.0722   -6.7046    1.2014 C   0  0  0  0  0  0  0  0  0  0  0  0
    5.6598   -5.7355    2.3649 C   0  0  2  0  0  0  0  0  0  0  0  0
    6.6408   -5.8675    3.5650 C   0  0  0  0  0  0  0  0  0  0  0  0
    4.3493   -6.5711    2.7294 C   0  0  1  0  0  0  0  0  0  0  0  0
    3.3868   -6.4970    3.9649 C   0  0  1  0  0  0  0  0  0  0  0  0
    2.0944   -5.7226    3.6455 C   0  0  0  0  0  0  0  0  0  0  0  0
    1.5329   -5.0506    4.5088 O   0  0  0  0  0  0  0  0  0  0  0  0
    1.4734   -5.8671    2.2411 C   0  0  0  0  0  0  0  0  0  0  0  0
    2.5464   -5.7847    1.1214 C   0  0  1  0  0  0  0  0  0  0  0  0
    3.1062   -4.2867    1.0033 C   0  0  2  0  0  0  0  0  0  0  0  0
    2.4823   -3.2588    2.0403 C   0  0  0  0  0  0  0  0  0  0  0  0
    3.0197   -3.4615   -0.3045 C   0  0  0  0  0  0  0  0  0  0  0  0
    4.2143   -2.9490    0.0213 C   0  0  0  0  0  0  0  0  0  0  0  0
    5.0361   -1.7029   -0.1527 C   0  0  0  0  0  0  0  0  0  0  0  0
    5.2854   -0.9916    1.2120 C   0  0  0  0  0  0  0  0  0  0  0  0
    5.2846   -1.7874    2.5538 C   0  0  0  0  0  0  0  0  0  0  0  0
    5.1043   -0.8606    3.8011 C   0  0  0  0  0  0  0  0  0  0  0  0
    4.2812   -1.2450    4.6613 O   0  0  0  0  0  0  0  0  0  0  0  0
    5.8343    0.1459    3.8476 O   0  0  0  0  0  0  0  0  0  0  0  0
    5.4133   -3.1237    2.7668 C   0  0  0  0  0  0  0  0  0  0  0  0
    5.6618   -4.2422    1.7578 C   0  0  1  0  0  0  0  0  0  0  0  0
    7.0453   -3.9137    1.1082 C   0  0  0  0  0  0  0  0  0  0  0  0
    4.6137   -4.2050    0.6754 C   0  0  1  0  0  0  0  0  0  0  0  0
    1.6993   -8.9942    5.8780 H   0  0  0  0  0  0  0  0  0  0  0  0
    0.9192   -7.6209    5.1648 H   0  0  0  0  0  0  0  0  0  0  0  0
    2.1745   -7.3710    6.3709 H   0  0  0  0  0  0  0  0  0  0  0  0
    4.8753   -9.1212    4.2852 H   0  0  0  0  0  0  0  0  0  0  0  0
    3.8566   -9.5945    5.6033 H   0  0  0  0  0  0  0  0  0  0  0  0
    4.7364   -8.0885    5.6995 H   0  0  0  0  0  0  0  0  0  0  0  0
    2.5209   -9.7824    3.3134 H   0  0  0  0  0  0  0  0  0  0  0  0
    1.2804   -8.6219    3.1547 H   0  0  0  0  0  0  0  0  0  0  0  0
    3.6139   -9.1939    1.4922 H   0  0  0  0  0  0  0  0  0  0  0  0
    2.1110   -8.5149    1.0319 H   0  0  0  0  0  0  0  0  0  0  0  0
    4.9316   -8.2488    0.2471 H   0  0  0  0  0  0  0  0  0  0  0  0
    4.5893   -6.7711   -0.4927 H   0  0  0  0  0  0  0  0  0  0  0  0
    6.5726   -7.5851    1.6170 H   0  0  0  0  0  0  0  0  0  0  0  0
    6.7863   -6.3195    0.4820 H   0  0  0  0  0  0  0  0  0  0  0  0
    6.2535   -5.3641    4.4526 H   0  0  0  0  0  0  0  0  0  0  0  0
    7.6327   -5.4633    3.3710 H   0  0  0  0  0  0  0  0  0  0  0  0
    6.7999   -6.9128    3.8497 H   0  0  0  0  0  0  0  0  0  0  0  0
    4.8504   -7.5061    2.9740 H   0  0  0  0  0  0  0  0  0  0  0  0
    3.8898   -6.0125    4.8013 H   0  0  0  0  0  0  0  0  0  0  0  0
    0.9349   -6.8082    2.1886 H   0  0  0  0  0  0  0  0  0  0  0  0
    0.6934   -5.1255    2.1215 H   0  0  0  0  0  0  0  0  0  0  0  0
    2.0581   -6.0450    0.1744 H   0  0  0  0  0  0  0  0  0  0  0  0
    2.8677   -3.3700    3.0460 H   0  0  0  0  0  0  0  0  0  0  0  0
    1.4051   -3.2494    2.0861 H   0  0  0  0  0  0  0  0  0  0  0  0
    2.7067   -2.2139    1.8125 H   0  0  0  0  0  0  0  0  0  0  0  0
    2.1755   -3.1137   -0.9244 H   0  0  0  0  0  0  0  0  0  0  0  0
    5.9718   -1.9731   -0.6340 H   0  0  0  0  0  0  0  0  0  0  0  0
    4.5330   -1.0119   -0.8413 H   0  0  0  0  0  0  0  0  0  0  0  0
    6.2108   -0.4158    1.1538 H   0  0  0  0  0  0  0  0  0  0  0  0
    4.4963   -0.2411    1.3210 H   0  0  0  0  0  0  0  0  0  0  0  0
    5.3692   -3.4536    3.7917 H   0  0  0  0  0  0  0  0  0  0  0  0
    7.1021   -4.2467    0.0751 H   0  0  0  0  0  0  0  0  0  0  0  0
    7.8894   -4.3475    1.6319 H   0  0  0  0  0  0  0  0  0  0  0  0
    7.2496   -2.8484    1.0713 H   0  0  0  0  0  0  0  0  0  0  0  0
    4.9084   -4.8368   -0.1483 H   0  0  0  0  0  0  0  0  0  0  0  0
  1  2  1  0
  1 31  1  0
  1 32  1  0
  1 33  1  0
  2 12  1  0
  2  3  1  0
  2  4  1  0
  3 34  1  0
  3 35  1  0
  3 36  1  0
  4  5  1  0
  4 37  1  0
  4 38  1  0
  6  5  1  1
  5 39  1  0
  5 40  1  0
  6 11  1  0
  6 16  1  0
  6  7  1  0
  7  8  1  0
  7 41  1  0
  7 42  1  0
  8  9  1  0
  8 43  1  0
  8 44  1  0
  9 28  1  0
  9 10  1  1
  9 11  1  0
 10 45  1  0
 10 46  1  0
 10 47  1  0
 11 12  1  0
 11 48  1  1
 12 13  1  0
 12 49  1  1
 13 14  2  0
 13 15  1  0
 15 16  1  0
 15 50  1  0
 15 51  1  0
 16 17  1  0
 16 52  1  6
 17 30  1  0
 17 18  1  1
 17 19  1  0
 18 53  1  0
 18 54  1  0
 18 55  1  0
 19 20  2  0
 19 56  1  0
 20 30  1  0
 20 21  1  0
 21 22  1  0
 21 57  1  0
 21 58  1  0
 22 23  1  0
 22 59  1  0
 22 60  1  0
 23 24  1  0
 23 27  2  0
 24 25  2  0
 24 26  1  0
 27 28  1  0
 27 61  1  0
 28 29  1  6
 28 30  1  0
 29 62  1  0
 29 63  1  0
 29 64  1  0
 30 65  1  6
M  CHG  1  26  -1
M  END
>  <i_m_ct_stereo_status>  (343) 
1

>  <s_m_source_file>  (343) 
/var/tmp/pbs.5076255.sched01/tmpb6g28bo8/1236hu3uqnd.sdf

>  <i_m_source_file_index>  (343) 
25

>  <i_lp_mmshare_version>  (343) 
48012

>  <i_f3d_flags>  (343) 
0

>  <s_epik_input>  (343) 
W0NIMl0xW0NIMl1DKFtDSDNdKShbQ0gzXSlbQ0BASF0yQyg9TylbQ0gyXVtDQEhdM1tDQEBdKFtDSDNdKShbQ0BASF00W0NAXTUoW0NIM10pW0NAQF0oW0NIM10pKFtDSF0yW0NAQF0xMzYpW0NIMl1bQ0gyXTYpW0NIXT1DNFtDSDJdW0NIMl1DKD1bQ0hdNSlDKD1PKVtPSF0=

>  <s_epik_cmdline>  (343) 
J2VwaWtfcHl0aG9uJywgJy1waHQnLCAnMi4wJywgJy1waCcsICc3LjAnLCAnLXRuJywgJzgnLCAnLW1hJywgJzIwMCcsICctaW1hZScsICc8aW5maWxlLm1hZT4nLCAnLW9tYWUnLCAnPG91dGZpbGUubWFlPic=

>  <r_lp_tautomer_probability>  (343) 
1

>  <r_epik_Ionization_Penalty>  (343) 
0.0373723

>  <r_epik_Ionization_Penalty_Charging>  (343) 
0.0373723

>  <r_epik_Ionization_Penalty_Neutral>  (343) 
5.69647e-14

>  <r_epik_State_Penalty>  (343) 
0.0312769

>  <r_epik_Charging_Adjusted_Penalty>  (343) 
0.0686492

>  <i_epik_Tot_Q>  (343) 
-1

>  <i_epik_Tot_abs_Q>  (343) 
1

>  <s_lp_Force_Field>  (343) 
OPLS3e

>  <r_lp_Energy>  (343) 
150.701

>  <b_lp_Chiralities_Consistent>  (343) 
1

>  <s_lp_Variant>  (343) 
104:0-1

>  <s_i_glide_gridfile>  (343) 
pfpi4k_grid

>  <i_i_glide_lignum>  (343) 
25

>  <i_i_glide_rotatable_bonds>  (343) 
1

>  <r_i_docking_score>  (343) 
-2.31781

>  <r_i_glide_ligand_efficiency>  (343) 
-0.0772604

>  <r_i_glide_ligand_efficiency_sa>  (343) 
-0.240066

>  <r_i_glide_ligand_efficiency_ln>  (343) 
-0.526632

>  <r_i_glide_gscore>  (343) 
-2.31781

>  <r_i_glide_lipo>  (343) 
-0.676082

>  <r_i_glide_hbond>  (343) 
0

>  <r_i_glide_metal>  (343) 
-0

>  <r_i_glide_rewards>  (343) 
-0.765247

>  <r_i_glide_evdw>  (343) 
-19.934

>  <r_i_glide_ecoul>  (343) 
0.806485

>  <r_i_glide_erotb>  (343) 
0

>  <r_i_glide_esite>  (343) 
-0.000759016

>  <r_i_glide_emodel>  (343) 
-21.733

>  <r_i_glide_energy>  (343) 
-19.1275

>  <r_i_glide_einternal>  (343) 
0.491178

>  <r_i_glide_intrahb_reward>  (343) 
-0

>  <i_i_glide_confnum>  (343) 
1

>  <i_i_glide_posenum>  (343) 
15

>  <r_i_glide_eff_state_penalty>  (343) 
0

>  <ligand_id>  (343) 
104

>  <original_smiles>  (343) 
CC1(C)CCC23CCC4(C)C2C1C(=O)CC3C1(C)C=C2CCC(C(=O)O)=CC4(C)C21

>  <smiles>  (343) 
[H]C1=C2C([H])([H])C([H])([H])C(C(=O)[O-])=C([H])C3(C([H])([H])[H])C2([H])C1(C([H])([H])[H])C1([H])C([H])([H])C(=O)C2([H])C4([H])C1(C([H])([H])C([H])([H])C2(C([H])([H])[H])C([H])([H])[H])C([H])([H])C([H])([H])C43C([H])([H])[H]

$$$$
104:0:1
     RDKit          3D

 65 70  0  0  1  0  0  0  0  0999 V2000
    3.0054   -3.3230   -3.4655 C   0  0  0  0  0  0  0  0  0  0  0  0
    4.2300   -3.3655   -2.4941 C   0  0  0  0  0  0  0  0  0  0  0  0
    5.2356   -4.2927   -3.1871 C   0  0  0  0  0  0  0  0  0  0  0  0
    4.7772   -1.9071   -2.4047 C   0  0  0  0  0  0  0  0  0  0  0  0
    5.6078   -1.5263   -1.1218 C   0  0  0  0  0  0  0  0  0  0  0  0
    5.3951   -2.2901    0.2604 C   0  0  2  0  0  0  0  0  0  0  0  0
    6.7489   -2.4141    0.9761 C   0  0  0  0  0  0  0  0  0  0  0  0
    7.0182   -3.9410    1.2045 C   0  0  0  0  0  0  0  0  0  0  0  0
    5.6464   -4.7045    1.0926 C   0  0  2  0  0  0  0  0  0  0  0  0
    5.8178   -6.1234    0.5164 C   0  0  0  0  0  0  0  0  0  0  0  0
    5.1314   -3.7528   -0.0724 C   0  0  1  0  0  0  0  0  0  0  0  0
    3.9256   -3.9022   -1.0344 C   0  0  1  0  0  0  0  0  0  0  0  0
    2.7450   -3.0853   -0.5701 C   0  0  0  0  0  0  0  0  0  0  0  0
    1.6486   -3.4837   -0.9069 O   0  0  0  0  0  0  0  0  0  0  0  0
    3.0192   -1.7071    0.1046 C   0  0  0  0  0  0  0  0  0  0  0  0
    4.1527   -1.7328    1.1203 C   0  0  1  0  0  0  0  0  0  0  0  0
    3.6689   -2.5334    2.4253 C   0  0  2  0  0  0  0  0  0  0  0  0
    2.1694   -3.0822    2.3661 C   0  0  0  0  0  0  0  0  0  0  0  0
    3.6981   -1.9220    3.8368 C   0  0  0  0  0  0  0  0  0  0  0  0
    4.0377   -3.1303    4.2931 C   0  0  0  0  0  0  0  0  0  0  0  0
    3.9505   -4.0130    5.4888 C   0  0  0  0  0  0  0  0  0  0  0  0
    3.1021   -5.2934    5.2016 C   0  0  0  0  0  0  0  0  0  0  0  0
    2.9835   -5.8788    3.7636 C   0  0  0  0  0  0  0  0  0  0  0  0
    1.7823   -6.8423    3.5943 C   0  0  0  0  0  0  0  0  0  0  0  0
    0.7629   -6.3533    3.0499 O   0  0  0  0  0  0  0  0  0  0  0  0
    1.9650   -7.9999    4.0162 O   0  0  0  0  0  0  0  0  0  0  0  0
    3.7651   -5.6658    2.6725 C   0  0  0  0  0  0  0  0  0  0  0  0
    5.0144   -4.8168    2.5650 C   0  0  1  0  0  0  0  0  0  0  0  0
    6.0274   -5.5032    3.5246 C   0  0  0  0  0  0  0  0  0  0  0  0
    4.7664   -3.4061    3.0338 C   0  0  1  0  0  0  0  0  0  0  0  0
    3.3185   -3.0752   -4.4770 H   0  0  0  0  0  0  0  0  0  0  0  0
    2.2894   -2.5387   -3.1989 H   0  0  0  0  0  0  0  0  0  0  0  0
    2.4543   -4.2554   -3.5230 H   0  0  0  0  0  0  0  0  0  0  0  0
    6.2505   -4.1253   -2.8318 H   0  0  0  0  0  0  0  0  0  0  0  0
    5.2510   -4.1738   -4.2738 H   0  0  0  0  0  0  0  0  0  0  0  0
    5.0041   -5.3376   -2.9929 H   0  0  0  0  0  0  0  0  0  0  0  0
    5.4145   -1.7739   -3.2697 H   0  0  0  0  0  0  0  0  0  0  0  0
    3.9607   -1.1843   -2.5268 H   0  0  0  0  0  0  0  0  0  0  0  0
    6.6459   -1.6111   -1.4167 H   0  0  0  0  0  0  0  0  0  0  0  0
    5.4506   -0.4613   -0.9344 H   0  0  0  0  0  0  0  0  0  0  0  0
    7.5697   -2.0168    0.3907 H   0  0  0  0  0  0  0  0  0  0  0  0
    6.7643   -1.7886    1.8648 H   0  0  0  0  0  0  0  0  0  0  0  0
    7.6667   -4.2565    0.3814 H   0  0  0  0  0  0  0  0  0  0  0  0
    7.5749   -4.1331    2.0790 H   0  0  0  0  0  0  0  0  0  0  0  0
    4.8799   -6.5691    0.1619 H   0  0  0  0  0  0  0  0  0  0  0  0
    6.3425   -6.8334    1.1491 H   0  0  0  0  0  0  0  0  0  0  0  0
    6.4888   -6.0080   -0.3169 H   0  0  0  0  0  0  0  0  0  0  0  0
    5.9015   -3.9514   -0.8058 H   0  0  0  0  0  0  0  0  0  0  0  0
    3.5999   -4.9427   -1.0690 H   0  0  0  0  0  0  0  0  0  0  0  0
    3.1584   -0.9576   -0.6685 H   0  0  0  0  0  0  0  0  0  0  0  0
    2.1437   -1.3317    0.6183 H   0  0  0  0  0  0  0  0  0  0  0  0
    4.3456   -0.6967    1.4053 H   0  0  0  0  0  0  0  0  0  0  0  0
    2.0486   -3.9516    1.7248 H   0  0  0  0  0  0  0  0  0  0  0  0
    1.4244   -2.3319    2.1293 H   0  0  0  0  0  0  0  0  0  0  0  0
    1.8062   -3.4526    3.3299 H   0  0  0  0  0  0  0  0  0  0  0  0
    3.1804   -1.0621    4.2760 H   0  0  0  0  0  0  0  0  0  0  0  0
    4.9606   -4.2711    5.8132 H   0  0  0  0  0  0  0  0  0  0  0  0
    3.5124   -3.4549    6.3238 H   0  0  0  0  0  0  0  0  0  0  0  0
    3.4227   -6.0900    5.8723 H   0  0  0  0  0  0  0  0  0  0  0  0
    2.0814   -5.0657    5.5035 H   0  0  0  0  0  0  0  0  0  0  0  0
    3.4768   -6.1872    1.7654 H   0  0  0  0  0  0  0  0  0  0  0  0
    6.6395   -4.7562    3.9974 H   0  0  0  0  0  0  0  0  0  0  0  0
    6.6773   -6.2541    3.0666 H   0  0  0  0  0  0  0  0  0  0  0  0
    5.5606   -5.9977    4.3735 H   0  0  0  0  0  0  0  0  0  0  0  0
    5.7087   -2.8918    3.1491 H   0  0  0  0  0  0  0  0  0  0  0  0
  1  2  1  0
  1 31  1  0
  1 32  1  0
  1 33  1  0
  2 12  1  0
  2  3  1  0
  2  4  1  0
  3 34  1  0
  3 35  1  0
  3 36  1  0
  4  5  1  0
  4 37  1  0
  4 38  1  0
  6  5  1  6
  5 39  1  0
  5 40  1  0
  6 11  1  0
  6 16  1  0
  6  7  1  0
  7  8  1  0
  7 41  1  0
  7 42  1  0
  8  9  1  0
  8 43  1  0
  8 44  1  0
  9 28  1  0
  9 10  1  6
  9 11  1  0
 10 45  1  0
 10 46  1  0
 10 47  1  0
 11 12  1  0
 11 48  1  6
 12 13  1  0
 12 49  1  6
 13 14  2  0
 13 15  1  0
 15 16  1  0
 15 50  1  0
 15 51  1  0
 16 17  1  0
 16 52  1  1
 17 30  1  0
 17 18  1  6
 17 19  1  0
 18 53  1  0
 18 54  1  0
 18 55  1  0
 19 20  2  0
 19 56  1  0
 20 30  1  0
 20 21  1  0
 21 22  1  0
 21 57  1  0
 21 58  1  0
 22 23  1  0
 22 59  1  0
 22 60  1  0
 23 24  1  0
 23 27  2  0
 24 25  2  0
 24 26  1  0
 27 28  1  0
 27 61  1  0
 28 29  1  1
 28 30  1  0
 29 62  1  0
 29 63  1  0
 29 64  1  0
 30 65  1  1
M  CHG  1  26  -1
M  END
>  <i_m_ct_stereo_status>  (344) 
1

>  <s_m_source_file>  (344) 
/var/tmp/pbs.5076255.sched01/tmpb6g28bo8/1236hu3uqnd.sdf

>  <i_m_source_file_index>  (344) 
25

>  <i_lp_mmshare_version>  (344) 
48012

>  <i_f3d_flags>  (344) 
0

>  <s_epik_input>  (344) 
W0NIMl0xW0NIMl1DKFtDSDNdKShbQ0gzXSlbQ0BASF0yQyg9TylbQ0gyXVtDQEhdM1tDQEBdKFtDSDNdKShbQ0BASF00W0NAXTUoW0NIM10pW0NAQF0oW0NIM10pKFtDSF0yW0NAQF0xMzYpW0NIMl1bQ0gyXTYpW0NIXT1DNFtDSDJdW0NIMl1DKD1bQ0hdNSlDKD1PKVtPSF0=

>  <s_epik_cmdline>  (344) 
J2VwaWtfcHl0aG9uJywgJy1waHQnLCAnMi4wJywgJy1waCcsICc3LjAnLCAnLXRuJywgJzgnLCAnLW1hJywgJzIwMCcsICctaW1hZScsICc8aW5maWxlLm1hZT4nLCAnLW9tYWUnLCAnPG91dGZpbGUubWFlPic=

>  <r_lp_tautomer_probability>  (344) 
1

>  <r_epik_Ionization_Penalty>  (344) 
0.0373723

>  <r_epik_Ionization_Penalty_Charging>  (344) 
0.0373723

>  <r_epik_Ionization_Penalty_Neutral>  (344) 
5.69647e-14

>  <r_epik_State_Penalty>  (344) 
0.0312769

>  <r_epik_Charging_Adjusted_Penalty>  (344) 
0.0686492

>  <i_epik_Tot_Q>  (344) 
-1

>  <i_epik_Tot_abs_Q>  (344) 
1

>  <s_lp_Force_Field>  (344) 
OPLS3e

>  <r_lp_Energy>  (344) 
150.701

>  <b_lp_Chiralities_Consistent>  (344) 
1

>  <s_lp_Variant>  (344) 
104:0-1

>  <s_i_glide_gridfile>  (344) 
pfpi4k_grid

>  <i_i_glide_lignum>  (344) 
25

>  <i_i_glide_rotatable_bonds>  (344) 
1

>  <r_i_docking_score>  (344) 
-1.83285

>  <r_i_glide_ligand_efficiency>  (344) 
-0.0610952

>  <r_i_glide_ligand_efficiency_sa>  (344) 
-0.189837

>  <r_i_glide_ligand_efficiency_ln>  (344) 
-0.416445

>  <r_i_glide_gscore>  (344) 
-1.83285

>  <r_i_glide_lipo>  (344) 
-0.605026

>  <r_i_glide_hbond>  (344) 
-0.0561051

>  <r_i_glide_metal>  (344) 
-0

>  <r_i_glide_rewards>  (344) 
-0.630239

>  <r_i_glide_evdw>  (344) 
-9.54085

>  <r_i_glide_ecoul>  (344) 
-0.176656

>  <r_i_glide_erotb>  (344) 
0

>  <r_i_glide_esite>  (344) 
-0.0379447

>  <r_i_glide_emodel>  (344) 
-11.2872

>  <r_i_glide_energy>  (344) 
-9.7175

>  <r_i_glide_einternal>  (344) 
0.138867

>  <r_i_glide_intrahb_reward>  (344) 
-0

>  <i_i_glide_confnum>  (344) 
2

>  <i_i_glide_posenum>  (344) 
6

>  <r_i_glide_eff_state_penalty>  (344) 
0

>  <ligand_id>  (344) 
104

>  <original_smiles>  (344) 
CC1(C)CCC23CCC4(C)C2C1C(=O)CC3C1(C)C=C2CCC(C(=O)O)=CC4(C)C21

>  <smiles>  (344) 
[H]C1=C2C([H])([H])C([H])([H])C(C(=O)[O-])=C([H])C3(C([H])([H])[H])C2([H])C1(C([H])([H])[H])C1([H])C([H])([H])C(=O)C2([H])C4([H])C1(C([H])([H])C([H])([H])C2(C([H])([H])[H])C([H])([H])[H])C([H])([H])C([H])([H])C43C([H])([H])[H]

$$$$
104:0:2
     RDKit          3D

 65 70  0  0  1  0  0  0  0  0999 V2000
    1.7957   -8.1798    3.4784 C   0  0  0  0  0  0  0  0  0  0  0  0
    3.1809   -7.5315    3.2027 C   0  0  0  0  0  0  0  0  0  0  0  0
    3.9860   -7.7853    4.5088 C   0  0  0  0  0  0  0  0  0  0  0  0
    3.7982   -8.2841    1.9708 C   0  0  0  0  0  0  0  0  0  0  0  0
    4.8585   -7.5397    1.1015 C   0  0  0  0  0  0  0  0  0  0  0  0
    4.8790   -5.9598    1.0691 C   0  0  2  0  0  0  0  0  0  0  0  0
    6.3541   -5.5160    0.9795 C   0  0  0  0  0  0  0  0  0  0  0  0
    6.6188   -4.6168    2.2114 C   0  0  0  0  0  0  0  0  0  0  0  0
    5.2582   -4.0892    2.7760 C   0  0  2  0  0  0  0  0  0  0  0  0
    5.2903   -3.9495    4.3251 C   0  0  0  0  0  0  0  0  0  0  0  0
    4.5099   -5.4546    2.4530 C   0  0  1  0  0  0  0  0  0  0  0  0
    3.1124   -5.9827    2.8978 C   0  0  1  0  0  0  0  0  0  0  0  0
    2.0526   -5.8089    1.8134 C   0  0  0  0  0  0  0  0  0  0  0  0
    0.8795   -5.6967    2.1216 O   0  0  0  0  0  0  0  0  0  0  0  0
    2.4936   -5.9597    0.3346 C   0  0  0  0  0  0  0  0  0  0  0  0
    3.8737   -5.3102    0.0156 C   0  0  1  0  0  0  0  0  0  0  0  0
    3.6919   -3.7444   -0.0109 C   0  0  2  0  0  0  0  0  0  0  0  0
    2.2192   -3.2939    0.2846 C   0  0  0  0  0  0  0  0  0  0  0  0
    4.0114   -2.8526   -1.2259 C   0  0  0  0  0  0  0  0  0  0  0  0
    4.4312   -1.9235   -0.3618 C   0  0  0  0  0  0  0  0  0  0  0  0
    4.5297   -0.4330   -0.2042 C   0  0  0  0  0  0  0  0  0  0  0  0
    3.6084    0.1071    0.9329 C   0  0  0  0  0  0  0  0  0  0  0  0
    3.1945   -0.7744    2.1415 C   0  0  0  0  0  0  0  0  0  0  0  0
    1.9742   -0.1900    2.9095 C   0  0  0  0  0  0  0  0  0  0  0  0
    2.1268    0.9057    3.4486 O   0  0  0  0  0  0  0  0  0  0  0  0
    0.9449   -0.9324    2.9146 O   0  0  0  0  0  0  0  0  0  0  0  0
    3.7289   -1.9331    2.5862 C   0  0  0  0  0  0  0  0  0  0  0  0
    4.9510   -2.6769    2.0561 C   0  0  1  0  0  0  0  0  0  0  0  0
    6.1114   -1.6556    2.2220 C   0  0  0  0  0  0  0  0  0  0  0  0
    4.8650   -2.9507    0.5812 C   0  0  1  0  0  0  0  0  0  0  0  0
    1.8872   -9.2122    3.8130 H   0  0  0  0  0  0  0  0  0  0  0  0
    1.1696   -8.2283    2.5890 H   0  0  0  0  0  0  0  0  0  0  0  0
    1.2342   -7.6308    4.2397 H   0  0  0  0  0  0  0  0  0  0  0  0
    5.0650   -7.7215    4.3800 H   0  0  0  0  0  0  0  0  0  0  0  0
    3.7959   -8.7750    4.9217 H   0  0  0  0  0  0  0  0  0  0  0  0
    3.6989   -7.0668    5.2780 H   0  0  0  0  0  0  0  0  0  0  0  0
    4.2746   -9.1781    2.3377 H   0  0  0  0  0  0  0  0  0  0  0  0
    2.9929   -8.6816    1.3194 H   0  0  0  0  0  0  0  0  0  0  0  0
    5.8384   -7.9328    1.4288 H   0  0  0  0  0  0  0  0  0  0  0  0
    4.7529   -7.8974    0.0903 H   0  0  0  0  0  0  0  0  0  0  0  0
    7.0602   -6.3442    1.0271 H   0  0  0  0  0  0  0  0  0  0  0  0
    6.5954   -5.0704    0.0211 H   0  0  0  0  0  0  0  0  0  0  0  0
    7.0997   -5.2466    2.9661 H   0  0  0  0  0  0  0  0  0  0  0  0
    7.3479   -3.8697    1.9456 H   0  0  0  0  0  0  0  0  0  0  0  0
    4.2893   -3.8121    4.7364 H   0  0  0  0  0  0  0  0  0  0  0  0
    5.8905   -3.1177    4.6775 H   0  0  0  0  0  0  0  0  0  0  0  0
    5.6977   -4.8482    4.8019 H   0  0  0  0  0  0  0  0  0  0  0  0
    5.1160   -6.1049    3.0738 H   0  0  0  0  0  0  0  0  0  0  0  0
    2.7616   -5.4541    3.7822 H   0  0  0  0  0  0  0  0  0  0  0  0
    2.5665   -7.0104    0.2581 H   0  0  0  0  0  0  0  0  0  0  0  0
    1.7011   -5.6870   -0.3609 H   0  0  0  0  0  0  0  0  0  0  0  0
    4.2529   -5.6060   -0.9722 H   0  0  0  0  0  0  0  0  0  0  0  0
    1.9281   -3.3755    1.3244 H   0  0  0  0  0  0  0  0  0  0  0  0
    1.4565   -3.6799   -0.4106 H   0  0  0  0  0  0  0  0  0  0  0  0
    2.1389   -2.2301    0.1659 H   0  0  0  0  0  0  0  0  0  0  0  0
    3.5918   -2.8091   -2.2360 H   0  0  0  0  0  0  0  0  0  0  0  0
    5.5705   -0.1935   -0.0124 H   0  0  0  0  0  0  0  0  0  0  0  0
    4.2887    0.0341   -1.1602 H   0  0  0  0  0  0  0  0  0  0  0  0
    4.0299    1.0214    1.3265 H   0  0  0  0  0  0  0  0  0  0  0  0
    2.6499    0.4022    0.4789 H   0  0  0  0  0  0  0  0  0  0  0  0
    3.2454   -2.3896    3.4316 H   0  0  0  0  0  0  0  0  0  0  0  0
    6.9354   -1.8049    1.5248 H   0  0  0  0  0  0  0  0  0  0  0  0
    6.4376   -1.6962    3.2354 H   0  0  0  0  0  0  0  0  0  0  0  0
    5.8208   -0.6127    2.1394 H   0  0  0  0  0  0  0  0  0  0  0  0
    5.8266   -3.2547    0.1957 H   0  0  0  0  0  0  0  0  0  0  0  0
  1  2  1  0
  1 31  1  0
  1 32  1  0
  1 33  1  0
  2 12  1  0
  2  3  1  0
  2  4  1  0
  3 34  1  0
  3 35  1  0
  3 36  1  0
  4  5  1  0
  4 37  1  0
  4 38  1  0
  6  5  1  1
  5 39  1  0
  5 40  1  0
  6 11  1  0
  6 16  1  0
  6  7  1  0
  7  8  1  0
  7 41  1  0
  7 42  1  0
  8  9  1  0
  8 43  1  0
  8 44  1  0
  9 28  1  0
  9 10  1  1
  9 11  1  0
 10 45  1  0
 10 46  1  0
 10 47  1  0
 11 12  1  0
 11 48  1  1
 12 13  1  0
 12 49  1  1
 13 14  2  0
 13 15  1  0
 15 16  1  0
 15 50  1  0
 15 51  1  0
 16 17  1  0
 16 52  1  6
 17 30  1  0
 17 18  1  1
 17 19  1  0
 18 53  1  0
 18 54  1  0
 18 55  1  0
 19 20  2  0
 19 56  1  0
 20 30  1  0
 20 21  1  0
 21 22  1  0
 21 57  1  0
 21 58  1  0
 22 23  1  0
 22 59  1  0
 22 60  1  0
 23 24  1  0
 23 27  2  0
 24 25  2  0
 24 26  1  0
 27 28  1  0
 27 61  1  0
 28 29  1  6
 28 30  1  0
 29 62  1  0
 29 63  1  0
 29 64  1  0
 30 65  1  6
M  CHG  1  26  -1
M  END
>  <i_m_ct_stereo_status>  (345) 
1

>  <s_m_source_file>  (345) 
/var/tmp/pbs.5076255.sched01/tmpb6g28bo8/1236hu3uqnd.sdf

>  <i_m_source_file_index>  (345) 
25

>  <i_lp_mmshare_version>  (345) 
48012

>  <i_f3d_flags>  (345) 
0

>  <s_epik_input>  (345) 
W0NIMl0xW0NIMl1DKFtDSDNdKShbQ0gzXSlbQ0BASF0yQyg9TylbQ0gyXVtDQEhdM1tDQEBdKFtDSDNdKShbQ0BASF00W0NAXTUoW0NIM10pW0NAQF0oW0NIM10pKFtDSF0yW0NAQF0xMzYpW0NIMl1bQ0gyXTYpW0NIXT1DNFtDSDJdW0NIMl1DKD1bQ0hdNSlDKD1PKVtPSF0=

>  <s_epik_cmdline>  (345) 
J2VwaWtfcHl0aG9uJywgJy1waHQnLCAnMi4wJywgJy1waCcsICc3LjAnLCAnLXRuJywgJzgnLCAnLW1hJywgJzIwMCcsICctaW1hZScsICc8aW5maWxlLm1hZT4nLCAnLW9tYWUnLCAnPG91dGZpbGUubWFlPic=

>  <r_lp_tautomer_probability>  (345) 
1

>  <r_epik_Ionization_Penalty>  (345) 
0.0373723

>  <r_epik_Ionization_Penalty_Charging>  (345) 
0.0373723

>  <r_epik_Ionization_Penalty_Neutral>  (345) 
5.69647e-14

>  <r_epik_State_Penalty>  (345) 
0.0312769

>  <r_epik_Charging_Adjusted_Penalty>  (345) 
0.0686492

>  <i_epik_Tot_Q>  (345) 
-1

>  <i_epik_Tot_abs_Q>  (345) 
1

>  <s_lp_Force_Field>  (345) 
OPLS3e

>  <r_lp_Energy>  (345) 
150.701

>  <b_lp_Chiralities_Consistent>  (345) 
1

>  <s_lp_Variant>  (345) 
104:0-1

>  <s_i_glide_gridfile>  (345) 
pfpi4k_grid

>  <i_i_glide_lignum>  (345) 
25

>  <i_i_glide_rotatable_bonds>  (345) 
1

>  <r_i_docking_score>  (345) 
-1.46407

>  <r_i_glide_ligand_efficiency>  (345) 
-0.0488023

>  <r_i_glide_ligand_efficiency_sa>  (345) 
-0.15164

>  <r_i_glide_ligand_efficiency_ln>  (345) 
-0.332652

>  <r_i_glide_gscore>  (345) 
-1.46407

>  <r_i_glide_lipo>  (345) 
-0.508444

>  <r_i_glide_hbond>  (345) 
-0.104412

>  <r_i_glide_metal>  (345) 
-0

>  <r_i_glide_rewards>  (345) 
-0.630239

>  <r_i_glide_evdw>  (345) 
-7.92834

>  <r_i_glide_ecoul>  (345) 
1.46137

>  <r_i_glide_erotb>  (345) 
0

>  <r_i_glide_esite>  (345) 
-0.0437628

>  <r_i_glide_emodel>  (345) 
-7.72632

>  <r_i_glide_energy>  (345) 
-6.46697

>  <r_i_glide_einternal>  (345) 
0.138061

>  <r_i_glide_intrahb_reward>  (345) 
-0

>  <i_i_glide_confnum>  (345) 
2

>  <i_i_glide_posenum>  (345) 
4

>  <r_i_glide_eff_state_penalty>  (345) 
0

>  <ligand_id>  (345) 
104

>  <original_smiles>  (345) 
CC1(C)CCC23CCC4(C)C2C1C(=O)CC3C1(C)C=C2CCC(C(=O)O)=CC4(C)C21

>  <smiles>  (345) 
[H]C1=C2C([H])([H])C([H])([H])C(C(=O)[O-])=C([H])C3(C([H])([H])[H])C2([H])C1(C([H])([H])[H])C1([H])C([H])([H])C(=O)C2([H])C4([H])C1(C([H])([H])C([H])([H])C2(C([H])([H])[H])C([H])([H])[H])C([H])([H])C([H])([H])C43C([H])([H])[H]

$$$$
104:1:0
     RDKit          3D

 66 71  0  0  1  0  0  0  0  0999 V2000
    2.4700   -8.5352    3.9919 C   0  0  0  0  0  0  0  0  0  0  0  0
    3.7809   -7.7918    3.5853 C   0  0  0  0  0  0  0  0  0  0  0  0
    4.6493   -7.8379    4.8714 C   0  0  0  0  0  0  0  0  0  0  0  0
    4.4129   -8.6078    2.4132 C   0  0  0  0  0  0  0  0  0  0  0  0
    5.3746   -7.8607    1.4347 C   0  0  0  0  0  0  0  0  0  0  0  0
    5.2108   -6.2988    1.2208 C   0  0  2  0  0  0  0  0  0  0  0  0
    6.6444   -5.7320    1.0274 C   0  0  0  0  0  0  0  0  0  0  0  0
    6.8640   -4.6743    2.1312 C   0  0  0  0  0  0  0  0  0  0  0  0
    5.4717   -4.2333    2.7170 C   0  0  2  0  0  0  0  0  0  0  0  0
    5.5403   -3.9356    4.2404 C   0  0  0  0  0  0  0  0  0  0  0  0
    4.8499   -5.6920    2.5669 C   0  0  1  0  0  0  0  0  0  0  0  0
    3.5117   -6.3066    3.1198 C   0  0  1  0  0  0  0  0  0  0  0  0
    2.4204   -6.3270    2.0472 C   0  0  0  0  0  0  0  0  0  0  0  0
    1.2316   -6.1451    2.3335 O   0  0  0  0  0  0  0  0  0  0  0  0
    2.8266   -6.6373    0.6059 C   0  0  0  0  0  0  0  0  0  0  0  0
    4.0933   -5.8682    0.1510 C   0  0  1  0  0  0  0  0  0  0  0  0
    3.7491   -4.3199   -0.0008 C   0  0  2  0  0  0  0  0  0  0  0  0
    2.2474   -3.9496    0.2655 C   0  0  0  0  0  0  0  0  0  0  0  0
    3.9586   -3.5233   -1.3320 C   0  0  0  0  0  0  0  0  0  0  0  0
    4.3146   -2.5101   -0.5749 C   0  0  0  0  0  0  0  0  0  0  0  0
    4.3385   -0.9914   -0.6113 C   0  0  0  0  0  0  0  0  0  0  0  0
    3.4721   -0.4017    0.5360 C   0  0  0  0  0  0  0  0  0  0  0  0
    3.0779   -1.2027    1.7935 C   0  0  0  0  0  0  0  0  0  0  0  0
    1.8773   -0.7491    2.5134 C   0  0  0  0  0  0  0  0  0  0  0  0
    1.7762   -0.6701    3.7326 O   0  0  0  0  0  0  0  0  0  0  0  0
    0.8563   -0.3936    1.6823 O   0  0  0  0  0  0  0  0  0  0  0  0
    3.7241   -2.2565    2.3701 C   0  0  0  0  0  0  0  0  0  0  0  0
    5.0113   -2.9287    1.8769 C   0  0  1  0  0  0  0  0  0  0  0  0
    6.0974   -1.8144    1.9172 C   0  0  0  0  0  0  0  0  0  0  0  0
    4.8759   -3.3686    0.4599 C   0  0  1  0  0  0  0  0  0  0  0  0
    2.6773   -9.5175    4.4242 H   0  0  0  0  0  0  0  0  0  0  0  0
    1.8190   -8.7327    3.1402 H   0  0  0  0  0  0  0  0  0  0  0  0
    1.8898   -7.9705    4.7228 H   0  0  0  0  0  0  0  0  0  0  0  0
    5.7129   -7.6813    4.6880 H   0  0  0  0  0  0  0  0  0  0  0  0
    4.5858   -8.7977    5.3861 H   0  0  0  0  0  0  0  0  0  0  0  0
    4.3289   -7.0821    5.5883 H   0  0  0  0  0  0  0  0  0  0  0  0
    4.9919   -9.4207    2.8455 H   0  0  0  0  0  0  0  0  0  0  0  0
    3.6430   -9.1478    1.8497 H   0  0  0  0  0  0  0  0  0  0  0  0
    6.3919   -8.1244    1.7406 H   0  0  0  0  0  0  0  0  0  0  0  0
    5.2699   -8.3495    0.4745 H   0  0  0  0  0  0  0  0  0  0  0  0
    7.4334   -6.4752    1.1328 H   0  0  0  0  0  0  0  0  0  0  0  0
    6.8148   -5.3672    0.0228 H   0  0  0  0  0  0  0  0  0  0  0  0
    7.4425   -5.1727    2.9128 H   0  0  0  0  0  0  0  0  0  0  0  0
    7.5166   -3.8937    1.7556 H   0  0  0  0  0  0  0  0  0  0  0  0
    4.5468   -3.8476    4.6838 H   0  0  0  0  0  0  0  0  0  0  0  0
    6.0652   -3.0180    4.4922 H   0  0  0  0  0  0  0  0  0  0  0  0
    6.0582   -4.7321    4.7875 H   0  0  0  0  0  0  0  0  0  0  0  0
    5.5469   -6.2082    3.2223 H   0  0  0  0  0  0  0  0  0  0  0  0
    3.1594   -5.7264    3.9706 H   0  0  0  0  0  0  0  0  0  0  0  0
    3.0222   -7.6965    0.5303 H   0  0  0  0  0  0  0  0  0  0  0  0
    1.9743   -6.4616   -0.0400 H   0  0  0  0  0  0  0  0  0  0  0  0
    4.4138   -6.2683   -0.8087 H   0  0  0  0  0  0  0  0  0  0  0  0
    2.0006   -3.9437    1.3277 H   0  0  0  0  0  0  0  0  0  0  0  0
    1.5400   -4.5586   -0.3009 H   0  0  0  0  0  0  0  0  0  0  0  0
    1.9674   -2.9375   -0.0300 H   0  0  0  0  0  0  0  0  0  0  0  0
    3.5460   -3.6659   -2.3469 H   0  0  0  0  0  0  0  0  0  0  0  0
    5.3558   -0.6432   -0.5320 H   0  0  0  0  0  0  0  0  0  0  0  0
    3.9627   -0.6501   -1.5779 H   0  0  0  0  0  0  0  0  0  0  0  0
    3.8424    0.5772    0.8329 H   0  0  0  0  0  0  0  0  0  0  0  0
    2.5258   -0.2076    0.0852 H   0  0  0  0  0  0  0  0  0  0  0  0
    0.9869   -0.5436    0.7228 H   0  0  0  0  0  0  0  0  0  0  0  0
    3.3003   -2.6955    3.2560 H   0  0  0  0  0  0  0  0  0  0  0  0
    6.8660   -1.9518    1.1594 H   0  0  0  0  0  0  0  0  0  0  0  0
    6.5898   -1.7375    2.8595 H   0  0  0  0  0  0  0  0  0  0  0  0
    5.7040   -0.8149    1.7529 H   0  0  0  0  0  0  0  0  0  0  0  0
    5.8329   -3.6364    0.0448 H   0  0  0  0  0  0  0  0  0  0  0  0
  1  2  1  0
  1 31  1  0
  1 32  1  0
  1 33  1  0
  2 12  1  0
  2  3  1  0
  2  4  1  0
  3 34  1  0
  3 35  1  0
  3 36  1  0
  4  5  1  0
  4 37  1  0
  4 38  1  0
  6  5  1  1
  5 39  1  0
  5 40  1  0
  6 11  1  0
  6 16  1  0
  6  7  1  0
  7  8  1  0
  7 41  1  0
  7 42  1  0
  8  9  1  0
  8 43  1  0
  8 44  1  0
  9 28  1  0
  9 10  1  1
  9 11  1  0
 10 45  1  0
 10 46  1  0
 10 47  1  0
 11 12  1  0
 11 48  1  1
 12 13  1  0
 12 49  1  1
 13 14  2  0
 13 15  1  0
 15 16  1  0
 15 50  1  0
 15 51  1  0
 16 17  1  0
 16 52  1  6
 17 30  1  0
 17 18  1  1
 17 19  1  0
 18 53  1  0
 18 54  1  0
 18 55  1  0
 19 20  2  0
 19 56  1  0
 20 30  1  0
 20 21  1  0
 21 22  1  0
 21 57  1  0
 21 58  1  0
 22 23  1  0
 22 59  1  0
 22 60  1  0
 23 24  1  0
 23 27  2  0
 24 25  2  0
 24 26  1  0
 26 61  1  0
 27 28  1  0
 27 62  1  0
 28 29  1  6
 28 30  1  0
 29 63  1  0
 29 64  1  0
 29 65  1  0
 30 66  1  6
M  END
>  <i_m_ct_stereo_status>  (346) 
1

>  <s_m_source_file>  (346) 
/var/tmp/pbs.5076255.sched01/tmpb6g28bo8/1236hu3uqnd.sdf

>  <i_m_source_file_index>  (346) 
26

>  <i_lp_mmshare_version>  (346) 
48012

>  <i_f3d_flags>  (346) 
0

>  <s_epik_input>  (346) 
W0NIMl0xW0NIMl1DKFtDSDNdKShbQ0gzXSlbQ0BASF0yQyg9TylbQ0gyXVtDQEhdM1tDQEBdKFtDSDNdKShbQ0BASF00W0NAXTUoW0NIM10pW0NAQF0oW0NIM10pKFtDSF0yW0NAQF0xMzYpW0NIMl1bQ0gyXTYpW0NIXT1DNFtDSDJdW0NIMl1DKD1bQ0hdNSlDKD1PKVtPSF0=

>  <s_epik_cmdline>  (346) 
J2VwaWtfcHl0aG9uJywgJy1waHQnLCAnMi4wJywgJy1waCcsICc3LjAnLCAnLXRuJywgJzgnLCAnLW1hJywgJzIwMCcsICctaW1hZScsICc8aW5maWxlLm1hZT4nLCAnLW9tYWUnLCAnPG91dGZpbGUubWFlPic=

>  <r_lp_tautomer_probability>  (346) 
1

>  <r_epik_Ionization_Penalty>  (346) 
1.65586

>  <r_epik_Ionization_Penalty_Charging>  (346) 
0

>  <r_epik_Ionization_Penalty_Neutral>  (346) 
1.65586

>  <r_epik_State_Penalty>  (346) 
1.75833

>  <r_epik_Charging_Adjusted_Penalty>  (346) 
1.75833

>  <i_epik_Tot_Q>  (346) 
0

>  <i_epik_Tot_abs_Q>  (346) 
0

>  <s_lp_Force_Field>  (346) 
OPLS3e

>  <r_lp_Energy>  (346) 
145.52

>  <b_lp_Chiralities_Consistent>  (346) 
1

>  <s_lp_Variant>  (346) 
104:0-2

>  <s_i_glide_gridfile>  (346) 
pfpi4k_grid

>  <i_i_glide_lignum>  (346) 
26

>  <i_i_glide_rotatable_bonds>  (346) 
2

>  <r_i_docking_score>  (346) 
-2.79341

>  <r_i_glide_ligand_efficiency>  (346) 
-0.0931136

>  <r_i_glide_ligand_efficiency_sa>  (346) 
-0.289325

>  <r_i_glide_ligand_efficiency_ln>  (346) 
-0.634692

>  <r_i_glide_gscore>  (346) 
-2.79341

>  <r_i_glide_lipo>  (346) 
-0.561804

>  <r_i_glide_hbond>  (346) 
0

>  <r_i_glide_metal>  (346) 
-0

>  <r_i_glide_rewards>  (346) 
-0.623366

>  <r_i_glide_evdw>  (346) 
-13.2773

>  <r_i_glide_ecoul>  (346) 
-6.8449

>  <r_i_glide_erotb>  (346) 
0.117908

>  <r_i_glide_esite>  (346) 
-0.0355452

>  <r_i_glide_emodel>  (346) 
-22.5769

>  <r_i_glide_energy>  (346) 
-20.1222

>  <r_i_glide_einternal>  (346) 
2.28048

>  <r_i_glide_intrahb_reward>  (346) 
-0

>  <i_i_glide_confnum>  (346) 
2

>  <i_i_glide_posenum>  (346) 
19

>  <r_i_glide_eff_state_penalty>  (346) 
0

>  <ligand_id>  (346) 
104

>  <original_smiles>  (346) 
CC1(C)CCC23CCC4(C)C2C1C(=O)CC3C1(C)C=C2CCC(C(=O)O)=CC4(C)C21

>  <smiles>  (346) 
[H]OC(=O)C1=C([H])C2(C([H])([H])[H])C3([H])C(=C([H])C3(C([H])([H])[H])C3([H])C([H])([H])C(=O)C4([H])C5([H])C3(C([H])([H])C([H])([H])C4(C([H])([H])[H])C([H])([H])[H])C([H])([H])C([H])([H])C52C([H])([H])[H])C([H])([H])C1([H])[H]

$$$$
104:1:1
     RDKit          3D

 66 71  0  0  1  0  0  0  0  0999 V2000
    1.7442   -7.9723    5.4895 C   0  0  0  0  0  0  0  0  0  0  0  0
    2.8424   -7.9872    4.3893 C   0  0  0  0  0  0  0  0  0  0  0  0
    4.0125   -8.7934    5.0301 C   0  0  0  0  0  0  0  0  0  0  0  0
    2.2436   -8.7222    3.1457 C   0  0  0  0  0  0  0  0  0  0  0  0
    2.8258   -8.3969    1.7323 C   0  0  0  0  0  0  0  0  0  0  0  0
    3.5330   -7.0015    1.4758 C   0  0  2  0  0  0  0  0  0  0  0  0
    4.7296   -7.2653    0.5151 C   0  0  0  0  0  0  0  0  0  0  0  0
    6.0258   -6.8035    1.2474 C   0  0  0  0  0  0  0  0  0  0  0  0
    5.6173   -5.8208    2.4068 C   0  0  2  0  0  0  0  0  0  0  0  0
    6.5783   -5.9778    3.6217 C   0  0  0  0  0  0  0  0  0  0  0  0
    4.2850   -6.6314    2.7495 C   0  0  1  0  0  0  0  0  0  0  0  0
    3.3092   -6.5331    3.9702 C   0  0  1  0  0  0  0  0  0  0  0  0
    2.0471   -5.7206    3.6336 C   0  0  0  0  0  0  0  0  0  0  0  0
    1.5064   -5.0207    4.4847 O   0  0  0  0  0  0  0  0  0  0  0  0
    1.4369   -5.8538    2.2247 C   0  0  0  0  0  0  0  0  0  0  0  0
    2.5212   -5.8003    1.1144 C   0  0  1  0  0  0  0  0  0  0  0  0
    3.1222   -4.3160    1.0006 C   0  0  2  0  0  0  0  0  0  0  0  0
    2.5022   -3.2658    2.0147 C   0  0  0  0  0  0  0  0  0  0  0  0
    3.0804   -3.4917   -0.3114 C   0  0  0  0  0  0  0  0  0  0  0  0
    4.2800   -3.0110    0.0396 C   0  0  0  0  0  0  0  0  0  0  0  0
    5.1403   -1.7927   -0.1498 C   0  0  0  0  0  0  0  0  0  0  0  0
    5.4291   -1.0832    1.2012 C   0  0  0  0  0  0  0  0  0  0  0  0
    5.3570   -1.8454    2.5570 C   0  0  0  0  0  0  0  0  0  0  0  0
    5.1680   -1.0131    3.7428 C   0  0  0  0  0  0  0  0  0  0  0  0
    4.4310   -1.2687    4.6888 O   0  0  0  0  0  0  0  0  0  0  0  0
    5.9205    0.1291    3.6896 O   0  0  0  0  0  0  0  0  0  0  0  0
    5.4190   -3.1904    2.7999 C   0  0  0  0  0  0  0  0  0  0  0  0
    5.6578   -4.3262    1.8031 C   0  0  1  0  0  0  0  0  0  0  0  0
    7.0657   -4.0359    1.1757 C   0  0  0  0  0  0  0  0  0  0  0  0
    4.6345   -4.2707    0.7032 C   0  0  1  0  0  0  0  0  0  0  0  0
    1.5180   -8.9811    5.8559 H   0  0  0  0  0  0  0  0  0  0  0  0
    0.7907   -7.5840    5.1287 H   0  0  0  0  0  0  0  0  0  0  0  0
    2.0357   -7.3700    6.3543 H   0  0  0  0  0  0  0  0  0  0  0  0
    4.7129   -9.2015    4.3056 H   0  0  0  0  0  0  0  0  0  0  0  0
    3.6548   -9.6535    5.5987 H   0  0  0  0  0  0  0  0  0  0  0  0
    4.5779   -8.1762    5.7265 H   0  0  0  0  0  0  0  0  0  0  0  0
    2.3539   -9.7904    3.3000 H   0  0  0  0  0  0  0  0  0  0  0  0
    1.1499   -8.5942    3.1212 H   0  0  0  0  0  0  0  0  0  0  0  0
    3.5055   -9.2345    1.5063 H   0  0  0  0  0  0  0  0  0  0  0  0
    2.0277   -8.5202    1.0124 H   0  0  0  0  0  0  0  0  0  0  0  0
    4.8638   -8.3225    0.2746 H   0  0  0  0  0  0  0  0  0  0  0  0
    4.5681   -6.8365   -0.4706 H   0  0  0  0  0  0  0  0  0  0  0  0
    6.4961   -7.6940    1.6727 H   0  0  0  0  0  0  0  0  0  0  0  0
    6.7592   -6.4395    0.5377 H   0  0  0  0  0  0  0  0  0  0  0  0
    6.1873   -5.4652    4.5041 H   0  0  0  0  0  0  0  0  0  0  0  0
    7.5822   -5.5986    3.4440 H   0  0  0  0  0  0  0  0  0  0  0  0
    6.7072   -7.0251    3.9084 H   0  0  0  0  0  0  0  0  0  0  0  0
    4.7607   -7.5770    3.0008 H   0  0  0  0  0  0  0  0  0  0  0  0
    3.8141   -6.0693    4.8164 H   0  0  0  0  0  0  0  0  0  0  0  0
    0.8742   -6.7805    2.1640 H   0  0  0  0  0  0  0  0  0  0  0  0
    0.6792   -5.0941    2.0993 H   0  0  0  0  0  0  0  0  0  0  0  0
    2.0397   -6.0494    0.1614 H   0  0  0  0  0  0  0  0  0  0  0  0
    2.8485   -3.3779    3.0287 H   0  0  0  0  0  0  0  0  0  0  0  0
    1.4104   -3.2274    2.0296 H   0  0  0  0  0  0  0  0  0  0  0  0
    2.7454   -2.2296    1.7862 H   0  0  0  0  0  0  0  0  0  0  0  0
    2.2549   -3.1344   -0.9540 H   0  0  0  0  0  0  0  0  0  0  0  0
    6.0647   -2.0904   -0.6388 H   0  0  0  0  0  0  0  0  0  0  0  0
    4.6534   -1.0869   -0.8275 H   0  0  0  0  0  0  0  0  0  0  0  0
    6.3987   -0.5915    1.1333 H   0  0  0  0  0  0  0  0  0  0  0  0
    4.6935   -0.2750    1.2870 H   0  0  0  0  0  0  0  0  0  0  0  0
    6.5170    0.1398    2.9531 H   0  0  0  0  0  0  0  0  0  0  0  0
    5.3115   -3.5290    3.8217 H   0  0  0  0  0  0  0  0  0  0  0  0
    7.1294   -4.3757    0.1447 H   0  0  0  0  0  0  0  0  0  0  0  0
    7.8934   -4.4937    1.7071 H   0  0  0  0  0  0  0  0  0  0  0  0
    7.3070   -2.9788    1.1358 H   0  0  0  0  0  0  0  0  0  0  0  0
    4.9320   -4.9090   -0.1125 H   0  0  0  0  0  0  0  0  0  0  0  0
  1  2  1  0
  1 31  1  0
  1 32  1  0
  1 33  1  0
  2 12  1  0
  2  3  1  0
  2  4  1  0
  3 34  1  0
  3 35  1  0
  3 36  1  0
  4  5  1  0
  4 37  1  0
  4 38  1  0
  6  5  1  1
  5 39  1  0
  5 40  1  0
  6 11  1  0
  6 16  1  0
  6  7  1  0
  7  8  1  0
  7 41  1  0
  7 42  1  0
  8  9  1  0
  8 43  1  0
  8 44  1  0
  9 28  1  0
  9 10  1  1
  9 11  1  0
 10 45  1  0
 10 46  1  0
 10 47  1  0
 11 12  1  0
 11 48  1  1
 12 13  1  0
 12 49  1  1
 13 14  2  0
 13 15  1  0
 15 16  1  0
 15 50  1  0
 15 51  1  0
 16 17  1  0
 16 52  1  6
 17 30  1  0
 17 18  1  1
 17 19  1  0
 18 53  1  0
 18 54  1  0
 18 55  1  0
 19 20  2  0
 19 56  1  0
 20 30  1  0
 20 21  1  0
 21 22  1  0
 21 57  1  0
 21 58  1  0
 22 23  1  0
 22 59  1  0
 22 60  1  0
 23 24  1  0
 23 27  2  0
 24 25  2  0
 24 26  1  0
 26 61  1  0
 27 28  1  0
 27 62  1  0
 28 29  1  6
 28 30  1  0
 29 63  1  0
 29 64  1  0
 29 65  1  0
 30 66  1  6
M  END
>  <i_m_ct_stereo_status>  (347) 
1

>  <s_m_source_file>  (347) 
/var/tmp/pbs.5076255.sched01/tmpb6g28bo8/1236hu3uqnd.sdf

>  <i_m_source_file_index>  (347) 
26

>  <i_lp_mmshare_version>  (347) 
48012

>  <i_f3d_flags>  (347) 
0

>  <s_epik_input>  (347) 
W0NIMl0xW0NIMl1DKFtDSDNdKShbQ0gzXSlbQ0BASF0yQyg9TylbQ0gyXVtDQEhdM1tDQEBdKFtDSDNdKShbQ0BASF00W0NAXTUoW0NIM10pW0NAQF0oW0NIM10pKFtDSF0yW0NAQF0xMzYpW0NIMl1bQ0gyXTYpW0NIXT1DNFtDSDJdW0NIMl1DKD1bQ0hdNSlDKD1PKVtPSF0=

>  <s_epik_cmdline>  (347) 
J2VwaWtfcHl0aG9uJywgJy1waHQnLCAnMi4wJywgJy1waCcsICc3LjAnLCAnLXRuJywgJzgnLCAnLW1hJywgJzIwMCcsICctaW1hZScsICc8aW5maWxlLm1hZT4nLCAnLW9tYWUnLCAnPG91dGZpbGUubWFlPic=

>  <r_lp_tautomer_probability>  (347) 
1

>  <r_epik_Ionization_Penalty>  (347) 
1.65586

>  <r_epik_Ionization_Penalty_Charging>  (347) 
0

>  <r_epik_Ionization_Penalty_Neutral>  (347) 
1.65586

>  <r_epik_State_Penalty>  (347) 
1.75833

>  <r_epik_Charging_Adjusted_Penalty>  (347) 
1.75833

>  <i_epik_Tot_Q>  (347) 
0

>  <i_epik_Tot_abs_Q>  (347) 
0

>  <s_lp_Force_Field>  (347) 
OPLS3e

>  <r_lp_Energy>  (347) 
145.52

>  <b_lp_Chiralities_Consistent>  (347) 
1

>  <s_lp_Variant>  (347) 
104:0-2

>  <s_i_glide_gridfile>  (347) 
pfpi4k_grid

>  <i_i_glide_lignum>  (347) 
26

>  <i_i_glide_rotatable_bonds>  (347) 
2

>  <r_i_docking_score>  (347) 
-2.50675

>  <r_i_glide_ligand_efficiency>  (347) 
-0.0835582

>  <r_i_glide_ligand_efficiency_sa>  (347) 
-0.259635

>  <r_i_glide_ligand_efficiency_ln>  (347) 
-0.56956

>  <r_i_glide_gscore>  (347) 
-2.50675

>  <r_i_glide_lipo>  (347) 
-0.693643

>  <r_i_glide_hbond>  (347) 
0

>  <r_i_glide_metal>  (347) 
-0

>  <r_i_glide_rewards>  (347) 
-0.749252

>  <r_i_glide_evdw>  (347) 
-20.6397

>  <r_i_glide_ecoul>  (347) 
-0.987399

>  <r_i_glide_erotb>  (347) 
0.117908

>  <r_i_glide_esite>  (347) 
-0.0016623

>  <r_i_glide_emodel>  (347) 
-24.0788

>  <r_i_glide_energy>  (347) 
-21.6271

>  <r_i_glide_einternal>  (347) 
1.71026

>  <r_i_glide_intrahb_reward>  (347) 
-0

>  <i_i_glide_confnum>  (347) 
4

>  <i_i_glide_posenum>  (347) 
23

>  <r_i_glide_eff_state_penalty>  (347) 
0

>  <ligand_id>  (347) 
104

>  <original_smiles>  (347) 
CC1(C)CCC23CCC4(C)C2C1C(=O)CC3C1(C)C=C2CCC(C(=O)O)=CC4(C)C21

>  <smiles>  (347) 
[H]OC(=O)C1=C([H])C2(C([H])([H])[H])C3([H])C(=C([H])C3(C([H])([H])[H])C3([H])C([H])([H])C(=O)C4([H])C5([H])C3(C([H])([H])C([H])([H])C4(C([H])([H])[H])C([H])([H])[H])C([H])([H])C([H])([H])C52C([H])([H])[H])C([H])([H])C1([H])[H]

$$$$
104:1:2
     RDKit          3D

 66 71  0  0  1  0  0  0  0  0999 V2000
    2.3585   -7.3853    5.7292 C   0  0  0  0  0  0  0  0  0  0  0  0
    3.3160   -7.4792    4.5079 C   0  0  0  0  0  0  0  0  0  0  0  0
    4.5852   -8.1821    5.0754 C   0  0  0  0  0  0  0  0  0  0  0  0
    2.6012   -8.3512    3.4244 C   0  0  0  0  0  0  0  0  0  0  0  0
    3.0005   -8.1567    1.9258 C   0  0  0  0  0  0  0  0  0  0  0  0
    3.6117   -6.7732    1.4509 C   0  0  2  0  0  0  0  0  0  0  0  0
    4.6937   -7.0985    0.3826 C   0  0  0  0  0  0  0  0  0  0  0  0
    6.0475   -6.5281    0.9020 C   0  0  0  0  0  0  0  0  0  0  0  0
    5.7404   -5.4489    2.0000 C   0  0  2  0  0  0  0  0  0  0  0  0
    6.8402   -5.4752    3.0956 C   0  0  0  0  0  0  0  0  0  0  0  0
    4.4915   -6.2561    2.5807 C   0  0  1  0  0  0  0  0  0  0  0  0
    3.6684   -6.0619    3.8965 C   0  0  1  0  0  0  0  0  0  0  0  0
    2.3432   -5.3268    3.6400 C   0  0  0  0  0  0  0  0  0  0  0  0
    1.8813   -4.5580    4.4775 O   0  0  0  0  0  0  0  0  0  0  0  0
    1.5767   -5.6244    2.3378 C   0  0  0  0  0  0  0  0  0  0  0  0
    2.5146   -5.6478    1.1015 C   0  0  1  0  0  0  0  0  0  0  0  0
    3.0399   -4.1631    0.7734 C   0  0  2  0  0  0  0  0  0  0  0  0
    2.4922   -3.0370    1.7478 C   0  0  0  0  0  0  0  0  0  0  0  0
    2.8101   -3.4787   -0.5951 C   0  0  0  0  0  0  0  0  0  0  0  0
    4.0235   -2.9310   -0.4453 C   0  0  0  0  0  0  0  0  0  0  0  0
    4.7972   -1.7135   -0.8537 C   0  0  0  0  0  0  0  0  0  0  0  0
    5.1961   -0.8571    0.3804 C   0  0  0  0  0  0  0  0  0  0  0  0
    5.3182   -1.4846    1.8002 C   0  0  0  0  0  0  0  0  0  0  0  0
    5.2470   -0.5378    2.8999 C   0  0  0  0  0  0  0  0  0  0  0  0
    6.1502   -0.2571    3.6716 O   0  0  0  0  0  0  0  0  0  0  0  0
    4.0480    0.1010    2.9477 O   0  0  0  0  0  0  0  0  0  0  0  0
    5.5018   -2.7904    2.1630 C   0  0  0  0  0  0  0  0  0  0  0  0
    5.6603   -4.0170    1.2601 C   0  0  1  0  0  0  0  0  0  0  0  0
    6.9644   -3.7509    0.4376 C   0  0  0  0  0  0  0  0  0  0  0  0
    4.5062   -4.1037    0.2940 C   0  0  1  0  0  0  0  0  0  0  0  0
    2.2212   -8.3588    6.2144 H   0  0  0  0  0  0  0  0  0  0  0  0
    1.3539   -7.0626    5.4516 H   0  0  0  0  0  0  0  0  0  0  0  0
    2.7286   -6.6902    6.4885 H   0  0  0  0  0  0  0  0  0  0  0  0
    5.2119   -8.6402    4.3140 H   0  0  0  0  0  0  0  0  0  0  0  0
    4.3329   -8.9897    5.7640 H   0  0  0  0  0  0  0  0  0  0  0  0
    5.2024   -7.4813    5.6349 H   0  0  0  0  0  0  0  0  0  0  0  0
    2.7763   -9.3942    3.6669 H   0  0  0  0  0  0  0  0  0  0  0  0
    1.5086   -8.2611    3.5229 H   0  0  0  0  0  0  0  0  0  0  0  0
    3.6835   -8.9913    1.7049 H   0  0  0  0  0  0  0  0  0  0  0  0
    2.1317   -8.3750    1.3184 H   0  0  0  0  0  0  0  0  0  0  0  0
    4.8412   -8.1701    0.2290 H   0  0  0  0  0  0  0  0  0  0  0  0
    4.3992   -6.7731   -0.6123 H   0  0  0  0  0  0  0  0  0  0  0  0
    6.5997   -7.3571    1.3518 H   0  0  0  0  0  0  0  0  0  0  0  0
    6.6784   -6.2129    0.0776 H   0  0  0  0  0  0  0  0  0  0  0  0
    6.5281   -4.8974    3.9697 H   0  0  0  0  0  0  0  0  0  0  0  0
    7.7963   -5.0825    2.7528 H   0  0  0  0  0  0  0  0  0  0  0  0
    7.0507   -6.4829    3.4613 H   0  0  0  0  0  0  0  0  0  0  0  0
    5.0322   -7.1572    2.8632 H   0  0  0  0  0  0  0  0  0  0  0  0
    4.2517   -5.5009    4.6256 H   0  0  0  0  0  0  0  0  0  0  0  0
    1.0495   -6.5686    2.4355 H   0  0  0  0  0  0  0  0  0  0  0  0
    0.7753   -4.9078    2.2433 H   0  0  0  0  0  0  0  0  0  0  0  0
    1.9346   -6.0055    0.2422 H   0  0  0  0  0  0  0  0  0  0  0  0
    2.9666   -3.0306    2.7160 H   0  0  0  0  0  0  0  0  0  0  0  0
    1.4154   -3.0318    1.8856 H   0  0  0  0  0  0  0  0  0  0  0  0
    2.6633   -2.0240    1.3864 H   0  0  0  0  0  0  0  0  0  0  0  0
    1.9000   -3.2050   -1.1660 H   0  0  0  0  0  0  0  0  0  0  0  0
    5.6696   -2.0297   -1.4206 H   0  0  0  0  0  0  0  0  0  0  0  0
    4.1987   -1.0993   -1.5354 H   0  0  0  0  0  0  0  0  0  0  0  0
    6.1351   -0.3448    0.1761 H   0  0  0  0  0  0  0  0  0  0  0  0
    4.4513   -0.0546    0.4492 H   0  0  0  0  0  0  0  0  0  0  0  0
    4.0737    0.7871    3.6029 H   0  0  0  0  0  0  0  0  0  0  0  0
    5.5387   -3.0159    3.2189 H   0  0  0  0  0  0  0  0  0  0  0  0
    6.9131   -4.1893   -0.5537 H   0  0  0  0  0  0  0  0  0  0  0  0
    7.8661   -4.1229    0.9073 H   0  0  0  0  0  0  0  0  0  0  0  0
    7.1505   -2.6972    0.2653 H   0  0  0  0  0  0  0  0  0  0  0  0
    4.7273   -4.8126   -0.4878 H   0  0  0  0  0  0  0  0  0  0  0  0
  1  2  1  0
  1 31  1  0
  1 32  1  0
  1 33  1  0
  2 12  1  0
  2  3  1  0
  2  4  1  0
  3 34  1  0
  3 35  1  0
  3 36  1  0
  4  5  1  0
  4 37  1  0
  4 38  1  0
  6  5  1  1
  5 39  1  0
  5 40  1  0
  6 11  1  0
  6 16  1  0
  6  7  1  0
  7  8  1  0
  7 41  1  0
  7 42  1  0
  8  9  1  0
  8 43  1  0
  8 44  1  0
  9 28  1  0
  9 10  1  1
  9 11  1  0
 10 45  1  0
 10 46  1  0
 10 47  1  0
 11 12  1  0
 11 48  1  1
 12 13  1  0
 12 49  1  1
 13 14  2  0
 13 15  1  0
 15 16  1  0
 15 50  1  0
 15 51  1  0
 16 17  1  0
 16 52  1  6
 17 30  1  0
 17 18  1  1
 17 19  1  0
 18 53  1  0
 18 54  1  0
 18 55  1  0
 19 20  2  0
 19 56  1  0
 20 30  1  0
 20 21  1  0
 21 22  1  0
 21 57  1  0
 21 58  1  0
 22 23  1  0
 22 59  1  0
 22 60  1  0
 23 24  1  0
 23 27  2  0
 24 25  2  0
 24 26  1  0
 26 61  1  0
 27 28  1  0
 27 62  1  0
 28 29  1  6
 28 30  1  0
 29 63  1  0
 29 64  1  0
 29 65  1  0
 30 66  1  6
M  END
>  <i_m_ct_stereo_status>  (348) 
1

>  <s_m_source_file>  (348) 
/var/tmp/pbs.5076255.sched01/tmpb6g28bo8/1236hu3uqnd.sdf

>  <i_m_source_file_index>  (348) 
26

>  <i_lp_mmshare_version>  (348) 
48012

>  <i_f3d_flags>  (348) 
0

>  <s_epik_input>  (348) 
W0NIMl0xW0NIMl1DKFtDSDNdKShbQ0gzXSlbQ0BASF0yQyg9TylbQ0gyXVtDQEhdM1tDQEBdKFtDSDNdKShbQ0BASF00W0NAXTUoW0NIM10pW0NAQF0oW0NIM10pKFtDSF0yW0NAQF0xMzYpW0NIMl1bQ0gyXTYpW0NIXT1DNFtDSDJdW0NIMl1DKD1bQ0hdNSlDKD1PKVtPSF0=

>  <s_epik_cmdline>  (348) 
J2VwaWtfcHl0aG9uJywgJy1waHQnLCAnMi4wJywgJy1waCcsICc3LjAnLCAnLXRuJywgJzgnLCAnLW1hJywgJzIwMCcsICctaW1hZScsICc8aW5maWxlLm1hZT4nLCAnLW9tYWUnLCAnPG91dGZpbGUubWFlPic=

>  <r_lp_tautomer_probability>  (348) 
1

>  <r_epik_Ionization_Penalty>  (348) 
1.65586

>  <r_epik_Ionization_Penalty_Charging>  (348) 
0

>  <r_epik_Ionization_Penalty_Neutral>  (348) 
1.65586

>  <r_epik_State_Penalty>  (348) 
1.75833

>  <r_epik_Charging_Adjusted_Penalty>  (348) 
1.75833

>  <i_epik_Tot_Q>  (348) 
0

>  <i_epik_Tot_abs_Q>  (348) 
0

>  <s_lp_Force_Field>  (348) 
OPLS3e

>  <r_lp_Energy>  (348) 
145.52

>  <b_lp_Chiralities_Consistent>  (348) 
1

>  <s_lp_Variant>  (348) 
104:0-2

>  <s_i_glide_gridfile>  (348) 
pfpi4k_grid

>  <i_i_glide_lignum>  (348) 
26

>  <i_i_glide_rotatable_bonds>  (348) 
2

>  <r_i_docking_score>  (348) 
-2.48748

>  <r_i_glide_ligand_efficiency>  (348) 
-0.082916

>  <r_i_glide_ligand_efficiency_sa>  (348) 
-0.257639

>  <r_i_glide_ligand_efficiency_ln>  (348) 
-0.565182

>  <r_i_glide_gscore>  (348) 
-2.48748

>  <r_i_glide_lipo>  (348) 
-0.770025

>  <r_i_glide_hbond>  (348) 
0

>  <r_i_glide_metal>  (348) 
-0

>  <r_i_glide_rewards>  (348) 
-0.800794

>  <r_i_glide_evdw>  (348) 
-20.154

>  <r_i_glide_ecoul>  (348) 
-0.179141

>  <r_i_glide_erotb>  (348) 
0.117908

>  <r_i_glide_esite>  (348) 
0

>  <r_i_glide_emodel>  (348) 
-22.2475

>  <r_i_glide_energy>  (348) 
-20.3331

>  <r_i_glide_einternal>  (348) 
2.61057

>  <r_i_glide_intrahb_reward>  (348) 
-0

>  <i_i_glide_confnum>  (348) 
4

>  <i_i_glide_posenum>  (348) 
32

>  <r_i_glide_eff_state_penalty>  (348) 
0

>  <ligand_id>  (348) 
104

>  <original_smiles>  (348) 
CC1(C)CCC23CCC4(C)C2C1C(=O)CC3C1(C)C=C2CCC(C(=O)O)=CC4(C)C21

>  <smiles>  (348) 
[H]OC(=O)C1=C([H])C2(C([H])([H])[H])C3([H])C(=C([H])C3(C([H])([H])[H])C3([H])C([H])([H])C(=O)C4([H])C5([H])C3(C([H])([H])C([H])([H])C4(C([H])([H])[H])C([H])([H])[H])C([H])([H])C([H])([H])C52C([H])([H])[H])C([H])([H])C1([H])[H]

$$$$
105:0:0
     RDKit          3D

 54 60  0  0  1  0  0  0  0  0999 V2000
    4.9992   -3.8231   -2.1945 C   0  0  0  0  0  0  0  0  0  0  0  0
    4.7915   -3.7973   -0.8579 C   0  0  0  0  0  0  0  0  0  0  0  0
    5.9269   -3.3339    0.0404 C   0  0  1  0  0  0  0  0  0  0  0  0
    5.6599   -1.8927    0.4666 C   0  0  0  0  0  0  0  0  0  0  0  0
    6.5594   -1.0562    0.3451 O   0  0  0  0  0  0  0  0  0  0  0  0
    4.4561   -1.5951    1.0442 O   0  0  0  0  0  0  0  0  0  0  0  0
    3.2395   -2.3832    1.0016 C   0  0  0  0  0  0  0  0  0  0  0  0
    3.0581   -3.9583    1.3519 C   0  0  2  0  0  0  0  0  0  0  0  0
    3.4199   -4.2025   -0.2440 C   0  0  1  0  0  0  0  0  0  0  0  0
    2.3315   -3.8512   -1.0985 O   0  0  0  0  0  0  0  0  0  0  0  0
    3.5191   -3.6732    2.8945 C   0  0  2  0  0  0  0  0  0  0  0  0
    4.8674   -3.3982    2.7492 O   0  0  0  0  0  0  0  0  0  0  0  0
    5.1892   -4.5795    2.0876 C   0  0  1  0  0  0  0  0  0  0  0  0
    6.3660   -4.2841    1.1888 C   0  0  1  0  0  0  0  0  0  0  0  0
    6.8590   -5.4829    0.6221 O   0  0  0  0  0  0  0  0  0  0  0  0
    4.9690   -5.4644    3.2407 C   0  0  2  0  0  0  0  0  0  0  0  0
    6.1705   -5.9293    4.0383 C   0  0  0  0  0  0  0  0  0  0  0  0
    7.0018   -7.0866    3.4888 C   0  0  0  0  0  0  0  0  0  0  0  0
    6.5232   -5.4421    5.1103 O   0  0  0  0  0  0  0  0  0  0  0  0
    4.4537   -6.3549    2.2794 O   0  0  0  0  0  0  0  0  0  0  0  0
    3.9297   -5.2752    1.4328 C   0  0  2  0  0  0  0  0  0  0  0  0
    2.6328   -6.2766    1.7266 C   0  0  2  0  0  0  0  0  0  0  0  0
    1.3186   -5.7264    2.3974 C   0  0  0  0  0  0  0  0  0  0  0  0
    1.7745   -6.4543    3.6473 C   0  0  2  0  0  0  0  0  0  0  0  0
    2.7212   -5.6790    4.5615 C   0  0  0  0  0  0  0  0  0  0  0  0
    2.6674   -5.7422    5.7837 O   0  0  0  0  0  0  0  0  0  0  0  0
    3.8333   -4.7738    3.9727 C   0  0  2  0  0  0  0  0  0  0  0  0
    2.3552   -7.5383    2.7109 C   0  0  0  0  0  0  0  0  0  0  0  0
    1.3359   -8.5742    2.1704 C   0  0  0  0  0  0  0  0  0  0  0  0
    3.4315   -8.4838    3.3121 C   0  0  0  0  0  0  0  0  0  0  0  0
    4.2371   -4.1596   -2.8833 H   0  0  0  0  0  0  0  0  0  0  0  0
    5.9479   -3.5397   -2.6239 H   0  0  0  0  0  0  0  0  0  0  0  0
    6.7951   -3.2448   -0.5995 H   0  0  0  0  0  0  0  0  0  0  0  0
    2.6132   -1.8579    1.7128 H   0  0  0  0  0  0  0  0  0  0  0  0
    2.7225   -2.0506    0.1089 H   0  0  0  0  0  0  0  0  0  0  0  0
    3.3839   -5.2435   -0.5918 H   0  0  0  0  0  0  0  0  0  0  0  0
    2.4227   -4.3786   -1.8908 H   0  0  0  0  0  0  0  0  0  0  0  0
    2.9567   -2.8813    3.3901 H   0  0  0  0  0  0  0  0  0  0  0  0
    7.1744   -3.8209    1.7584 H   0  0  0  0  0  0  0  0  0  0  0  0
    7.6928   -5.3086    0.2160 H   0  0  0  0  0  0  0  0  0  0  0  0
    6.3767   -7.9304    3.1965 H   0  0  0  0  0  0  0  0  0  0  0  0
    7.6925   -7.4306    4.2592 H   0  0  0  0  0  0  0  0  0  0  0  0
    7.6053   -6.7706    2.6384 H   0  0  0  0  0  0  0  0  0  0  0  0
    2.3476   -6.6274    0.7418 H   0  0  0  0  0  0  0  0  0  0  0  0
    1.1499   -4.6658    2.5884 H   0  0  0  0  0  0  0  0  0  0  0  0
    0.3977   -6.1386    1.9895 H   0  0  0  0  0  0  0  0  0  0  0  0
    0.9181   -6.8489    4.1946 H   0  0  0  0  0  0  0  0  0  0  0  0
    4.2518   -4.2642    4.8347 H   0  0  0  0  0  0  0  0  0  0  0  0
    0.8612   -9.1172    2.9892 H   0  0  0  0  0  0  0  0  0  0  0  0
    1.8096   -9.3128    1.5200 H   0  0  0  0  0  0  0  0  0  0  0  0
    0.5253   -8.1512    1.5822 H   0  0  0  0  0  0  0  0  0  0  0  0
    2.9907   -9.3000    3.8870 H   0  0  0  0  0  0  0  0  0  0  0  0
    4.0962   -7.9817    4.0110 H   0  0  0  0  0  0  0  0  0  0  0  0
    4.0548   -8.9267    2.5313 H   0  0  0  0  0  0  0  0  0  0  0  0
  1  2  2  0
  1 31  1  0
  1 32  1  0
  2  9  1  0
  2  3  1  0
  3 14  1  0
  3  4  1  0
  3 33  1  6
  4  5  2  0
  4  6  1  0
  6  7  1  0
  8  7  1  1
  7 34  1  0
  7 35  1  0
  8 21  1  0
  8  9  1  0
  8 11  1  0
  9 10  1  0
  9 36  1  1
 10 37  1  0
 11 27  1  0
 11 12  1  0
 11 38  1  1
 13 12  1  1
 13 21  1  0
 13 14  1  0
 13 16  1  0
 14 15  1  0
 14 39  1  1
 15 40  1  0
 16 27  1  0
 16 17  1  1
 16 20  1  0
 17 18  1  0
 17 19  2  0
 18 41  1  0
 18 42  1  0
 18 43  1  0
 21 20  1  1
 21 22  1  0
 22 28  1  0
 22 23  1  0
 22 44  1  6
 23 24  1  0
 23 45  1  0
 23 46  1  0
 24 25  1  0
 24 28  1  0
 24 47  1  1
 25 26  2  0
 25 27  1  0
 27 48  1  1
 28 29  1  0
 28 30  1  0
 29 49  1  0
 29 50  1  0
 29 51  1  0
 30 52  1  0
 30 53  1  0
 30 54  1  0
M  END
>  <i_m_ct_stereo_status>  (349) 
1

>  <s_m_source_file>  (349) 
/var/tmp/pbs.5076255.sched01/tmpb6g28bo8/1236hu3uqnd.sdf

>  <i_m_source_file_index>  (349) 
27

>  <i_lp_mmshare_version>  (349) 
48012

>  <i_f3d_flags>  (349) 
2

>  <s_epik_input>  (349) 
W0NIMl0xT0MoPU8pW0NASF0oQyg9W0NIMl0pW0NAQEhdMltPSF0pW0NASF0oW09IXSlbQ0BAXTMoQzQ1QzEyNilbQ0BAXShPNCkoQyg9TylbQ0gzXSlbQ0BASF0oW0NASF02TzMpQyg9TylbQ0BIXTdbQ0gyXVtDQEBIXTVDNyhbQ0gzXSlbQ0gzXQ==

>  <s_epik_cmdline>  (349) 
J2VwaWtfcHl0aG9uJywgJy1waHQnLCAnMi4wJywgJy1waCcsICc3LjAnLCAnLXRuJywgJzgnLCAnLW1hJywgJzIwMCcsICctaW1hZScsICc8aW5maWxlLm1hZT4nLCAnLW9tYWUnLCAnPG91dGZpbGUubWFlPic=

>  <r_lp_tautomer_probability>  (349) 
1

>  <r_epik_Ionization_Penalty>  (349) 
6.37651e-05

>  <r_epik_Ionization_Penalty_Charging>  (349) 
0

>  <r_epik_Ionization_Penalty_Neutral>  (349) 
6.37651e-05

>  <r_epik_State_Penalty>  (349) 
-0

>  <r_epik_Charging_Adjusted_Penalty>  (349) 
0

>  <i_epik_Tot_Q>  (349) 
0

>  <i_epik_Tot_abs_Q>  (349) 
0

>  <s_epik_Chemistry_Notes>  (349) 
This compound has an ester and may undergo hydrolysis at high or low pH.

>  <s_lp_Force_Field>  (349) 
OPLS3e

>  <r_lp_Energy>  (349) 
345.739

>  <b_lp_Chiralities_Consistent>  (349) 
0

>  <s_lp_Variant>  (349) 
105:0-1

>  <s_i_glide_gridfile>  (349) 
pfpi4k_grid

>  <i_i_glide_lignum>  (349) 
27

>  <i_i_glide_rotatable_bonds>  (349) 
3

>  <r_i_docking_score>  (349) 
-2.97673

>  <r_i_glide_ligand_efficiency>  (349) 
-0.0992245

>  <r_i_glide_ligand_efficiency_sa>  (349) 
-0.308314

>  <r_i_glide_ligand_efficiency_ln>  (349) 
-0.676347

>  <r_i_glide_gscore>  (349) 
-2.97673

>  <r_i_glide_lipo>  (349) 
-0.225453

>  <r_i_glide_hbond>  (349) 
-0.301002

>  <r_i_glide_metal>  (349) 
-0

>  <r_i_glide_rewards>  (349) 
-0.664977

>  <r_i_glide_evdw>  (349) 
-21.0319

>  <r_i_glide_ecoul>  (349) 
-4.8914

>  <r_i_glide_erotb>  (349) 
0

>  <r_i_glide_esite>  (349) 
0

>  <r_i_glide_emodel>  (349) 
-29.7836

>  <r_i_glide_energy>  (349) 
-25.9233

>  <r_i_glide_einternal>  (349) 
1.32249

>  <r_i_glide_intrahb_reward>  (349) 
-0

>  <i_i_glide_confnum>  (349) 
2

>  <i_i_glide_posenum>  (349) 
23

>  <r_i_glide_eff_state_penalty>  (349) 
0

>  <ligand_id>  (349) 
105

>  <original_smiles>  (349) 
C=C1C2C(=O)OCC3(C1O)C1OC4(C2O)C2(C(C)=O)OC34C3CC(C(=O)C12)C3(C)C

>  <smiles>  (349) 
[H]OC1([H])C(=C([H])[H])C2([H])C(=O)OC([H])([H])C13C1([H])OC4(C2([H])O[H])C2(C(=O)C([H])([H])[H])OC43C3([H])C([H])([H])C([H])(C(=O)C12[H])C3(C([H])([H])[H])C([H])([H])[H]

$$$$
105:0:1
     RDKit          3D

 54 60  0  0  1  0  0  0  0  0999 V2000
    4.7927   -3.3961   -2.2014 C   0  0  0  0  0  0  0  0  0  0  0  0
    4.6503   -3.4426   -0.8593 C   0  0  0  0  0  0  0  0  0  0  0  0
    5.8327   -3.0399    0.0183 C   0  0  1  0  0  0  0  0  0  0  0  0
    5.5964   -1.6228    0.5333 C   0  0  0  0  0  0  0  0  0  0  0  0
    6.4948   -0.7887    0.4259 O   0  0  0  0  0  0  0  0  0  0  0  0
    4.4245   -1.3489    1.1827 O   0  0  0  0  0  0  0  0  0  0  0  0
    3.2011   -2.1215    1.1542 C   0  0  0  0  0  0  0  0  0  0  0  0
    3.0135   -3.7144    1.4113 C   0  0  2  0  0  0  0  0  0  0  0  0
    3.3056   -3.8631   -0.2039 C   0  0  1  0  0  0  0  0  0  0  0  0
    2.1742   -3.4572   -0.9867 O   0  0  0  0  0  0  0  0  0  0  0  0
    3.5429   -3.5234    2.9490 C   0  0  2  0  0  0  0  0  0  0  0  0
    4.8857   -3.2536    2.7612 O   0  0  0  0  0  0  0  0  0  0  0  0
    5.1646   -4.3955    2.0198 C   0  0  1  0  0  0  0  0  0  0  0  0
    6.3127   -4.0481    1.0991 C   0  0  1  0  0  0  0  0  0  0  0  0
    6.7948   -5.2094    0.4653 O   0  0  0  0  0  0  0  0  0  0  0  0
    4.9830   -5.3468    3.1233 C   0  0  2  0  0  0  0  0  0  0  0  0
    6.2080   -5.8699    3.8421 C   0  0  0  0  0  0  0  0  0  0  0  0
    7.0042   -6.9993    3.1888 C   0  0  0  0  0  0  0  0  0  0  0  0
    6.6108   -5.4523    4.9238 O   0  0  0  0  0  0  0  0  0  0  0  0
    4.4239   -6.1743    2.1281 O   0  0  0  0  0  0  0  0  0  0  0  0
    3.8737   -5.0391    1.3737 C   0  0  2  0  0  0  0  0  0  0  0  0
    2.5745   -6.0419    1.6665 C   0  0  2  0  0  0  0  0  0  0  0  0
    1.2990   -5.5183    2.4270 C   0  0  0  0  0  0  0  0  0  0  0  0
    1.7980   -6.3242    3.6098 C   0  0  2  0  0  0  0  0  0  0  0  0
    2.7927   -5.6155    4.5264 C   0  0  0  0  0  0  0  0  0  0  0  0
    2.7917   -5.7507    5.7437 O   0  0  0  0  0  0  0  0  0  0  0  0
    3.8873   -4.6891    3.9435 C   0  0  2  0  0  0  0  0  0  0  0  0
    2.3240   -7.3549    2.5860 C   0  0  0  0  0  0  0  0  0  0  0  0
    1.2662   -8.3462    2.0331 C   0  0  0  0  0  0  0  0  0  0  0  0
    3.4117   -8.3461    3.0823 C   0  0  0  0  0  0  0  0  0  0  0  0
    3.9872   -3.6841   -2.8649 H   0  0  0  0  0  0  0  0  0  0  0  0
    5.7218   -3.0969   -2.6633 H   0  0  0  0  0  0  0  0  0  0  0  0
    6.6759   -2.9288   -0.6549 H   0  0  0  0  0  0  0  0  0  0  0  0
    2.6149   -1.6301    1.9212 H   0  0  0  0  0  0  0  0  0  0  0  0
    2.6506   -1.7259    0.3088 H   0  0  0  0  0  0  0  0  0  0  0  0
    3.2360   -4.8782   -0.6207 H   0  0  0  0  0  0  0  0  0  0  0  0
    2.0281   -2.5265   -0.9200 H   0  0  0  0  0  0  0  0  0  0  0  0
    3.0118   -2.7565    3.5139 H   0  0  0  0  0  0  0  0  0  0  0  0
    7.1406   -3.6221    1.6687 H   0  0  0  0  0  0  0  0  0  0  0  0
    6.9979   -5.8541    1.1282 H   0  0  0  0  0  0  0  0  0  0  0  0
    6.3587   -7.8182    2.8709 H   0  0  0  0  0  0  0  0  0  0  0  0
    7.7183   -7.3990    3.9082 H   0  0  0  0  0  0  0  0  0  0  0  0
    7.5917   -6.6480    2.3428 H   0  0  0  0  0  0  0  0  0  0  0  0
    2.2407   -6.3290    0.6770 H   0  0  0  0  0  0  0  0  0  0  0  0
    1.1509   -4.4691    2.6865 H   0  0  0  0  0  0  0  0  0  0  0  0
    0.3539   -5.9001    2.0438 H   0  0  0  0  0  0  0  0  0  0  0  0
    0.9617   -6.7407    4.1705 H   0  0  0  0  0  0  0  0  0  0  0  0
    4.3495   -4.2358    4.8128 H   0  0  0  0  0  0  0  0  0  0  0  0
    0.8194   -8.9323    2.8376 H   0  0  0  0  0  0  0  0  0  0  0  0
    1.7008   -9.0503    1.3206 H   0  0  0  0  0  0  0  0  0  0  0  0
    0.4379   -7.8814    1.5046 H   0  0  0  0  0  0  0  0  0  0  0  0
    2.9857   -9.1896    3.6277 H   0  0  0  0  0  0  0  0  0  0  0  0
    4.1121   -7.8935    3.7795 H   0  0  0  0  0  0  0  0  0  0  0  0
    3.9945   -8.7498    2.2506 H   0  0  0  0  0  0  0  0  0  0  0  0
  1  2  2  0
  1 31  1  0
  1 32  1  0
  2  9  1  0
  2  3  1  0
  3 14  1  0
  3  4  1  0
  3 33  1  6
  4  5  2  0
  4  6  1  0
  6  7  1  0
  8  7  1  1
  7 34  1  0
  7 35  1  0
  8 21  1  0
  8  9  1  0
  8 11  1  0
  9 10  1  0
  9 36  1  1
 10 37  1  0
 11 27  1  0
 11 12  1  0
 11 38  1  1
 13 12  1  1
 13 21  1  0
 13 14  1  0
 13 16  1  0
 14 15  1  0
 14 39  1  1
 15 40  1  0
 16 27  1  0
 16 17  1  1
 16 20  1  0
 17 18  1  0
 17 19  2  0
 18 41  1  0
 18 42  1  0
 18 43  1  0
 21 20  1  1
 21 22  1  0
 22 28  1  0
 22 23  1  0
 22 44  1  6
 23 24  1  0
 23 45  1  0
 23 46  1  0
 24 25  1  0
 24 28  1  0
 24 47  1  1
 25 26  2  0
 25 27  1  0
 27 48  1  1
 28 29  1  0
 28 30  1  0
 29 49  1  0
 29 50  1  0
 29 51  1  0
 30 52  1  0
 30 53  1  0
 30 54  1  0
M  END
>  <i_m_ct_stereo_status>  (350) 
1

>  <s_m_source_file>  (350) 
/var/tmp/pbs.5076255.sched01/tmpb6g28bo8/1236hu3uqnd.sdf

>  <i_m_source_file_index>  (350) 
27

>  <i_lp_mmshare_version>  (350) 
48012

>  <i_f3d_flags>  (350) 
2

>  <s_epik_input>  (350) 
W0NIMl0xT0MoPU8pW0NASF0oQyg9W0NIMl0pW0NAQEhdMltPSF0pW0NASF0oW09IXSlbQ0BAXTMoQzQ1QzEyNilbQ0BAXShPNCkoQyg9TylbQ0gzXSlbQ0BASF0oW0NASF02TzMpQyg9TylbQ0BIXTdbQ0gyXVtDQEBIXTVDNyhbQ0gzXSlbQ0gzXQ==

>  <s_epik_cmdline>  (350) 
J2VwaWtfcHl0aG9uJywgJy1waHQnLCAnMi4wJywgJy1waCcsICc3LjAnLCAnLXRuJywgJzgnLCAnLW1hJywgJzIwMCcsICctaW1hZScsICc8aW5maWxlLm1hZT4nLCAnLW9tYWUnLCAnPG91dGZpbGUubWFlPic=

>  <r_lp_tautomer_probability>  (350) 
1

>  <r_epik_Ionization_Penalty>  (350) 
6.37651e-05

>  <r_epik_Ionization_Penalty_Charging>  (350) 
0

>  <r_epik_Ionization_Penalty_Neutral>  (350) 
6.37651e-05

>  <r_epik_State_Penalty>  (350) 
-0

>  <r_epik_Charging_Adjusted_Penalty>  (350) 
0

>  <i_epik_Tot_Q>  (350) 
0

>  <i_epik_Tot_abs_Q>  (350) 
0

>  <s_epik_Chemistry_Notes>  (350) 
This compound has an ester and may undergo hydrolysis at high or low pH.

>  <s_lp_Force_Field>  (350) 
OPLS3e

>  <r_lp_Energy>  (350) 
345.739

>  <b_lp_Chiralities_Consistent>  (350) 
0

>  <s_lp_Variant>  (350) 
105:0-1

>  <s_i_glide_gridfile>  (350) 
pfpi4k_grid

>  <i_i_glide_lignum>  (350) 
27

>  <i_i_glide_rotatable_bonds>  (350) 
3

>  <r_i_docking_score>  (350) 
-2.73515

>  <r_i_glide_ligand_efficiency>  (350) 
-0.0911717

>  <r_i_glide_ligand_efficiency_sa>  (350) 
-0.283292

>  <r_i_glide_ligand_efficiency_ln>  (350) 
-0.621456

>  <r_i_glide_gscore>  (350) 
-2.73515

>  <r_i_glide_lipo>  (350) 
-0.291453

>  <r_i_glide_hbond>  (350) 
-0.152071

>  <r_i_glide_metal>  (350) 
-0

>  <r_i_glide_rewards>  (350) 
-0.684884

>  <r_i_glide_evdw>  (350) 
-21.7425

>  <r_i_glide_ecoul>  (350) 
-3.46411

>  <r_i_glide_erotb>  (350) 
0

>  <r_i_glide_esite>  (350) 
0

>  <r_i_glide_emodel>  (350) 
-29.0505

>  <r_i_glide_energy>  (350) 
-25.2066

>  <r_i_glide_einternal>  (350) 
0.677978

>  <r_i_glide_intrahb_reward>  (350) 
-0

>  <i_i_glide_confnum>  (350) 
2

>  <i_i_glide_posenum>  (350) 
40

>  <r_i_glide_eff_state_penalty>  (350) 
0

>  <ligand_id>  (350) 
105

>  <original_smiles>  (350) 
C=C1C2C(=O)OCC3(C1O)C1OC4(C2O)C2(C(C)=O)OC34C3CC(C(=O)C12)C3(C)C

>  <smiles>  (350) 
[H]OC1([H])C(=C([H])[H])C2([H])C(=O)OC([H])([H])C13C1([H])OC4(C2([H])O[H])C2(C(=O)C([H])([H])[H])OC43C3([H])C([H])([H])C([H])(C(=O)C12[H])C3(C([H])([H])[H])C([H])([H])[H]

$$$$
105:0:2
     RDKit          3D

 54 60  0  0  1  0  0  0  0  0999 V2000
    0.6916   -6.0765    3.1761 C   0  0  0  0  0  0  0  0  0  0  0  0
    1.8766   -5.4539    3.0092 C   0  0  0  0  0  0  0  0  0  0  0  0
    2.3863   -4.5259    4.1088 C   0  0  1  0  0  0  0  0  0  0  0  0
    3.4448   -5.2677    4.9308 C   0  0  0  0  0  0  0  0  0  0  0  0
    3.3632   -5.2615    6.1538 O   0  0  0  0  0  0  0  0  0  0  0  0
    4.4956   -5.8448    4.2778 O   0  0  0  0  0  0  0  0  0  0  0  0
    4.6046   -6.1510    2.8711 C   0  0  0  0  0  0  0  0  0  0  0  0
    4.2986   -5.1793    1.6017 C   0  0  2  0  0  0  0  0  0  0  0  0
    2.7375   -5.7109    1.7423 C   0  0  1  0  0  0  0  0  0  0  0  0
    2.5729   -7.0452    1.2745 O   0  0  0  0  0  0  0  0  0  0  0  0
    5.5266   -4.1937    2.0653 C   0  0  2  0  0  0  0  0  0  0  0  0
    5.0114   -3.6184    3.2083 O   0  0  0  0  0  0  0  0  0  0  0  0
    3.8466   -3.1291    2.6150 C   0  0  1  0  0  0  0  0  0  0  0  0
    2.7813   -3.0811    3.6906 C   0  0  1  0  0  0  0  0  0  0  0  0
    1.6298   -2.4112    3.2161 O   0  0  0  0  0  0  0  0  0  0  0  0
    4.5123   -2.1160    1.7863 C   0  0  2  0  0  0  0  0  0  0  0  0
    4.5257   -0.6873    2.2761 C   0  0  0  0  0  0  0  0  0  0  0  0
    3.3412    0.2152    1.9097 C   0  0  0  0  0  0  0  0  0  0  0  0
    5.4301   -0.2017    2.9501 O   0  0  0  0  0  0  0  0  0  0  0  0
    3.5328   -2.4555    0.8372 O   0  0  0  0  0  0  0  0  0  0  0  0
    3.4928   -3.8647    1.2594 C   0  0  2  0  0  0  0  0  0  0  0  0
    3.8132   -3.9224   -0.3754 C   0  0  2  0  0  0  0  0  0  0  0  0
    5.1042   -4.6520   -0.9111 C   0  0  0  0  0  0  0  0  0  0  0  0
    5.6664   -3.2657   -1.1612 C   0  0  2  0  0  0  0  0  0  0  0  0
    6.3754   -2.6081    0.0153 C   0  0  0  0  0  0  0  0  0  0  0  0
    7.3625   -1.8896   -0.1307 O   0  0  0  0  0  0  0  0  0  0  0  0
    5.8422   -2.7751    1.4625 C   0  0  2  0  0  0  0  0  0  0  0  0
    4.2231   -2.8254   -1.5004 C   0  0  0  0  0  0  0  0  0  0  0  0
    3.7376   -3.1581   -2.9362 C   0  0  0  0  0  0  0  0  0  0  0  0
    3.9340   -1.3016   -1.4450 C   0  0  0  0  0  0  0  0  0  0  0  0
    0.2863   -6.7485    2.4297 H   0  0  0  0  0  0  0  0  0  0  0  0
    0.0962   -5.9115    4.0598 H   0  0  0  0  0  0  0  0  0  0  0  0
    1.5550   -4.4060    4.8022 H   0  0  0  0  0  0  0  0  0  0  0  0
    5.6517   -6.4279    2.7803 H   0  0  0  0  0  0  0  0  0  0  0  0
    4.2031   -7.1549    2.7780 H   0  0  0  0  0  0  0  0  0  0  0  0
    2.0305   -5.3630    0.9715 H   0  0  0  0  0  0  0  0  0  0  0  0
    3.0982   -7.6394    1.8008 H   0  0  0  0  0  0  0  0  0  0  0  0
    6.4759   -4.7057    2.2204 H   0  0  0  0  0  0  0  0  0  0  0  0
    3.1497   -2.5323    4.5598 H   0  0  0  0  0  0  0  0  0  0  0  0
    1.9073   -1.6044    2.8046 H   0  0  0  0  0  0  0  0  0  0  0  0
    3.1058    0.1655    0.8432 H   0  0  0  0  0  0  0  0  0  0  0  0
    3.5827    1.2552    2.1474 H   0  0  0  0  0  0  0  0  0  0  0  0
    2.4488   -0.0441    2.4827 H   0  0  0  0  0  0  0  0  0  0  0  0
    2.9544   -4.4558   -0.7832 H   0  0  0  0  0  0  0  0  0  0  0  0
    5.7505   -5.2568   -0.2779 H   0  0  0  0  0  0  0  0  0  0  0  0
    4.9800   -5.2060   -1.8354 H   0  0  0  0  0  0  0  0  0  0  0  0
    6.2829   -3.2567   -2.0605 H   0  0  0  0  0  0  0  0  0  0  0  0
    6.6120   -2.3268    2.0887 H   0  0  0  0  0  0  0  0  0  0  0  0
    4.3637   -2.6690   -3.6831 H   0  0  0  0  0  0  0  0  0  0  0  0
    2.7056   -2.8377   -3.1031 H   0  0  0  0  0  0  0  0  0  0  0  0
    3.7666   -4.2157   -3.1875 H   0  0  0  0  0  0  0  0  0  0  0  0
    4.2309   -0.7837   -2.3588 H   0  0  0  0  0  0  0  0  0  0  0  0
    4.4656   -0.7909   -0.6438 H   0  0  0  0  0  0  0  0  0  0  0  0
    2.8725   -1.1133   -1.3017 H   0  0  0  0  0  0  0  0  0  0  0  0
  1  2  2  0
  1 31  1  0
  1 32  1  0
  2  9  1  0
  2  3  1  0
  3 14  1  0
  3  4  1  0
  3 33  1  1
  4  5  2  0
  4  6  1  0
  6  7  1  0
  8  7  1  1
  7 34  1  0
  7 35  1  0
  8 21  1  0
  8  9  1  0
  8 11  1  0
  9 10  1  0
  9 36  1  6
 10 37  1  0
 11 27  1  0
 11 12  1  0
 11 38  1  1
 13 12  1  1
 13 21  1  0
 13 14  1  0
 13 16  1  0
 14 15  1  0
 14 39  1  1
 15 40  1  0
 16 27  1  0
 16 17  1  1
 16 20  1  0
 17 18  1  0
 17 19  2  0
 18 41  1  0
 18 42  1  0
 18 43  1  0
 21 20  1  1
 21 22  1  0
 22 28  1  0
 22 23  1  0
 22 44  1  6
 23 24  1  0
 23 45  1  0
 23 46  1  0
 24 25  1  0
 24 28  1  0
 24 47  1  6
 25 26  2  0
 25 27  1  0
 27 48  1  1
 28 29  1  0
 28 30  1  0
 29 49  1  0
 29 50  1  0
 29 51  1  0
 30 52  1  0
 30 53  1  0
 30 54  1  0
M  END
>  <i_m_ct_stereo_status>  (351) 
1

>  <s_m_source_file>  (351) 
/var/tmp/pbs.5076255.sched01/tmpb6g28bo8/1236hu3uqnd.sdf

>  <i_m_source_file_index>  (351) 
27

>  <i_lp_mmshare_version>  (351) 
48012

>  <i_f3d_flags>  (351) 
2

>  <s_epik_input>  (351) 
W0NIMl0xT0MoPU8pW0NASF0oQyg9W0NIMl0pW0NAQEhdMltPSF0pW0NASF0oW09IXSlbQ0BAXTMoQzQ1QzEyNilbQ0BAXShPNCkoQyg9TylbQ0gzXSlbQ0BASF0oW0NASF02TzMpQyg9TylbQ0BIXTdbQ0gyXVtDQEBIXTVDNyhbQ0gzXSlbQ0gzXQ==

>  <s_epik_cmdline>  (351) 
J2VwaWtfcHl0aG9uJywgJy1waHQnLCAnMi4wJywgJy1waCcsICc3LjAnLCAnLXRuJywgJzgnLCAnLW1hJywgJzIwMCcsICctaW1hZScsICc8aW5maWxlLm1hZT4nLCAnLW9tYWUnLCAnPG91dGZpbGUubWFlPic=

>  <r_lp_tautomer_probability>  (351) 
1

>  <r_epik_Ionization_Penalty>  (351) 
6.37651e-05

>  <r_epik_Ionization_Penalty_Charging>  (351) 
0

>  <r_epik_Ionization_Penalty_Neutral>  (351) 
6.37651e-05

>  <r_epik_State_Penalty>  (351) 
-0

>  <r_epik_Charging_Adjusted_Penalty>  (351) 
0

>  <i_epik_Tot_Q>  (351) 
0

>  <i_epik_Tot_abs_Q>  (351) 
0

>  <s_epik_Chemistry_Notes>  (351) 
This compound has an ester and may undergo hydrolysis at high or low pH.

>  <s_lp_Force_Field>  (351) 
OPLS3e

>  <r_lp_Energy>  (351) 
345.739

>  <b_lp_Chiralities_Consistent>  (351) 
0

>  <s_lp_Variant>  (351) 
105:0-1

>  <s_i_glide_gridfile>  (351) 
pfpi4k_grid

>  <i_i_glide_lignum>  (351) 
27

>  <i_i_glide_rotatable_bonds>  (351) 
3

>  <r_i_docking_score>  (351) 
-2.62889

>  <r_i_glide_ligand_efficiency>  (351) 
-0.0876296

>  <r_i_glide_ligand_efficiency_sa>  (351) 
-0.272285

>  <r_i_glide_ligand_efficiency_ln>  (351) 
-0.597312

>  <r_i_glide_gscore>  (351) 
-2.62889

>  <r_i_glide_lipo>  (351) 
-0.304682

>  <r_i_glide_hbond>  (351) 
-0.204513

>  <r_i_glide_metal>  (351) 
-0

>  <r_i_glide_rewards>  (351) 
-0.725257

>  <r_i_glide_evdw>  (351) 
-22.2917

>  <r_i_glide_ecoul>  (351) 
-1.86566

>  <r_i_glide_erotb>  (351) 
0

>  <r_i_glide_esite>  (351) 
0

>  <r_i_glide_emodel>  (351) 
-27.7788

>  <r_i_glide_energy>  (351) 
-24.1574

>  <r_i_glide_einternal>  (351) 
0.726899

>  <r_i_glide_intrahb_reward>  (351) 
-0

>  <i_i_glide_confnum>  (351) 
2

>  <i_i_glide_posenum>  (351) 
17

>  <r_i_glide_eff_state_penalty>  (351) 
0

>  <ligand_id>  (351) 
105

>  <original_smiles>  (351) 
C=C1C2C(=O)OCC3(C1O)C1OC4(C2O)C2(C(C)=O)OC34C3CC(C(=O)C12)C3(C)C

>  <smiles>  (351) 
[H]OC1([H])C(=C([H])[H])C2([H])C(=O)OC([H])([H])C13C1([H])OC4(C2([H])O[H])C2(C(=O)C([H])([H])[H])OC43C3([H])C([H])([H])C([H])(C(=O)C12[H])C3(C([H])([H])[H])C([H])([H])[H]

$$$$
106:0:0
     RDKit          3D

 83 92  0  0  1  0  0  0  0  0999 V2000
    0.1330   -7.2246    1.6210 C   0  0  0  0  0  0  0  0  0  0  0  0
    0.6941   -6.8233    2.8680 O   0  0  0  0  0  0  0  0  0  0  0  0
    1.7344   -7.6085    3.4770 C   0  0  1  0  0  0  0  0  0  0  0  0
    1.5069   -9.1399    3.3208 C   0  0  0  0  0  0  0  0  0  0  0  0
    2.4638   -9.6185    2.2245 C   0  0  0  0  0  0  0  0  0  0  0  0
    3.6824   -8.6959    2.3496 C   0  0  1  0  0  0  0  0  0  0  0  0
    4.5749   -8.6834    1.0899 C   0  0  0  0  0  0  0  0  0  0  0  0
    5.3655   -9.8570    1.0175 O   0  0  0  0  0  0  0  0  0  0  0  0
    3.0795   -7.3164    2.7207 C   0  0  2  0  0  0  0  0  0  0  0  0
    4.0773   -6.3607    3.4452 C   0  0  0  0  0  0  0  0  0  0  0  0
    3.4034   -5.2334    4.2637 C   0  0  2  0  0  0  0  0  0  0  0  0
    4.2680   -4.9077    5.3909 O   0  0  0  0  0  0  0  0  0  0  0  0
    3.3781   -5.5973    6.2855 C   0  0  0  0  0  0  0  0  0  0  0  0
    2.3219   -5.7643    5.1781 C   0  0  1  0  0  0  0  0  0  0  0  0
    1.0555   -4.9312    5.2556 C   0  0  1  0  0  0  0  0  0  0  0  0
    0.1814   -5.7219    6.2177 C   0  0  0  0  0  0  0  0  0  0  0  0
    0.4411   -7.1840    5.7673 C   0  0  0  0  0  0  0  0  0  0  0  0
    1.7833   -7.1824    4.9877 C   0  0  1  0  0  0  0  0  0  0  0  0
    1.3812   -3.4390    5.4486 C   0  0  0  0  0  0  0  0  0  0  0  0
    2.0915   -2.8806    4.1696 C   0  0  1  0  0  0  0  0  0  0  0  0
    0.9646   -2.4228    3.2016 C   0  0  0  0  0  0  0  0  0  0  0  0
    3.0772   -1.7198    4.5090 C   0  0  2  0  0  0  0  0  0  0  0  0
    2.9828   -0.3428    3.7873 C   0  0  0  0  0  0  0  0  0  0  0  0
    4.2766   -0.2519    2.9540 C   0  0  1  0  0  0  0  0  0  0  0  0
    5.2899   -0.9923    3.8148 C   0  0  0  0  0  0  0  0  0  0  0  0
    4.4523   -2.2588    4.0753 C   0  0  2  0  0  0  0  0  0  0  0  0
    4.2056   -3.2071    2.9591 N   0  0  0  0  0  0  0  0  0  0  0  0
    3.0211   -3.9482    3.4533 C   0  0  1  0  0  0  0  0  0  0  0  0
    4.0011   -2.5172    1.6117 C   0  0  2  0  0  0  0  0  0  0  0  0
    3.3382   -3.2636    0.4656 C   0  0  0  0  0  0  0  0  0  0  0  0
    2.9640   -4.4300    0.6120 O   0  0  0  0  0  0  0  0  0  0  0  0
    3.1410   -2.6549   -0.7874 N   0  0  0  0  0  0  0  0  0  0  0  0
    2.3755   -3.3149   -1.8486 C   0  0  0  0  0  0  0  0  0  0  0  0
    3.2440   -3.4045   -3.1268 C   0  0  0  0  0  0  0  0  0  0  0  0
    3.7430   -2.1328   -3.5221 O   0  0  0  0  0  0  0  0  0  0  0  0
    4.5107   -1.5591   -2.4643 C   0  0  0  0  0  0  0  0  0  0  0  0
    3.6371   -1.3392   -1.2432 C   0  0  0  0  0  0  0  0  0  0  0  0
    5.5946   -1.8400    1.0008 S   0  0  0  0  0  0  0  0  0  0  0  0
    4.0777   -0.9995    1.6728 C   0  0  2  0  0  0  0  0  0  0  0  0
   -0.4908   -6.4102    1.2556 H   0  0  0  0  0  0  0  0  0  0  0  0
   -0.5245   -8.0871    1.7274 H   0  0  0  0  0  0  0  0  0  0  0  0
    0.8769   -7.4360    0.8533 H   0  0  0  0  0  0  0  0  0  0  0  0
    1.7620   -9.6683    4.2392 H   0  0  0  0  0  0  0  0  0  0  0  0
    0.4758   -9.4221    3.1147 H   0  0  0  0  0  0  0  0  0  0  0  0
    2.7187  -10.6757    2.3320 H   0  0  0  0  0  0  0  0  0  0  0  0
    1.9939   -9.5080    1.2461 H   0  0  0  0  0  0  0  0  0  0  0  0
    4.2795   -9.0629    3.1874 H   0  0  0  0  0  0  0  0  0  0  0  0
    3.9820   -8.5853    0.1802 H   0  0  0  0  0  0  0  0  0  0  0  0
    5.2489   -7.8263    1.1130 H   0  0  0  0  0  0  0  0  0  0  0  0
    4.7995  -10.6153    0.8698 H   0  0  0  0  0  0  0  0  0  0  0  0
    2.8259   -6.8284    1.7827 H   0  0  0  0  0  0  0  0  0  0  0  0
    4.6473   -6.9694    4.1467 H   0  0  0  0  0  0  0  0  0  0  0  0
    4.8218   -5.9668    2.7563 H   0  0  0  0  0  0  0  0  0  0  0  0
    3.8160   -6.5293    6.6400 H   0  0  0  0  0  0  0  0  0  0  0  0
    3.0714   -4.9934    7.1382 H   0  0  0  0  0  0  0  0  0  0  0  0
    0.5227   -4.9809    4.3078 H   0  0  0  0  0  0  0  0  0  0  0  0
    0.5268   -5.5636    7.2398 H   0  0  0  0  0  0  0  0  0  0  0  0
   -0.8724   -5.4505    6.1627 H   0  0  0  0  0  0  0  0  0  0  0  0
    0.4923   -7.8468    6.6315 H   0  0  0  0  0  0  0  0  0  0  0  0
   -0.3691   -7.5429    5.1361 H   0  0  0  0  0  0  0  0  0  0  0  0
    2.4611   -7.8782    5.4821 H   0  0  0  0  0  0  0  0  0  0  0  0
    0.4802   -2.8703    5.6729 H   0  0  0  0  0  0  0  0  0  0  0  0
    2.0104   -3.3133    6.3242 H   0  0  0  0  0  0  0  0  0  0  0  0
    1.3352   -1.9904    2.2724 H   0  0  0  0  0  0  0  0  0  0  0  0
    0.2963   -1.6917    3.6548 H   0  0  0  0  0  0  0  0  0  0  0  0
    0.3396   -3.2557    2.8994 H   0  0  0  0  0  0  0  0  0  0  0  0
    3.0929   -1.5213    5.5758 H   0  0  0  0  0  0  0  0  0  0  0  0
    2.0844   -0.1570    3.1899 H   0  0  0  0  0  0  0  0  0  0  0  0
    3.0033    0.4555    4.5227 H   0  0  0  0  0  0  0  0  0  0  0  0
    4.5467    0.7855    2.7410 H   0  0  0  0  0  0  0  0  0  0  0  0
    6.2792   -1.1528    3.3833 H   0  0  0  0  0  0  0  0  0  0  0  0
    5.4682   -0.4247    4.7220 H   0  0  0  0  0  0  0  0  0  0  0  0
    4.9487   -2.7663    4.8907 H   0  0  0  0  0  0  0  0  0  0  0  0
    2.3992   -4.3400    2.6740 H   0  0  0  0  0  0  0  0  0  0  0  0
    2.0124   -4.3237   -1.5882 H   0  0  0  0  0  0  0  0  0  0  0  0
    1.4521   -2.7625   -2.0658 H   0  0  0  0  0  0  0  0  0  0  0  0
    4.0875   -4.0710   -2.9545 H   0  0  0  0  0  0  0  0  0  0  0  0
    2.6645   -3.7824   -3.9533 H   0  0  0  0  0  0  0  0  0  0  0  0
    5.3751   -2.1963   -2.2027 H   0  0  0  0  0  0  0  0  0  0  0  0
    4.9230   -0.5830   -2.7297 H   0  0  0  0  0  0  0  0  0  0  0  0
    2.7612   -0.6812   -1.4091 H   0  0  0  0  0  0  0  0  0  0  0  0
    4.3208   -0.7908   -0.6309 H   0  0  0  0  0  0  0  0  0  0  0  0
    3.4334   -0.5047    0.9578 H   0  0  0  0  0  0  0  0  0  0  0  0
  1  2  1  0
  1 40  1  0
  1 41  1  0
  1 42  1  0
  3  2  1  6
  3  9  1  0
  3 18  1  0
  3  4  1  0
  4  5  1  0
  4 43  1  0
  4 44  1  0
  5  6  1  0
  5 45  1  0
  5 46  1  0
  6  7  1  0
  6  9  1  0
  6 47  1  1
  7  8  1  0
  7 48  1  0
  7 49  1  0
  8 50  1  0
  9 10  1  0
  9 51  1  6
 10 11  1  0
 10 52  1  0
 10 53  1  0
 11 14  1  0
 11 28  1  0
 11 12  1  1
 12 13  1  0
 14 13  1  1
 13 54  1  0
 13 55  1  0
 14 18  1  0
 14 15  1  0
 15 16  1  0
 15 19  1  0
 15 56  1  6
 16 17  1  0
 16 57  1  0
 16 58  1  0
 17 18  1  0
 17 59  1  0
 17 60  1  0
 18 61  1  1
 19 20  1  0
 19 62  1  0
 19 63  1  0
 20 28  1  0
 20 21  1  6
 20 22  1  0
 21 64  1  0
 21 65  1  0
 21 66  1  0
 22 26  1  0
 22 23  1  0
 22 67  1  1
 23 24  1  0
 23 68  1  0
 23 69  1  0
 24 39  1  0
 24 25  1  0
 24 70  1  6
 25 26  1  0
 25 71  1  0
 25 72  1  0
 26 27  1  0
 26 73  1  1
 27 28  1  0
 27 29  1  0
 28 74  1  6
 29 39  1  0
 29 30  1  6
 29 38  1  0
 30 31  2  0
 30 32  1  0
 32 37  1  0
 32 33  1  0
 33 34  1  0
 33 75  1  0
 33 76  1  0
 34 35  1  0
 34 77  1  0
 34 78  1  0
 35 36  1  0
 36 37  1  0
 36 79  1  0
 36 80  1  0
 37 81  1  0
 37 82  1  0
 38 39  1  0
 39 83  1  6
M  END
>  <i_m_ct_stereo_status>  (352) 
1

>  <s_m_source_file>  (352) 
/var/tmp/pbs.5076255.sched01/tmpb6g28bo8/1236hu3uqnd.sdf

>  <i_m_source_file_index>  (352) 
28

>  <i_lp_mmshare_version>  (352) 
48012

>  <i_f3d_flags>  (352) 
2

>  <s_epik_input>  (352) 
W0NIMl0xW0NIMl1bQ0BASF0oW0NIMl1bT0hdKVtDQEhdKFtDSDJdMilbQ0BdMShPW0NIM10pW0NAQEhdM1tDSDJdW0NIMl1bQ0BIXShbQ0BAXTMoW0NAXTI0NSlbQ0gyXU80KVtDSDJdW0NAQF02KFtDSDNdKVtDQEBIXTdbQ0BASF04TihbQ0BASF01NilbQ0BdOShbQ0BIXShTOSlbQ0BASF0oW0NIMl03KVtDSDJdOClDKD1PKU4xW0NIMl1bQ0gyXU9bQ0gyXVtDSDJdMQ==

>  <s_epik_cmdline>  (352) 
J2VwaWtfcHl0aG9uJywgJy1waHQnLCAnMi4wJywgJy1waCcsICc3LjAnLCAnLXRuJywgJzgnLCAnLW1hJywgJzIwMCcsICctaW1hZScsICc8aW5maWxlLm1hZT4nLCAnLW9tYWUnLCAnPG91dGZpbGUubWFlPic=

>  <r_epik_Ionization_Penalty>  (352) 
0.104199

>  <r_epik_Ionization_Penalty_Charging>  (352) 
0

>  <r_epik_Ionization_Penalty_Neutral>  (352) 
0.104199

>  <r_epik_State_Penalty>  (352) 
0.0941081

>  <r_epik_Charging_Adjusted_Penalty>  (352) 
0.0941081

>  <i_epik_Tot_Q>  (352) 
0

>  <i_epik_Tot_abs_Q>  (352) 
0

>  <s_lp_Force_Field>  (352) 
OPLS3e

>  <r_lp_Energy>  (352) 
99.7783

>  <b_lp_Chiralities_Consistent>  (352) 
0

>  <s_lp_Variant>  (352) 
106:0-1

>  <s_i_glide_gridfile>  (352) 
pfpi4k_grid

>  <i_i_glide_lignum>  (352) 
28

>  <i_i_glide_rotatable_bonds>  (352) 
5

>  <r_i_docking_score>  (352) 
-3.05373

>  <r_i_glide_ligand_efficiency>  (352) 
-0.0783007

>  <r_i_glide_ligand_efficiency_sa>  (352) 
-0.265534

>  <r_i_glide_ligand_efficiency_ln>  (352) 
-0.654806

>  <r_i_glide_gscore>  (352) 
-3.05373

>  <r_i_glide_lipo>  (352) 
-0.510453

>  <r_i_glide_hbond>  (352) 
-0.16

>  <r_i_glide_metal>  (352) 
-0

>  <r_i_glide_rewards>  (352) 
0

>  <r_i_glide_evdw>  (352) 
-27.8522

>  <r_i_glide_ecoul>  (352) 
-7.06124

>  <r_i_glide_erotb>  (352) 
0.124951

>  <r_i_glide_esite>  (352) 
-0.0564261

>  <r_i_glide_emodel>  (352) 
-26.0441

>  <r_i_glide_energy>  (352) 
-34.9135

>  <r_i_glide_einternal>  (352) 
24.6601

>  <r_i_glide_intrahb_reward>  (352) 
-0

>  <i_i_glide_confnum>  (352) 
4

>  <i_i_glide_posenum>  (352) 
11

>  <r_i_glide_eff_state_penalty>  (352) 
0

>  <ligand_id>  (352) 
106

>  <original_smiles>  (352) 
COC12CCC(CO)C1CC13OCC14C(CCC24)CC1(C)C2CC4CC2N(C13)C1(C(=O)N2CCOCC2)SC41

>  <smiles>  (352) 
[H]OC([H])([H])C1([H])C([H])([H])C([H])([H])C2(OC([H])([H])[H])C1([H])C([H])([H])C13OC([H])([H])C14C([H])(C([H])([H])C([H])([H])C24[H])C([H])([H])C1(C([H])([H])[H])C3([H])N2C3(C(=O)N4C([H])([H])C([H])([H])OC([H])([H])C4([H])[H])SC3([H])C3([H])C([H])([H])C2([H])C1([H])C3([H])[H]

$$$$
106:0:1
     RDKit          3D

 83 92  0  0  1  0  0  0  0  0999 V2000
    0.3892   -6.6845    1.1076 C   0  0  0  0  0  0  0  0  0  0  0  0
    0.9436   -6.1519    2.3069 O   0  0  0  0  0  0  0  0  0  0  0  0
    1.8703   -6.9375    3.0782 C   0  0  1  0  0  0  0  0  0  0  0  0
    1.4500   -8.4305    3.1784 C   0  0  0  0  0  0  0  0  0  0  0  0
    2.3562   -9.2107    2.2208 C   0  0  0  0  0  0  0  0  0  0  0  0
    3.6810   -8.4394    2.2336 C   0  0  1  0  0  0  0  0  0  0  0  0
    4.5881   -8.7508    1.0222 C   0  0  0  0  0  0  0  0  0  0  0  0
    5.3892   -9.8890    1.2605 O   0  0  0  0  0  0  0  0  0  0  0  0
    3.2559   -6.9517    2.3387 C   0  0  2  0  0  0  0  0  0  0  0  0
    4.3561   -6.0164    2.9259 C   0  0  0  0  0  0  0  0  0  0  0  0
    3.8210   -4.6888    3.5157 C   0  0  2  0  0  0  0  0  0  0  0  0
    4.6993   -4.2818    4.6019 O   0  0  0  0  0  0  0  0  0  0  0  0
    3.7110   -4.6856    5.5659 C   0  0  0  0  0  0  0  0  0  0  0  0
    2.6630   -4.9113    4.4593 C   0  0  1  0  0  0  0  0  0  0  0  0
    1.5153   -3.9258    4.3409 C   0  0  1  0  0  0  0  0  0  0  0  0
    0.5288   -4.4197    5.3890 C   0  0  0  0  0  0  0  0  0  0  0  0
    0.6024   -5.9592    5.2065 C   0  0  0  0  0  0  0  0  0  0  0  0
    1.9480   -6.2612    4.4931 C   0  0  1  0  0  0  0  0  0  0  0  0
    2.0286   -2.4742    4.2882 C   0  0  0  0  0  0  0  0  0  0  0  0
    2.8302   -2.2411    2.9671 C   0  0  1  0  0  0  0  0  0  0  0  0
    1.8004   -1.8117    1.8881 C   0  0  0  0  0  0  0  0  0  0  0  0
    3.9474   -1.1742    3.1369 C   0  0  2  0  0  0  0  0  0  0  0  0
    4.0461    0.0467    2.1729 C   0  0  0  0  0  0  0  0  0  0  0  0
    5.3498   -0.1689    1.3786 C   0  0  1  0  0  0  0  0  0  0  0  0
    6.2127   -0.8483    2.4277 C   0  0  0  0  0  0  0  0  0  0  0  0
    5.2414   -1.9471    2.8568 C   0  0  2  0  0  0  0  0  0  0  0  0
    4.8949   -3.0409    1.9178 N   0  0  0  0  0  0  0  0  0  0  0  0
    3.6217   -3.5279    2.4739 C   0  0  1  0  0  0  0  0  0  0  0  0
    4.8369   -2.5886    0.4563 C   0  0  2  0  0  0  0  0  0  0  0  0
    4.0610   -3.4093   -0.5877 C   0  0  0  0  0  0  0  0  0  0  0  0
    3.5515   -4.4878   -0.2399 O   0  0  0  0  0  0  0  0  0  0  0  0
    3.9542   -2.9841   -1.8707 N   0  0  0  0  0  0  0  0  0  0  0  0
    4.8117   -2.0385   -2.6473 C   0  0  0  0  0  0  0  0  0  0  0  0
    3.9153   -0.9585   -3.2420 C   0  0  0  0  0  0  0  0  0  0  0  0
    3.0064   -1.5417   -4.1592 O   0  0  0  0  0  0  0  0  0  0  0  0
    2.1509   -2.4400   -3.4761 C   0  0  0  0  0  0  0  0  0  0  0  0
    2.9343   -3.5602   -2.7937 C   0  0  0  0  0  0  0  0  0  0  0  0
    6.5190   -2.2641   -0.1717 S   0  0  0  0  0  0  0  0  0  0  0  0
    5.1043   -1.1284    0.2481 C   0  0  2  0  0  0  0  0  0  0  0  0
   -0.1158   -5.8807    0.5776 H   0  0  0  0  0  0  0  0  0  0  0  0
   -0.3683   -7.4415    1.3091 H   0  0  0  0  0  0  0  0  0  0  0  0
    1.1316   -7.0918    0.4252 H   0  0  0  0  0  0  0  0  0  0  0  0
    1.6190   -8.8170    4.1831 H   0  0  0  0  0  0  0  0  0  0  0  0
    0.3952   -8.6125    2.9798 H   0  0  0  0  0  0  0  0  0  0  0  0
    2.4713  -10.2558    2.5176 H   0  0  0  0  0  0  0  0  0  0  0  0
    1.9223   -9.2160    1.2205 H   0  0  0  0  0  0  0  0  0  0  0  0
    4.2103   -8.7196    3.1472 H   0  0  0  0  0  0  0  0  0  0  0  0
    4.0125   -8.9034    0.1084 H   0  0  0  0  0  0  0  0  0  0  0  0
    5.2652   -7.9181    0.8340 H   0  0  0  0  0  0  0  0  0  0  0  0
    4.8945  -10.6847    1.0414 H   0  0  0  0  0  0  0  0  0  0  0  0
    3.0896   -6.6059    1.3209 H   0  0  0  0  0  0  0  0  0  0  0  0
    4.8315   -6.5592    3.7457 H   0  0  0  0  0  0  0  0  0  0  0  0
    5.1586   -5.8435    2.2120 H   0  0  0  0  0  0  0  0  0  0  0  0
    4.0192   -5.5897    6.0907 H   0  0  0  0  0  0  0  0  0  0  0  0
    3.4703   -3.9051    6.2876 H   0  0  0  0  0  0  0  0  0  0  0  0
    0.9978   -4.0740    3.3952 H   0  0  0  0  0  0  0  0  0  0  0  0
    0.8726   -4.1297    6.3820 H   0  0  0  0  0  0  0  0  0  0  0  0
   -0.4786   -4.0301    5.2472 H   0  0  0  0  0  0  0  0  0  0  0  0
    0.5519   -6.4608    6.1732 H   0  0  0  0  0  0  0  0  0  0  0  0
   -0.2360   -6.3191    4.6133 H   0  0  0  0  0  0  0  0  0  0  0  0
    2.5209   -6.9394    5.1276 H   0  0  0  0  0  0  0  0  0  0  0  0
    1.2031   -1.7688    4.3736 H   0  0  0  0  0  0  0  0  0  0  0  0
    2.6516   -2.2758    5.1559 H   0  0  0  0  0  0  0  0  0  0  0  0
    2.2325   -1.6118    0.9084 H   0  0  0  0  0  0  0  0  0  0  0  0
    1.2166   -0.9383    2.1795 H   0  0  0  0  0  0  0  0  0  0  0  0
    1.0836   -2.5960    1.7373 H   0  0  0  0  0  0  0  0  0  0  0  0
    3.9707   -0.7923    4.1520 H   0  0  0  0  0  0  0  0  0  0  0  0
    3.1876    0.2474    1.5258 H   0  0  0  0  0  0  0  0  0  0  0  0
    4.1550    0.9406    2.7825 H   0  0  0  0  0  0  0  0  0  0  0  0
    5.7786    0.7393    0.9500 H   0  0  0  0  0  0  0  0  0  0  0  0
    7.1787   -1.1862    2.0660 H   0  0  0  0  0  0  0  0  0  0  0  0
    6.4675   -0.1591    3.2309 H   0  0  0  0  0  0  0  0  0  0  0  0
    5.6609   -2.3612    3.7744 H   0  0  0  0  0  0  0  0  0  0  0  0
    2.9685   -3.9696    1.7538 H   0  0  0  0  0  0  0  0  0  0  0  0
    5.5035   -1.4358   -2.0850 H   0  0  0  0  0  0  0  0  0  0  0  0
    5.4197   -2.5993   -3.3577 H   0  0  0  0  0  0  0  0  0  0  0  0
    3.4021   -0.3884   -2.4554 H   0  0  0  0  0  0  0  0  0  0  0  0
    4.5359   -0.2329   -3.7544 H   0  0  0  0  0  0  0  0  0  0  0  0
    1.6202   -1.9106   -2.6979 H   0  0  0  0  0  0  0  0  0  0  0  0
    1.4227   -2.8349   -4.1813 H   0  0  0  0  0  0  0  0  0  0  0  0
    3.4290   -4.1797   -3.5422 H   0  0  0  0  0  0  0  0  0  0  0  0
    2.1977   -4.2062   -2.2812 H   0  0  0  0  0  0  0  0  0  0  0  0
    4.5578   -0.6623   -0.5777 H   0  0  0  0  0  0  0  0  0  0  0  0
  1  2  1  0
  1 40  1  0
  1 41  1  0
  1 42  1  0
  3  2  1  6
  3  9  1  0
  3 18  1  0
  3  4  1  0
  4  5  1  0
  4 43  1  0
  4 44  1  0
  5  6  1  0
  5 45  1  0
  5 46  1  0
  6  7  1  0
  6  9  1  0
  6 47  1  1
  7  8  1  0
  7 48  1  0
  7 49  1  0
  8 50  1  0
  9 10  1  0
  9 51  1  6
 10 11  1  0
 10 52  1  0
 10 53  1  0
 11 14  1  0
 11 28  1  0
 11 12  1  1
 12 13  1  0
 14 13  1  1
 13 54  1  0
 13 55  1  0
 14 18  1  0
 14 15  1  0
 15 16  1  0
 15 19  1  0
 15 56  1  6
 16 17  1  0
 16 57  1  0
 16 58  1  0
 17 18  1  0
 17 59  1  0
 17 60  1  0
 18 61  1  1
 19 20  1  0
 19 62  1  0
 19 63  1  0
 20 28  1  0
 20 21  1  6
 20 22  1  0
 21 64  1  0
 21 65  1  0
 21 66  1  0
 22 26  1  0
 22 23  1  0
 22 67  1  1
 23 24  1  0
 23 68  1  0
 23 69  1  0
 24 39  1  0
 24 25  1  0
 24 70  1  6
 25 26  1  0
 25 71  1  0
 25 72  1  0
 26 27  1  0
 26 73  1  1
 27 28  1  0
 27 29  1  0
 28 74  1  6
 29 39  1  0
 29 30  1  6
 29 38  1  0
 30 31  2  0
 30 32  1  0
 32 37  1  0
 32 33  1  0
 33 34  1  0
 33 75  1  0
 33 76  1  0
 34 35  1  0
 34 77  1  0
 34 78  1  0
 35 36  1  0
 36 37  1  0
 36 79  1  0
 36 80  1  0
 37 81  1  0
 37 82  1  0
 38 39  1  0
 39 83  1  6
M  END
>  <i_m_ct_stereo_status>  (353) 
1

>  <s_m_source_file>  (353) 
/var/tmp/pbs.5076255.sched01/tmpb6g28bo8/1236hu3uqnd.sdf

>  <i_m_source_file_index>  (353) 
28

>  <i_lp_mmshare_version>  (353) 
48012

>  <i_f3d_flags>  (353) 
2

>  <s_epik_input>  (353) 
W0NIMl0xW0NIMl1bQ0BASF0oW0NIMl1bT0hdKVtDQEhdKFtDSDJdMilbQ0BdMShPW0NIM10pW0NAQEhdM1tDSDJdW0NIMl1bQ0BIXShbQ0BAXTMoW0NAXTI0NSlbQ0gyXU80KVtDSDJdW0NAQF02KFtDSDNdKVtDQEBIXTdbQ0BASF04TihbQ0BASF01NilbQ0BdOShbQ0BIXShTOSlbQ0BASF0oW0NIMl03KVtDSDJdOClDKD1PKU4xW0NIMl1bQ0gyXU9bQ0gyXVtDSDJdMQ==

>  <s_epik_cmdline>  (353) 
J2VwaWtfcHl0aG9uJywgJy1waHQnLCAnMi4wJywgJy1waCcsICc3LjAnLCAnLXRuJywgJzgnLCAnLW1hJywgJzIwMCcsICctaW1hZScsICc8aW5maWxlLm1hZT4nLCAnLW9tYWUnLCAnPG91dGZpbGUubWFlPic=

>  <r_epik_Ionization_Penalty>  (353) 
0.104199

>  <r_epik_Ionization_Penalty_Charging>  (353) 
0

>  <r_epik_Ionization_Penalty_Neutral>  (353) 
0.104199

>  <r_epik_State_Penalty>  (353) 
0.0941081

>  <r_epik_Charging_Adjusted_Penalty>  (353) 
0.0941081

>  <i_epik_Tot_Q>  (353) 
0

>  <i_epik_Tot_abs_Q>  (353) 
0

>  <s_lp_Force_Field>  (353) 
OPLS3e

>  <r_lp_Energy>  (353) 
99.7783

>  <b_lp_Chiralities_Consistent>  (353) 
0

>  <s_lp_Variant>  (353) 
106:0-1

>  <s_i_glide_gridfile>  (353) 
pfpi4k_grid

>  <i_i_glide_lignum>  (353) 
28

>  <i_i_glide_rotatable_bonds>  (353) 
5

>  <r_i_docking_score>  (353) 
-2.92789

>  <r_i_glide_ligand_efficiency>  (353) 
-0.0750741

>  <r_i_glide_ligand_efficiency_sa>  (353) 
-0.254592

>  <r_i_glide_ligand_efficiency_ln>  (353) 
-0.627823

>  <r_i_glide_gscore>  (353) 
-2.92789

>  <r_i_glide_lipo>  (353) 
-0.816398

>  <r_i_glide_hbond>  (353) 
-0.169748

>  <r_i_glide_metal>  (353) 
-0

>  <r_i_glide_rewards>  (353) 
-0.0581209

>  <r_i_glide_evdw>  (353) 
-27.0158

>  <r_i_glide_ecoul>  (353) 
-4.5492

>  <r_i_glide_erotb>  (353) 
0.124951

>  <r_i_glide_esite>  (353) 
-0.0185074

>  <r_i_glide_emodel>  (353) 
-21.1211

>  <r_i_glide_energy>  (353) 
-31.565

>  <r_i_glide_einternal>  (353) 
26.9939

>  <r_i_glide_intrahb_reward>  (353) 
-0

>  <i_i_glide_confnum>  (353) 
4

>  <i_i_glide_posenum>  (353) 
27

>  <r_i_glide_eff_state_penalty>  (353) 
0

>  <ligand_id>  (353) 
106

>  <original_smiles>  (353) 
COC12CCC(CO)C1CC13OCC14C(CCC24)CC1(C)C2CC4CC2N(C13)C1(C(=O)N2CCOCC2)SC41

>  <smiles>  (353) 
[H]OC([H])([H])C1([H])C([H])([H])C([H])([H])C2(OC([H])([H])[H])C1([H])C([H])([H])C13OC([H])([H])C14C([H])(C([H])([H])C([H])([H])C24[H])C([H])([H])C1(C([H])([H])[H])C3([H])N2C3(C(=O)N4C([H])([H])C([H])([H])OC([H])([H])C4([H])[H])SC3([H])C3([H])C([H])([H])C2([H])C1([H])C3([H])[H]

$$$$
106:0:2
     RDKit          3D

 83 92  0  0  1  0  0  0  0  0999 V2000
    1.3057   -7.7116    2.4551 C   0  0  0  0  0  0  0  0  0  0  0  0
    1.2237   -7.3663    3.8360 O   0  0  0  0  0  0  0  0  0  0  0  0
    0.9316   -8.3671    4.8200 C   0  0  1  0  0  0  0  0  0  0  0  0
   -0.2344   -9.2851    4.3793 C   0  0  0  0  0  0  0  0  0  0  0  0
    0.4060  -10.6127    3.9500 C   0  0  0  0  0  0  0  0  0  0  0  0
    1.6470  -10.7540    4.8353 C   0  0  1  0  0  0  0  0  0  0  0  0
    2.6877  -11.7536    4.2871 C   0  0  0  0  0  0  0  0  0  0  0  0
    3.5634  -12.1833    5.3085 O   0  0  0  0  0  0  0  0  0  0  0  0
    2.1709   -9.3054    4.9826 C   0  0  2  0  0  0  0  0  0  0  0  0
    3.0692   -9.0566    6.2315 C   0  0  0  0  0  0  0  0  0  0  0  0
    3.1758   -7.5727    6.6658 C   0  0  2  0  0  0  0  0  0  0  0  0
    3.3379   -7.5319    8.1112 O   0  0  0  0  0  0  0  0  0  0  0  0
    1.9796   -7.1112    8.2806 C   0  0  0  0  0  0  0  0  0  0  0  0
    1.8184   -6.9154    6.7612 C   0  0  1  0  0  0  0  0  0  0  0  0
    1.7452   -5.4978    6.2122 C   0  0  1  0  0  0  0  0  0  0  0  0
    0.3040   -5.1141    6.4321 C   0  0  0  0  0  0  0  0  0  0  0  0
   -0.3837   -6.4013    5.9818 C   0  0  0  0  0  0  0  0  0  0  0  0
    0.5972   -7.5894    6.1420 C   0  0  1  0  0  0  0  0  0  0  0  0
    2.9009   -4.6330    6.7285 C   0  0  0  0  0  0  0  0  0  0  0  0
    4.2484   -5.1603    6.1230 C   0  0  1  0  0  0  0  0  0  0  0  0
    4.4203   -4.4454    4.7469 C   0  0  0  0  0  0  0  0  0  0  0  0
    5.4515   -4.9080    7.0867 C   0  0  2  0  0  0  0  0  0  0  0  0
    6.7313   -4.1667    6.5965 C   0  0  0  0  0  0  0  0  0  0  0  0
    7.8372   -5.2274    6.6312 C   0  0  1  0  0  0  0  0  0  0  0  0
    7.4368   -6.1054    7.7864 C   0  0  0  0  0  0  0  0  0  0  0  0
    5.9714   -6.3165    7.4227 C   0  0  2  0  0  0  0  0  0  0  0  0
    5.6685   -7.1872    6.2523 N   0  0  0  0  0  0  0  0  0  0  0  0
    4.2885   -6.7363    5.9472 C   0  0  1  0  0  0  0  0  0  0  0  0
    6.6855   -7.0760    5.1351 C   0  0  2  0  0  0  0  0  0  0  0  0
    6.2593   -7.4915    3.7086 C   0  0  0  0  0  0  0  0  0  0  0  0
    5.1582   -8.0028    3.4762 O   0  0  0  0  0  0  0  0  0  0  0  0
    7.1014   -7.3190    2.6513 N   0  0  0  0  0  0  0  0  0  0  0  0
    8.5101   -6.9345    2.6208 C   0  0  0  0  0  0  0  0  0  0  0  0
    8.7609   -5.6712    1.8313 C   0  0  0  0  0  0  0  0  0  0  0  0
    8.3953   -5.9681    0.5048 O   0  0  0  0  0  0  0  0  0  0  0  0
    7.0024   -6.2615    0.4623 C   0  0  0  0  0  0  0  0  0  0  0  0
    6.6842   -7.5501    1.2676 C   0  0  0  0  0  0  0  0  0  0  0  0
    8.3025   -7.8158    5.5799 S   0  0  0  0  0  0  0  0  0  0  0  0
    7.7747   -6.0436    5.3720 C   0  0  2  0  0  0  0  0  0  0  0  0
    1.7250   -6.8613    1.9168 H   0  0  0  0  0  0  0  0  0  0  0  0
    0.3232   -7.9020    2.0255 H   0  0  0  0  0  0  0  0  0  0  0  0
    1.9458   -8.5677    2.2482 H   0  0  0  0  0  0  0  0  0  0  0  0
   -0.9049   -9.4493    5.2255 H   0  0  0  0  0  0  0  0  0  0  0  0
   -0.8734   -8.8772    3.5975 H   0  0  0  0  0  0  0  0  0  0  0  0
   -0.2583  -11.4591    4.0782 H   0  0  0  0  0  0  0  0  0  0  0  0
    0.6726  -10.5773    2.8924 H   0  0  0  0  0  0  0  0  0  0  0  0
    1.2888  -11.1110    5.7968 H   0  0  0  0  0  0  0  0  0  0  0  0
    2.2080  -12.6329    3.8635 H   0  0  0  0  0  0  0  0  0  0  0  0
    3.2739  -11.2994    3.4883 H   0  0  0  0  0  0  0  0  0  0  0  0
    3.0539  -12.6234    5.9829 H   0  0  0  0  0  0  0  0  0  0  0  0
    2.8140   -9.1266    4.1315 H   0  0  0  0  0  0  0  0  0  0  0  0
    2.5926   -9.5876    7.0502 H   0  0  0  0  0  0  0  0  0  0  0  0
    4.0410   -9.5459    6.1206 H   0  0  0  0  0  0  0  0  0  0  0  0
    1.3723   -7.9084    8.7172 H   0  0  0  0  0  0  0  0  0  0  0  0
    1.8778   -6.2100    8.8934 H   0  0  0  0  0  0  0  0  0  0  0  0
    1.8456   -5.4999    5.1276 H   0  0  0  0  0  0  0  0  0  0  0  0
    0.1090   -4.9029    7.4908 H   0  0  0  0  0  0  0  0  0  0  0  0
   -0.0525   -4.2732    5.8452 H   0  0  0  0  0  0  0  0  0  0  0  0
   -1.1439   -6.3532    6.6731 H   0  0  0  0  0  0  0  0  0  0  0  0
   -0.8563   -6.3601    5.0059 H   0  0  0  0  0  0  0  0  0  0  0  0
    0.1987   -8.3274    6.8458 H   0  0  0  0  0  0  0  0  0  0  0  0
    2.7494   -3.5756    6.5040 H   0  0  0  0  0  0  0  0  0  0  0  0
    2.9069   -4.6690    7.8124 H   0  0  0  0  0  0  0  0  0  0  0  0
    5.3520   -4.7079    4.2471 H   0  0  0  0  0  0  0  0  0  0  0  0
    4.4049   -3.3588    4.8442 H   0  0  0  0  0  0  0  0  0  0  0  0
    3.6274   -4.7073    4.0458 H   0  0  0  0  0  0  0  0  0  0  0  0
    5.1233   -4.4198    8.0045 H   0  0  0  0  0  0  0  0  0  0  0  0
    6.6564   -3.6537    5.6379 H   0  0  0  0  0  0  0  0  0  0  0  0
    6.9951   -3.3889    7.3107 H   0  0  0  0  0  0  0  0  0  0  0  0
    8.8365   -4.8025    6.7189 H   0  0  0  0  0  0  0  0  0  0  0  0
    7.9982   -7.0243    7.9259 H   0  0  0  0  0  0  0  0  0  0  0  0
    7.5436   -5.5455    8.7113 H   0  0  0  0  0  0  0  0  0  0  0  0
    5.4886   -6.7188    8.3046 H   0  0  0  0  0  0  0  0  0  0  0  0
    4.0055   -6.8538    4.9208 H   0  0  0  0  0  0  0  0  0  0  0  0
    8.9712   -6.7050    3.5442 H   0  0  0  0  0  0  0  0  0  0  0  0
    9.1666   -7.7585    2.4640 H   0  0  0  0  0  0  0  0  0  0  0  0
    8.1867   -4.8156    2.1964 H   0  0  0  0  0  0  0  0  0  0  0  0
    9.8146   -5.4050    1.8863 H   0  0  0  0  0  0  0  0  0  0  0  0
    6.3964   -5.4284    0.7962 H   0  0  0  0  0  0  0  0  0  0  0  0
    6.6887   -6.2472   -0.5024 H   0  0  0  0  0  0  0  0  0  0  0  0
    7.2134   -8.4319    0.8801 H   0  0  0  0  0  0  0  0  0  0  0  0
    5.6135   -7.7837    1.1579 H   0  0  0  0  0  0  0  0  0  0  0  0
    8.0399   -5.4055    4.5432 H   0  0  0  0  0  0  0  0  0  0  0  0
  1  2  1  0
  1 40  1  0
  1 41  1  0
  1 42  1  0
  3  2  1  6
  3  9  1  0
  3 18  1  0
  3  4  1  0
  4  5  1  0
  4 43  1  0
  4 44  1  0
  5  6  1  0
  5 45  1  0
  5 46  1  0
  6  7  1  0
  6  9  1  0
  6 47  1  1
  7  8  1  0
  7 48  1  0
  7 49  1  0
  8 50  1  0
  9 10  1  0
  9 51  1  6
 10 11  1  0
 10 52  1  0
 10 53  1  0
 11 14  1  0
 11 28  1  0
 11 12  1  1
 12 13  1  0
 14 13  1  1
 13 54  1  0
 13 55  1  0
 14 18  1  0
 14 15  1  0
 15 16  1  0
 15 19  1  0
 15 56  1  6
 16 17  1  0
 16 57  1  0
 16 58  1  0
 17 18  1  0
 17 59  1  0
 17 60  1  0
 18 61  1  1
 19 20  1  0
 19 62  1  0
 19 63  1  0
 20 28  1  0
 20 21  1  6
 20 22  1  0
 21 64  1  0
 21 65  1  0
 21 66  1  0
 22 26  1  0
 22 23  1  0
 22 67  1  1
 23 24  1  0
 23 68  1  0
 23 69  1  0
 24 39  1  0
 24 25  1  0
 24 70  1  1
 25 26  1  0
 25 71  1  0
 25 72  1  0
 26 27  1  0
 26 73  1  1
 27 28  1  0
 27 29  1  0
 28 74  1  6
 29 39  1  0
 29 30  1  6
 29 38  1  0
 30 31  2  0
 30 32  1  0
 32 37  1  0
 32 33  1  0
 33 34  1  0
 33 75  1  0
 33 76  1  0
 34 35  1  0
 34 77  1  0
 34 78  1  0
 35 36  1  0
 36 37  1  0
 36 79  1  0
 36 80  1  0
 37 81  1  0
 37 82  1  0
 38 39  1  0
 39 83  1  6
M  END
>  <i_m_ct_stereo_status>  (354) 
1

>  <s_m_source_file>  (354) 
/var/tmp/pbs.5076255.sched01/tmpb6g28bo8/1236hu3uqnd.sdf

>  <i_m_source_file_index>  (354) 
28

>  <i_lp_mmshare_version>  (354) 
48012

>  <i_f3d_flags>  (354) 
2

>  <s_epik_input>  (354) 
W0NIMl0xW0NIMl1bQ0BASF0oW0NIMl1bT0hdKVtDQEhdKFtDSDJdMilbQ0BdMShPW0NIM10pW0NAQEhdM1tDSDJdW0NIMl1bQ0BIXShbQ0BAXTMoW0NAXTI0NSlbQ0gyXU80KVtDSDJdW0NAQF02KFtDSDNdKVtDQEBIXTdbQ0BASF04TihbQ0BASF01NilbQ0BdOShbQ0BIXShTOSlbQ0BASF0oW0NIMl03KVtDSDJdOClDKD1PKU4xW0NIMl1bQ0gyXU9bQ0gyXVtDSDJdMQ==

>  <s_epik_cmdline>  (354) 
J2VwaWtfcHl0aG9uJywgJy1waHQnLCAnMi4wJywgJy1waCcsICc3LjAnLCAnLXRuJywgJzgnLCAnLW1hJywgJzIwMCcsICctaW1hZScsICc8aW5maWxlLm1hZT4nLCAnLW9tYWUnLCAnPG91dGZpbGUubWFlPic=

>  <r_epik_Ionization_Penalty>  (354) 
0.104199

>  <r_epik_Ionization_Penalty_Charging>  (354) 
0

>  <r_epik_Ionization_Penalty_Neutral>  (354) 
0.104199

>  <r_epik_State_Penalty>  (354) 
0.0941081

>  <r_epik_Charging_Adjusted_Penalty>  (354) 
0.0941081

>  <i_epik_Tot_Q>  (354) 
0

>  <i_epik_Tot_abs_Q>  (354) 
0

>  <s_lp_Force_Field>  (354) 
OPLS3e

>  <r_lp_Energy>  (354) 
99.7783

>  <b_lp_Chiralities_Consistent>  (354) 
0

>  <s_lp_Variant>  (354) 
106:0-1

>  <s_i_glide_gridfile>  (354) 
pfpi4k_grid

>  <i_i_glide_lignum>  (354) 
28

>  <i_i_glide_rotatable_bonds>  (354) 
5

>  <r_i_docking_score>  (354) 
-0.0519213

>  <r_i_glide_ligand_efficiency>  (354) 
-0.00133132

>  <r_i_glide_ligand_efficiency_sa>  (354) 
-0.00451477

>  <r_i_glide_ligand_efficiency_ln>  (354) 
-0.0111334

>  <r_i_glide_gscore>  (354) 
-0.0519213

>  <r_i_glide_lipo>  (354) 
-0.17945

>  <r_i_glide_hbond>  (354) 
-0.105716

>  <r_i_glide_metal>  (354) 
-0

>  <r_i_glide_rewards>  (354) 
-0.0219071

>  <r_i_glide_evdw>  (354) 
-0.994696

>  <r_i_glide_ecoul>  (354) 
-3.14333

>  <r_i_glide_erotb>  (354) 
0.124951

>  <r_i_glide_esite>  (354) 
0

>  <r_i_glide_emodel>  (354) 
12.6475

>  <r_i_glide_energy>  (354) 
-4.13803

>  <r_i_glide_einternal>  (354) 
23.7808

>  <r_i_glide_intrahb_reward>  (354) 
-0

>  <i_i_glide_confnum>  (354) 
3

>  <i_i_glide_posenum>  (354) 
8

>  <r_i_glide_eff_state_penalty>  (354) 
0

>  <ligand_id>  (354) 
106

>  <original_smiles>  (354) 
COC12CCC(CO)C1CC13OCC14C(CCC24)CC1(C)C2CC4CC2N(C13)C1(C(=O)N2CCOCC2)SC41

>  <smiles>  (354) 
[H]OC([H])([H])C1([H])C([H])([H])C([H])([H])C2(OC([H])([H])[H])C1([H])C([H])([H])C13OC([H])([H])C14C([H])(C([H])([H])C([H])([H])C24[H])C([H])([H])C1(C([H])([H])[H])C3([H])N2C3(C(=O)N4C([H])([H])C([H])([H])OC([H])([H])C4([H])[H])SC3([H])C3([H])C([H])([H])C2([H])C1([H])C3([H])[H]

$$$$
106:1:0
     RDKit          3D

 84 93  0  0  1  0  0  0  0  0999 V2000
    1.2918   -6.4955    7.5925 C   0  0  0  0  0  0  0  0  0  0  0  0
    0.4527   -5.6132    6.8230 O   0  0  0  0  0  0  0  0  0  0  0  0
    0.9872   -5.1741    5.5570 C   0  0  1  0  0  0  0  0  0  0  0  0
    0.3963   -3.7766    5.3086 C   0  0  0  0  0  0  0  0  0  0  0  0
    1.4142   -3.0161    4.4491 C   0  0  0  0  0  0  0  0  0  0  0  0
    2.7020   -3.8726    4.4024 C   0  0  1  0  0  0  0  0  0  0  0  0
    4.0002   -3.0384    4.4957 C   0  0  0  0  0  0  0  0  0  0  0  0
    5.1268   -3.8081    4.1216 O   0  0  0  0  0  0  0  0  0  0  0  0
    2.5258   -4.9035    5.5356 C   0  0  2  0  0  0  0  0  0  0  0  0
    3.4566   -6.1642    5.4597 C   0  0  0  0  0  0  0  0  0  0  0  0
    2.9626   -7.3729    4.6216 C   0  0  2  0  0  0  0  0  0  0  0  0
    3.2126   -7.1334    3.1992 O   0  0  0  0  0  0  0  0  0  0  0  0
    1.9081   -7.7155    2.8935 C   0  0  0  0  0  0  0  0  0  0  0  0
    1.4341   -7.4430    4.3389 C   0  0  1  0  0  0  0  0  0  0  0  0
    0.5842   -8.4856    5.0808 C   0  0  1  0  0  0  0  0  0  0  0  0
   -0.8303   -8.2344    4.5734 C   0  0  0  0  0  0  0  0  0  0  0  0
   -0.8920   -6.6901    4.4552 C   0  0  0  0  0  0  0  0  0  0  0  0
    0.5731   -6.1723    4.4227 C   0  0  1  0  0  0  0  0  0  0  0  0
    1.2384   -9.8758    5.0784 C   0  0  0  0  0  0  0  0  0  0  0  0
    2.6910   -9.8358    5.7337 C   0  0  1  0  0  0  0  0  0  0  0  0
    2.5577   -9.5583    7.2757 C   0  0  0  0  0  0  0  0  0  0  0  0
    3.5029  -11.2246    5.6739 C   0  0  2  0  0  0  0  0  0  0  0  0
    3.8708  -12.6331    4.9580 C   0  0  0  0  0  0  0  0  0  0  0  0
    4.6475  -12.4348    3.5502 C   0  0  1  0  0  0  0  0  0  0  0  0
    3.5420  -11.6050    3.0637 C   0  0  0  0  0  0  0  0  0  0  0  0
    3.7263  -10.6832    4.2679 C   0  0  1  0  0  0  0  0  0  0  0  0
    4.3497   -9.4470    3.8762 N   0  0  1  0  0  0  0  0  0  0  0  0
    3.6937   -8.7146    5.0540 C   0  0  1  0  0  0  0  0  0  0  0  0
    5.8337   -9.8565    3.5013 C   0  0  2  0  0  0  0  0  0  0  0  0
    6.9376   -9.1060    4.2296 C   0  0  0  0  0  0  0  0  0  0  0  0
    7.4202   -9.6004    5.2245 O   0  0  0  0  0  0  0  0  0  0  0  0
    7.2985   -7.8596    3.7654 N   0  0  0  0  0  0  0  0  0  0  0  0
    8.2350   -7.0042    4.5152 C   0  0  0  0  0  0  0  0  0  0  0  0
    9.3828   -6.5434    3.5979 C   0  0  0  0  0  0  0  0  0  0  0  0
    8.8471   -5.8936    2.4494 O   0  0  0  0  0  0  0  0  0  0  0  0
    8.0303   -6.7692    1.6810 C   0  0  0  0  0  0  0  0  0  0  0  0
    6.8327   -7.2406    2.5260 C   0  0  0  0  0  0  0  0  0  0  0  0
    6.2097  -10.5784    1.8507 S   0  0  0  0  0  0  0  0  0  0  0  0
    5.9817  -11.4967    3.4119 C   0  0  2  0  0  0  0  0  0  0  0  0
    0.8057   -6.8883    8.4996 H   0  0  0  0  0  0  0  0  0  0  0  0
    2.2862   -6.0824    7.8869 H   0  0  0  0  0  0  0  0  0  0  0  0
    1.5182   -7.2053    6.9451 H   0  0  0  0  0  0  0  0  0  0  0  0
   -0.5808   -3.8192    4.8362 H   0  0  0  0  0  0  0  0  0  0  0  0
    0.2437   -3.2443    6.2480 H   0  0  0  0  0  0  0  0  0  0  0  0
    1.0223   -2.8645    3.4420 H   0  0  0  0  0  0  0  0  0  0  0  0
    1.5960   -2.0203    4.8595 H   0  0  0  0  0  0  0  0  0  0  0  0
    2.7075   -4.4028    3.4498 H   0  0  0  0  0  0  0  0  0  0  0  0
    3.9587   -2.1684    3.8383 H   0  0  0  0  0  0  0  0  0  0  0  0
    4.1546   -2.6658    5.5087 H   0  0  0  0  0  0  0  0  0  0  0  0
    5.0155   -4.1026    3.2293 H   0  0  0  0  0  0  0  0  0  0  0  0
    2.7737   -4.3634    6.4530 H   0  0  0  0  0  0  0  0  0  0  0  0
    4.4684   -5.8833    5.1866 H   0  0  0  0  0  0  0  0  0  0  0  0
    3.6021   -6.5076    6.4719 H   0  0  0  0  0  0  0  0  0  0  0  0
    1.3648   -7.1730    2.1174 H   0  0  0  0  0  0  0  0  0  0  0  0
    1.9955   -8.7595    2.6147 H   0  0  0  0  0  0  0  0  0  0  0  0
    0.3865   -8.3060    6.0820 H   0  0  0  0  0  0  0  0  0  0  0  0
   -0.9666   -8.7253    3.6004 H   0  0  0  0  0  0  0  0  0  0  0  0
   -1.5693   -8.6179    5.2768 H   0  0  0  0  0  0  0  0  0  0  0  0
   -1.4237   -6.4208    3.5490 H   0  0  0  0  0  0  0  0  0  0  0  0
   -1.4511   -6.2615    5.2864 H   0  0  0  0  0  0  0  0  0  0  0  0
    0.6814   -5.5994    3.4988 H   0  0  0  0  0  0  0  0  0  0  0  0
    0.5954  -10.5713    5.6163 H   0  0  0  0  0  0  0  0  0  0  0  0
    1.2490  -10.2485    4.0510 H   0  0  0  0  0  0  0  0  0  0  0  0
    3.5150   -9.6921    7.8173 H   0  0  0  0  0  0  0  0  0  0  0  0
    1.7809  -10.1818    7.7529 H   0  0  0  0  0  0  0  0  0  0  0  0
    2.4030   -8.6190    7.5816 H   0  0  0  0  0  0  0  0  0  0  0  0
    4.2092  -11.1846    6.5283 H   0  0  0  0  0  0  0  0  0  0  0  0
    4.5024  -13.2079    5.6286 H   0  0  0  0  0  0  0  0  0  0  0  0
    2.9762  -13.2416    4.8783 H   0  0  0  0  0  0  0  0  0  0  0  0
    4.7460  -13.3623    2.9886 H   0  0  0  0  0  0  0  0  0  0  0  0
    3.6803  -11.1161    2.1008 H   0  0  0  0  0  0  0  0  0  0  0  0
    2.5693  -12.0992    3.0246 H   0  0  0  0  0  0  0  0  0  0  0  0
    4.6299  -10.6836    4.9036 H   0  0  0  0  0  0  0  0  0  0  0  0
    4.5054   -8.4978    5.7470 H   0  0  0  0  0  0  0  0  0  0  0  0
    7.7011   -6.1359    4.9016 H   0  0  0  0  0  0  0  0  0  0  0  0
    8.6626   -7.5022    5.3843 H   0  0  0  0  0  0  0  0  0  0  0  0
   10.0486   -5.8587    4.1263 H   0  0  0  0  0  0  0  0  0  0  0  0
    9.9922   -7.3936    3.2918 H   0  0  0  0  0  0  0  0  0  0  0  0
    7.6783   -6.2398    0.7965 H   0  0  0  0  0  0  0  0  0  0  0  0
    8.6143   -7.6201    1.3267 H   0  0  0  0  0  0  0  0  0  0  0  0
    6.2473   -7.9360    1.9344 H   0  0  0  0  0  0  0  0  0  0  0  0
    6.1676   -6.4017    2.7306 H   0  0  0  0  0  0  0  0  0  0  0  0
    6.9089  -11.9511    3.7428 H   0  0  0  0  0  0  0  0  0  0  0  0
    3.8808   -9.1175    3.0334 H   0  0  0  0  0  0  0  0  0  0  0  0
  1  2  1  0
  1 40  1  0
  1 41  1  0
  1 42  1  0
  3  2  1  1
  3  9  1  0
  3 18  1  0
  3  4  1  0
  4  5  1  0
  4 43  1  0
  4 44  1  0
  5  6  1  0
  5 45  1  0
  5 46  1  0
  6  7  1  0
  6  9  1  0
  6 47  1  6
  7  8  1  0
  7 48  1  0
  7 49  1  0
  8 50  1  0
  9 10  1  0
  9 51  1  1
 10 11  1  0
 10 52  1  0
 10 53  1  0
 11 14  1  0
 11 28  1  0
 11 12  1  6
 12 13  1  0
 14 13  1  6
 13 54  1  0
 13 55  1  0
 14 18  1  0
 14 15  1  0
 15 16  1  0
 15 19  1  0
 15 56  1  1
 16 17  1  0
 16 57  1  0
 16 58  1  0
 17 18  1  0
 17 59  1  0
 17 60  1  0
 18 61  1  6
 19 20  1  0
 19 62  1  0
 19 63  1  0
 20 28  1  0
 20 21  1  1
 20 22  1  0
 21 64  1  0
 21 65  1  0
 21 66  1  0
 22 26  1  0
 22 23  1  0
 22 67  1  1
 23 24  1  0
 23 68  1  0
 23 69  1  0
 24 39  1  0
 24 25  1  0
 24 70  1  6
 25 26  1  0
 25 71  1  0
 25 72  1  0
 26 27  1  0
 26 73  1  6
 27 28  1  0
 27 29  1  0
 27 84  1  6
 28 74  1  1
 29 39  1  0
 29 30  1  1
 29 38  1  0
 30 31  2  0
 30 32  1  0
 32 37  1  0
 32 33  1  0
 33 34  1  0
 33 75  1  0
 33 76  1  0
 34 35  1  0
 34 77  1  0
 34 78  1  0
 35 36  1  0
 36 37  1  0
 36 79  1  0
 36 80  1  0
 37 81  1  0
 37 82  1  0
 38 39  1  0
 39 83  1  1
M  CHG  1  27   1
M  END
>  <i_m_ct_stereo_status>  (355) 
1

>  <s_m_source_file>  (355) 
/var/tmp/pbs.5076255.sched01/tmpb6g28bo8/1236hu3uqnd.sdf

>  <i_m_source_file_index>  (355) 
29

>  <i_lp_mmshare_version>  (355) 
48012

>  <i_f3d_flags>  (355) 
0

>  <s_epik_input>  (355) 
W0NIMl0xW0NIMl1bQ0BASF0oW0NIMl1bT0hdKVtDQEhdKFtDSDJdMilbQ0BdMShPW0NIM10pW0NAQEhdM1tDSDJdW0NIMl1bQ0BIXShbQ0BAXTMoW0NAXTI0NSlbQ0gyXU80KVtDSDJdW0NAQF02KFtDSDNdKVtDQEBIXTdbQ0BASF04TihbQ0BASF01NilbQ0BdOShbQ0BIXShTOSlbQ0BASF0oW0NIMl03KVtDSDJdOClDKD1PKU4xW0NIMl1bQ0gyXU9bQ0gyXVtDSDJdMQ==

>  <s_epik_cmdline>  (355) 
J2VwaWtfcHl0aG9uJywgJy1waHQnLCAnMi4wJywgJy1waCcsICc3LjAnLCAnLXRuJywgJzgnLCAnLW1hJywgJzIwMCcsICctaW1hZScsICc8aW5maWxlLm1hZT4nLCAnLW9tYWUnLCAnPG91dGZpbGUubWFlPic=

>  <r_epik_Ionization_Penalty>  (355) 
1.0811

>  <r_epik_Ionization_Penalty_Charging>  (355) 
1.0811

>  <r_epik_Ionization_Penalty_Neutral>  (355) 
4.35579e-07

>  <r_epik_State_Penalty>  (355) 
1.13654

>  <r_epik_Charging_Adjusted_Penalty>  (355) 
2.21763

>  <i_epik_Tot_Q>  (355) 
1

>  <i_epik_Tot_abs_Q>  (355) 
1

>  <s_lp_Force_Field>  (355) 
OPLS3e

>  <r_lp_Energy>  (355) 
293.551

>  <b_lp_Chiralities_Consistent>  (355) 
1

>  <s_lp_Variant>  (355) 
106:0-2

>  <s_i_glide_gridfile>  (355) 
pfpi4k_grid

>  <i_i_glide_lignum>  (355) 
29

>  <i_i_glide_rotatable_bonds>  (355) 
5

>  <r_i_docking_score>  (355) 
-0.353298

>  <r_i_glide_ligand_efficiency>  (355) 
-0.00905893

>  <r_i_glide_ligand_efficiency_sa>  (355) 
-0.0307207

>  <r_i_glide_ligand_efficiency_ln>  (355) 
-0.0757572

>  <r_i_glide_gscore>  (355) 
-0.353298

>  <r_i_glide_lipo>  (355) 
-0.0389998

>  <r_i_glide_hbond>  (355) 
0

>  <r_i_glide_metal>  (355) 
-0

>  <r_i_glide_rewards>  (355) 
-0.0107292

>  <r_i_glide_evdw>  (355) 
-23.2457

>  <r_i_glide_ecoul>  (355) 
-2.98456

>  <r_i_glide_erotb>  (355) 
0.123188

>  <r_i_glide_esite>  (355) 
-0.00384337

>  <r_i_glide_emodel>  (355) 
-18.481

>  <r_i_glide_energy>  (355) 
-26.2303

>  <r_i_glide_einternal>  (355) 
4.17337

>  <r_i_glide_intrahb_reward>  (355) 
-0

>  <i_i_glide_confnum>  (355) 
1

>  <i_i_glide_posenum>  (355) 
29

>  <r_i_glide_eff_state_penalty>  (355) 
0

>  <ligand_id>  (355) 
106

>  <original_smiles>  (355) 
COC12CCC(CO)C1CC13OCC14C(CCC24)CC1(C)C2CC4CC2N(C13)C1(C(=O)N2CCOCC2)SC41

>  <smiles>  (355) 
[H]OC([H])([H])C1([H])C([H])([H])C([H])([H])C2(OC([H])([H])[H])C1([H])C([H])([H])C13OC([H])([H])C14C([H])(C([H])([H])C([H])([H])C24[H])C([H])([H])C1(C([H])([H])[H])C2([H])C([H])([H])C4([H])C([H])([H])C2([H])[N+]([H])(C2(C(=O)N5C([H])([H])C([H])([H])OC([H])([H])C5([H])[H])SC42[H])C31[H]

$$$$
106:1:1
     RDKit          3D

 84 93  0  0  1  0  0  0  0  0999 V2000
    1.3542   -6.4444    7.4665 C   0  0  0  0  0  0  0  0  0  0  0  0
    0.5449   -5.6130    6.6167 O   0  0  0  0  0  0  0  0  0  0  0  0
    1.1123   -5.2629    5.3380 C   0  0  1  0  0  0  0  0  0  0  0  0
    0.5389   -3.8819    4.9775 C   0  0  0  0  0  0  0  0  0  0  0  0
    1.5817   -3.1914    4.0894 C   0  0  0  0  0  0  0  0  0  0  0  0
    2.8624   -4.0574    4.1348 C   0  0  1  0  0  0  0  0  0  0  0  0
    4.1678   -3.2347    4.2009 C   0  0  0  0  0  0  0  0  0  0  0  0
    4.3446   -2.4771    3.0195 O   0  0  0  0  0  0  0  0  0  0  0  0
    2.6527   -5.0027    5.3345 C   0  0  2  0  0  0  0  0  0  0  0  0
    3.5755   -6.2703    5.3687 C   0  0  0  0  0  0  0  0  0  0  0  0
    3.0874   -7.5358    4.6107 C   0  0  2  0  0  0  0  0  0  0  0  0
    3.3720   -7.4026    3.1807 O   0  0  0  0  0  0  0  0  0  0  0  0
    2.0695   -7.9952    2.8854 C   0  0  0  0  0  0  0  0  0  0  0  0
    1.5652   -7.6149    4.2960 C   0  0  1  0  0  0  0  0  0  0  0  0
    0.6884   -8.5964    5.0878 C   0  0  1  0  0  0  0  0  0  0  0  0
   -0.7090   -8.3684    4.5303 C   0  0  0  0  0  0  0  0  0  0  0  0
   -0.7565   -6.8381    4.3009 C   0  0  0  0  0  0  0  0  0  0  0  0
    0.7147   -6.3354    4.2677 C   0  0  1  0  0  0  0  0  0  0  0  0
    1.3288   -9.9880    5.2015 C   0  0  0  0  0  0  0  0  0  0  0  0
    2.7653   -9.9132    5.8877 C   0  0  1  0  0  0  0  0  0  0  0  0
    2.5972   -9.5259    7.4013 C   0  0  0  0  0  0  0  0  0  0  0  0
    3.5654  -11.3089    5.9477 C   0  0  2  0  0  0  0  0  0  0  0  0
    3.9370  -12.7676    5.3395 C   0  0  0  0  0  0  0  0  0  0  0  0
    4.7514  -12.6769    3.9425 C   0  0  1  0  0  0  0  0  0  0  0  0
    3.6650  -11.8758    3.3759 C   0  0  0  0  0  0  0  0  0  0  0  0
    3.8278  -10.8710    4.5133 C   0  0  1  0  0  0  0  0  0  0  0  0
    4.4727   -9.6714    4.0484 N   0  0  1  0  0  0  0  0  0  0  0  0
    3.7942   -8.8509    5.1545 C   0  0  1  0  0  0  0  0  0  0  0  0
    5.9640  -10.1200    3.7431 C   0  0  2  0  0  0  0  0  0  0  0  0
    7.0587   -9.3291    4.4411 C   0  0  0  0  0  0  0  0  0  0  0  0
    7.5942   -9.8007    5.4221 O   0  0  0  0  0  0  0  0  0  0  0  0
    7.3498   -8.0702    3.9682 N   0  0  0  0  0  0  0  0  0  0  0  0
    6.8140   -7.4992    2.7365 C   0  0  0  0  0  0  0  0  0  0  0  0
    7.9611   -6.9784    1.8537 C   0  0  0  0  0  0  0  0  0  0  0  0
    8.7355   -6.0357    2.5856 O   0  0  0  0  0  0  0  0  0  0  0  0
    9.3364   -6.6166    3.7387 C   0  0  0  0  0  0  0  0  0  0  0  0
    8.2418   -7.1409    4.6862 C   0  0  0  0  0  0  0  0  0  0  0  0
    6.3785  -10.9506    2.1525 S   0  0  0  0  0  0  0  0  0  0  0  0
    6.0968  -11.7621    3.7670 C   0  0  2  0  0  0  0  0  0  0  0  0
    0.8435   -6.7654    8.3870 H   0  0  0  0  0  0  0  0  0  0  0  0
    2.3471   -6.0258    7.7500 H   0  0  0  0  0  0  0  0  0  0  0  0
    1.5854   -7.2080    6.8774 H   0  0  0  0  0  0  0  0  0  0  0  0
   -0.4239   -3.9518    4.4841 H   0  0  0  0  0  0  0  0  0  0  0  0
    0.3682   -3.2818    5.8725 H   0  0  0  0  0  0  0  0  0  0  0  0
    1.2166   -3.1094    3.0645 H   0  0  0  0  0  0  0  0  0  0  0  0
    1.7646   -2.1703    4.4320 H   0  0  0  0  0  0  0  0  0  0  0  0
    2.8929   -4.6629    3.2286 H   0  0  0  0  0  0  0  0  0  0  0  0
    4.1688   -2.5620    5.0593 H   0  0  0  0  0  0  0  0  0  0  0  0
    5.0331   -3.8896    4.3096 H   0  0  0  0  0  0  0  0  0  0  0  0
    4.3487   -3.0628    2.2762 H   0  0  0  0  0  0  0  0  0  0  0  0
    2.8840   -4.4013    6.2175 H   0  0  0  0  0  0  0  0  0  0  0  0
    4.5945   -6.0077    5.0943 H   0  0  0  0  0  0  0  0  0  0  0  0
    3.6894   -6.5447    6.4074 H   0  0  0  0  0  0  0  0  0  0  0  0
    1.5510   -7.5052    2.0585 H   0  0  0  0  0  0  0  0  0  0  0  0
    2.1558   -9.0571    2.6830 H   0  0  0  0  0  0  0  0  0  0  0  0
    0.4694   -8.3427    6.0712 H   0  0  0  0  0  0  0  0  0  0  0  0
   -0.8302   -8.9288    3.5967 H   0  0  0  0  0  0  0  0  0  0  0  0
   -1.4708   -8.6895    5.2373 H   0  0  0  0  0  0  0  0  0  0  0  0
   -1.2628   -6.6339    3.3620 H   0  0  0  0  0  0  0  0  0  0  0  0
   -1.3306   -6.3425    5.0850 H   0  0  0  0  0  0  0  0  0  0  0  0
    0.8505   -5.8313    3.3082 H   0  0  0  0  0  0  0  0  0  0  0  0
    0.6665  -10.6397    5.7699 H   0  0  0  0  0  0  0  0  0  0  0  0
    1.3606  -10.4329    4.2040 H   0  0  0  0  0  0  0  0  0  0  0  0
    3.5385   -9.6232    7.9749 H   0  0  0  0  0  0  0  0  0  0  0  0
    1.8036  -10.1050    7.9035 H   0  0  0  0  0  0  0  0  0  0  0  0
    2.4427   -8.5614    7.6342 H   0  0  0  0  0  0  0  0  0  0  0  0
    4.2521  -11.2139    6.8140 H   0  0  0  0  0  0  0  0  0  0  0  0
    4.5452  -13.2995    6.0657 H   0  0  0  0  0  0  0  0  0  0  0  0
    3.0380  -13.3735    5.2677 H   0  0  0  0  0  0  0  0  0  0  0  0
    4.8523  -13.6433    3.4517 H   0  0  0  0  0  0  0  0  0  0  0  0
    3.8369  -11.4617    2.3895 H   0  0  0  0  0  0  0  0  0  0  0  0
    2.6858  -12.3570    3.3436 H   0  0  0  0  0  0  0  0  0  0  0  0
    4.7163  -10.8330    5.1675 H   0  0  0  0  0  0  0  0  0  0  0  0
    4.5914   -8.5921    5.8496 H   0  0  0  0  0  0  0  0  0  0  0  0
    6.2388   -8.2185    2.1592 H   0  0  0  0  0  0  0  0  0  0  0  0
    6.1253   -6.6916    2.9827 H   0  0  0  0  0  0  0  0  0  0  0  0
    8.5919   -7.7980    1.5057 H   0  0  0  0  0  0  0  0  0  0  0  0
    7.5564   -6.4929    0.9666 H   0  0  0  0  0  0  0  0  0  0  0  0
   10.0146   -7.4193    3.4484 H   0  0  0  0  0  0  0  0  0  0  0  0
    9.9449   -5.8601    4.2363 H   0  0  0  0  0  0  0  0  0  0  0  0
    7.6602   -6.3004    5.0654 H   0  0  0  0  0  0  0  0  0  0  0  0
    8.7167   -7.5892    5.5575 H   0  0  0  0  0  0  0  0  0  0  0  0
    7.0093  -12.1990    4.1563 H   0  0  0  0  0  0  0  0  0  0  0  0
    4.0267   -9.3993    3.1734 H   0  0  0  0  0  0  0  0  0  0  0  0
  1  2  1  0
  1 40  1  0
  1 41  1  0
  1 42  1  0
  3  2  1  1
  3  9  1  0
  3 18  1  0
  3  4  1  0
  4  5  1  0
  4 43  1  0
  4 44  1  0
  5  6  1  0
  5 45  1  0
  5 46  1  0
  6  7  1  0
  6  9  1  0
  6 47  1  6
  7  8  1  0
  7 48  1  0
  7 49  1  0
  8 50  1  0
  9 10  1  0
  9 51  1  1
 10 11  1  0
 10 52  1  0
 10 53  1  0
 11 14  1  0
 11 28  1  0
 11 12  1  6
 12 13  1  0
 14 13  1  6
 13 54  1  0
 13 55  1  0
 14 18  1  0
 14 15  1  0
 15 16  1  0
 15 19  1  0
 15 56  1  1
 16 17  1  0
 16 57  1  0
 16 58  1  0
 17 18  1  0
 17 59  1  0
 17 60  1  0
 18 61  1  6
 19 20  1  0
 19 62  1  0
 19 63  1  0
 20 28  1  0
 20 21  1  1
 20 22  1  0
 21 64  1  0
 21 65  1  0
 21 66  1  0
 22 26  1  0
 22 23  1  0
 22 67  1  1
 23 24  1  0
 23 68  1  0
 23 69  1  0
 24 39  1  0
 24 25  1  0
 24 70  1  6
 25 26  1  0
 25 71  1  0
 25 72  1  0
 26 27  1  0
 26 73  1  6
 27 28  1  0
 27 29  1  0
 27 84  1  6
 28 74  1  1
 29 39  1  0
 29 30  1  1
 29 38  1  0
 30 31  2  0
 30 32  1  0
 32 37  1  0
 32 33  1  0
 33 34  1  0
 33 75  1  0
 33 76  1  0
 34 35  1  0
 34 77  1  0
 34 78  1  0
 35 36  1  0
 36 37  1  0
 36 79  1  0
 36 80  1  0
 37 81  1  0
 37 82  1  0
 38 39  1  0
 39 83  1  1
M  CHG  1  27   1
M  END
>  <i_m_ct_stereo_status>  (356) 
1

>  <s_m_source_file>  (356) 
/var/tmp/pbs.5076255.sched01/tmpb6g28bo8/1236hu3uqnd.sdf

>  <i_m_source_file_index>  (356) 
29

>  <i_lp_mmshare_version>  (356) 
48012

>  <i_f3d_flags>  (356) 
0

>  <s_epik_input>  (356) 
W0NIMl0xW0NIMl1bQ0BASF0oW0NIMl1bT0hdKVtDQEhdKFtDSDJdMilbQ0BdMShPW0NIM10pW0NAQEhdM1tDSDJdW0NIMl1bQ0BIXShbQ0BAXTMoW0NAXTI0NSlbQ0gyXU80KVtDSDJdW0NAQF02KFtDSDNdKVtDQEBIXTdbQ0BASF04TihbQ0BASF01NilbQ0BdOShbQ0BIXShTOSlbQ0BASF0oW0NIMl03KVtDSDJdOClDKD1PKU4xW0NIMl1bQ0gyXU9bQ0gyXVtDSDJdMQ==

>  <s_epik_cmdline>  (356) 
J2VwaWtfcHl0aG9uJywgJy1waHQnLCAnMi4wJywgJy1waCcsICc3LjAnLCAnLXRuJywgJzgnLCAnLW1hJywgJzIwMCcsICctaW1hZScsICc8aW5maWxlLm1hZT4nLCAnLW9tYWUnLCAnPG91dGZpbGUubWFlPic=

>  <r_epik_Ionization_Penalty>  (356) 
1.0811

>  <r_epik_Ionization_Penalty_Charging>  (356) 
1.0811

>  <r_epik_Ionization_Penalty_Neutral>  (356) 
4.35579e-07

>  <r_epik_State_Penalty>  (356) 
1.13654

>  <r_epik_Charging_Adjusted_Penalty>  (356) 
2.21763

>  <i_epik_Tot_Q>  (356) 
1

>  <i_epik_Tot_abs_Q>  (356) 
1

>  <s_lp_Force_Field>  (356) 
OPLS3e

>  <r_lp_Energy>  (356) 
293.551

>  <b_lp_Chiralities_Consistent>  (356) 
1

>  <s_lp_Variant>  (356) 
106:0-2

>  <s_i_glide_gridfile>  (356) 
pfpi4k_grid

>  <i_i_glide_lignum>  (356) 
29

>  <i_i_glide_rotatable_bonds>  (356) 
5

>  <r_i_docking_score>  (356) 
-0.198037

>  <r_i_glide_ligand_efficiency>  (356) 
-0.00507788

>  <r_i_glide_ligand_efficiency_sa>  (356) 
-0.0172202

>  <r_i_glide_ligand_efficiency_ln>  (356) 
-0.0424648

>  <r_i_glide_gscore>  (356) 
-0.198037

>  <r_i_glide_lipo>  (356) 
-0.044058

>  <r_i_glide_hbond>  (356) 
0

>  <r_i_glide_metal>  (356) 
-0

>  <r_i_glide_rewards>  (356) 
-0.00337108

>  <r_i_glide_evdw>  (356) 
-22.5456

>  <r_i_glide_ecoul>  (356) 
-2.84295

>  <r_i_glide_erotb>  (356) 
0.123188

>  <r_i_glide_esite>  (356) 
-0.00412269

>  <r_i_glide_emodel>  (356) 
-17.5316

>  <r_i_glide_energy>  (356) 
-25.3886

>  <r_i_glide_einternal>  (356) 
3.37936

>  <r_i_glide_intrahb_reward>  (356) 
-0

>  <i_i_glide_confnum>  (356) 
3

>  <i_i_glide_posenum>  (356) 
32

>  <r_i_glide_eff_state_penalty>  (356) 
0

>  <ligand_id>  (356) 
106

>  <original_smiles>  (356) 
COC12CCC(CO)C1CC13OCC14C(CCC24)CC1(C)C2CC4CC2N(C13)C1(C(=O)N2CCOCC2)SC41

>  <smiles>  (356) 
[H]OC([H])([H])C1([H])C([H])([H])C([H])([H])C2(OC([H])([H])[H])C1([H])C([H])([H])C13OC([H])([H])C14C([H])(C([H])([H])C([H])([H])C24[H])C([H])([H])C1(C([H])([H])[H])C2([H])C([H])([H])C4([H])C([H])([H])C2([H])[N+]([H])(C2(C(=O)N5C([H])([H])C([H])([H])OC([H])([H])C5([H])[H])SC42[H])C31[H]

$$$$
106:1:2
     RDKit          3D

 84 93  0  0  1  0  0  0  0  0999 V2000
    1.1334   -6.5756    7.8715 C   0  0  0  0  0  0  0  0  0  0  0  0
    0.2448   -5.6823    7.1726 O   0  0  0  0  0  0  0  0  0  0  0  0
    0.7252   -5.1780    5.9082 C   0  0  1  0  0  0  0  0  0  0  0  0
    0.0958   -3.7849    5.7485 C   0  0  0  0  0  0  0  0  0  0  0  0
    1.0603   -2.9589    4.8899 C   0  0  0  0  0  0  0  0  0  0  0  0
    2.3658   -3.7772    4.7591 C   0  0  1  0  0  0  0  0  0  0  0  0
    3.6446   -2.9133    4.8495 C   0  0  0  0  0  0  0  0  0  0  0  0
    4.7682   -3.6227    4.3619 O   0  0  0  0  0  0  0  0  0  0  0  0
    2.2548   -4.8654    5.8462 C   0  0  2  0  0  0  0  0  0  0  0  0
    3.2152   -6.0950    5.6783 C   0  0  0  0  0  0  0  0  0  0  0  0
    2.7218   -7.2768    4.8012 C   0  0  2  0  0  0  0  0  0  0  0  0
    2.9149   -6.9670    3.3850 O   0  0  0  0  0  0  0  0  0  0  0  0
    1.6166   -7.5663    3.0973 C   0  0  0  0  0  0  0  0  0  0  0  0
    1.1862   -7.3746    4.5690 C   0  0  1  0  0  0  0  0  0  0  0  0
    0.3897   -8.4733    5.2884 C   0  0  1  0  0  0  0  0  0  0  0  0
   -1.0428   -8.2332    4.8360 C   0  0  0  0  0  0  0  0  0  0  0  0
   -1.1527   -6.6863    4.7992 C   0  0  0  0  0  0  0  0  0  0  0  0
    0.2970   -6.1325    4.7414 C   0  0  1  0  0  0  0  0  0  0  0  0
    1.0785   -9.8435    5.1981 C   0  0  0  0  0  0  0  0  0  0  0  0
    2.5521   -9.7939    5.8053 C   0  0  1  0  0  0  0  0  0  0  0  0
    2.4675   -9.5946    7.3629 C   0  0  0  0  0  0  0  0  0  0  0  0
    3.3966  -11.1553    5.6511 C   0  0  2  0  0  0  0  0  0  0  0  0
    3.7766  -12.5172    4.8577 C   0  0  0  0  0  0  0  0  0  0  0  0
    4.4959  -12.2342    3.4347 C   0  0  1  0  0  0  0  0  0  0  0  0
    3.3532  -11.4147    3.0243 C   0  0  0  0  0  0  0  0  0  0  0  0
    3.5561  -10.5435    4.2641 C   0  0  1  0  0  0  0  0  0  0  0  0
    4.1331   -9.2748    3.9115 N   0  0  1  0  0  0  0  0  0  0  0  0
    3.5023   -8.6163    5.1441 C   0  0  1  0  0  0  0  0  0  0  0  0
    5.6129   -9.6242    3.4703 C   0  0  2  0  0  0  0  0  0  0  0  0
    6.7193   -8.8749    4.1945 C   0  0  0  0  0  0  0  0  0  0  0  0
    7.1598   -9.3404    5.2210 O   0  0  0  0  0  0  0  0  0  0  0  0
    7.1415   -7.6682    3.6777 N   0  0  0  0  0  0  0  0  0  0  0  0
    8.1715   -6.8619    4.3562 C   0  0  0  0  0  0  0  0  0  0  0  0
    9.2837   -6.5059    3.3613 C   0  0  0  0  0  0  0  0  0  0  0  0
    8.7415   -5.8404    2.2277 O   0  0  0  0  0  0  0  0  0  0  0  0
    7.8217   -6.6717    1.5298 C   0  0  0  0  0  0  0  0  0  0  0  0
    6.6477   -7.0364    2.4557 C   0  0  0  0  0  0  0  0  0  0  0  0
    5.9593  -10.2555    1.7789 S   0  0  0  0  0  0  0  0  0  0  0  0
    5.8004  -11.2540    3.2985 C   0  0  2  0  0  0  0  0  0  0  0  0
    0.6894   -7.0283    8.7723 H   0  0  0  0  0  0  0  0  0  0  0  0
    2.1251   -6.1472    8.1553 H   0  0  0  0  0  0  0  0  0  0  0  0
    1.3590   -7.2426    7.1812 H   0  0  0  0  0  0  0  0  0  0  0  0
   -0.8939   -3.8249    5.3117 H   0  0  0  0  0  0  0  0  0  0  0  0
   -0.0397   -3.3028    6.7166 H   0  0  0  0  0  0  0  0  0  0  0  0
    0.6273   -2.7721    3.9055 H   0  0  0  0  0  0  0  0  0  0  0  0
    1.2289   -1.9792    5.3409 H   0  0  0  0  0  0  0  0  0  0  0  0
    2.3514   -4.2611    3.7823 H   0  0  0  0  0  0  0  0  0  0  0  0
    3.5449   -2.0005    4.2592 H   0  0  0  0  0  0  0  0  0  0  0  0
    3.8403   -2.6092    5.8789 H   0  0  0  0  0  0  0  0  0  0  0  0
    5.5372   -3.0794    4.4465 H   0  0  0  0  0  0  0  0  0  0  0  0
    2.5199   -4.3621    6.7791 H   0  0  0  0  0  0  0  0  0  0  0  0
    4.2078   -5.7709    5.3822 H   0  0  0  0  0  0  0  0  0  0  0  0
    3.4072   -6.4813    6.6662 H   0  0  0  0  0  0  0  0  0  0  0  0
    1.0316   -7.0025    2.3672 H   0  0  0  0  0  0  0  0  0  0  0  0
    1.7179   -8.5936    2.7666 H   0  0  0  0  0  0  0  0  0  0  0  0
    0.2202   -8.3482    6.3019 H   0  0  0  0  0  0  0  0  0  0  0  0
   -1.2064   -8.6848    3.8505 H   0  0  0  0  0  0  0  0  0  0  0  0
   -1.7459   -8.6788    5.5308 H   0  0  0  0  0  0  0  0  0  0  0  0
   -1.7220   -6.3915    3.9237 H   0  0  0  0  0  0  0  0  0  0  0  0
   -1.6877   -6.2882    5.6631 H   0  0  0  0  0  0  0  0  0  0  0  0
    0.3577   -5.5140    3.8431 H   0  0  0  0  0  0  0  0  0  0  0  0
    0.4727  -10.5795    5.7245 H   0  0  0  0  0  0  0  0  0  0  0  0
    1.0619  -10.1682    4.1539 H   0  0  0  0  0  0  0  0  0  0  0  0
    3.4474   -9.7308    7.8633 H   0  0  0  0  0  0  0  0  0  0  0  0
    1.7233  -10.2610    7.8346 H   0  0  0  0  0  0  0  0  0  0  0  0
    2.3009   -8.6765    7.7199 H   0  0  0  0  0  0  0  0  0  0  0  0
    4.1313  -11.1365    6.4817 H   0  0  0  0  0  0  0  0  0  0  0  0
    4.4431  -13.1074    5.4787 H   0  0  0  0  0  0  0  0  0  0  0  0
    2.8915  -13.1363    4.7791 H   0  0  0  0  0  0  0  0  0  0  0  0
    4.5975  -13.1317    2.8267 H   0  0  0  0  0  0  0  0  0  0  0  0
    3.4481  -10.8902    2.0753 H   0  0  0  0  0  0  0  0  0  0  0  0
    2.3914  -11.9319    2.9983 H   0  0  0  0  0  0  0  0  0  0  0  0
    4.4800  -10.5497    4.8696 H   0  0  0  0  0  0  0  0  0  0  0  0
    4.3306   -8.4096    5.8204 H   0  0  0  0  0  0  0  0  0  0  0  0
    7.7247   -5.9509    4.7505 H   0  0  0  0  0  0  0  0  0  0  0  0
    8.6194   -7.3725    5.2078 H   0  0  0  0  0  0  0  0  0  0  0  0
   10.0459   -5.9000    3.8361 H   0  0  0  0  0  0  0  0  0  0  0  0
    9.8059   -7.4035    3.0536 H   0  0  0  0  0  0  0  0  0  0  0  0
    7.4540   -6.1362    0.6555 H   0  0  0  0  0  0  0  0  0  0  0  0
    8.3228   -7.5692    1.1629 H   0  0  0  0  0  0  0  0  0  0  0  0
    5.9727   -7.6858    1.9136 H   0  0  0  0  0  0  0  0  0  0  0  0
    6.0555   -6.1496    2.6811 H   0  0  0  0  0  0  0  0  0  0  0  0
    6.7498  -11.6992    3.5742 H   0  0  0  0  0  0  0  0  0  0  0  0
    3.6272   -8.9176    3.1021 H   0  0  0  0  0  0  0  0  0  0  0  0
  1  2  1  0
  1 40  1  0
  1 41  1  0
  1 42  1  0
  3  2  1  1
  3  9  1  0
  3 18  1  0
  3  4  1  0
  4  5  1  0
  4 43  1  0
  4 44  1  0
  5  6  1  0
  5 45  1  0
  5 46  1  0
  6  7  1  0
  6  9  1  0
  6 47  1  6
  7  8  1  0
  7 48  1  0
  7 49  1  0
  8 50  1  0
  9 10  1  0
  9 51  1  1
 10 11  1  0
 10 52  1  0
 10 53  1  0
 11 14  1  0
 11 28  1  0
 11 12  1  6
 12 13  1  0
 14 13  1  6
 13 54  1  0
 13 55  1  0
 14 18  1  0
 14 15  1  0
 15 16  1  0
 15 19  1  0
 15 56  1  1
 16 17  1  0
 16 57  1  0
 16 58  1  0
 17 18  1  0
 17 59  1  0
 17 60  1  0
 18 61  1  6
 19 20  1  0
 19 62  1  0
 19 63  1  0
 20 28  1  0
 20 21  1  1
 20 22  1  0
 21 64  1  0
 21 65  1  0
 21 66  1  0
 22 26  1  0
 22 23  1  0
 22 67  1  1
 23 24  1  0
 23 68  1  0
 23 69  1  0
 24 39  1  0
 24 25  1  0
 24 70  1  6
 25 26  1  0
 25 71  1  0
 25 72  1  0
 26 27  1  0
 26 73  1  6
 27 28  1  0
 27 29  1  0
 27 84  1  6
 28 74  1  1
 29 39  1  0
 29 30  1  1
 29 38  1  0
 30 31  2  0
 30 32  1  0
 32 37  1  0
 32 33  1  0
 33 34  1  0
 33 75  1  0
 33 76  1  0
 34 35  1  0
 34 77  1  0
 34 78  1  0
 35 36  1  0
 36 37  1  0
 36 79  1  0
 36 80  1  0
 37 81  1  0
 37 82  1  0
 38 39  1  0
 39 83  1  1
M  CHG  1  27   1
M  END
>  <i_m_ct_stereo_status>  (357) 
1

>  <s_m_source_file>  (357) 
/var/tmp/pbs.5076255.sched01/tmpb6g28bo8/1236hu3uqnd.sdf

>  <i_m_source_file_index>  (357) 
29

>  <i_lp_mmshare_version>  (357) 
48012

>  <i_f3d_flags>  (357) 
0

>  <s_epik_input>  (357) 
W0NIMl0xW0NIMl1bQ0BASF0oW0NIMl1bT0hdKVtDQEhdKFtDSDJdMilbQ0BdMShPW0NIM10pW0NAQEhdM1tDSDJdW0NIMl1bQ0BIXShbQ0BAXTMoW0NAXTI0NSlbQ0gyXU80KVtDSDJdW0NAQF02KFtDSDNdKVtDQEBIXTdbQ0BASF04TihbQ0BASF01NilbQ0BdOShbQ0BIXShTOSlbQ0BASF0oW0NIMl03KVtDSDJdOClDKD1PKU4xW0NIMl1bQ0gyXU9bQ0gyXVtDSDJdMQ==

>  <s_epik_cmdline>  (357) 
J2VwaWtfcHl0aG9uJywgJy1waHQnLCAnMi4wJywgJy1waCcsICc3LjAnLCAnLXRuJywgJzgnLCAnLW1hJywgJzIwMCcsICctaW1hZScsICc8aW5maWxlLm1hZT4nLCAnLW9tYWUnLCAnPG91dGZpbGUubWFlPic=

>  <r_epik_Ionization_Penalty>  (357) 
1.0811

>  <r_epik_Ionization_Penalty_Charging>  (357) 
1.0811

>  <r_epik_Ionization_Penalty_Neutral>  (357) 
4.35579e-07

>  <r_epik_State_Penalty>  (357) 
1.13654

>  <r_epik_Charging_Adjusted_Penalty>  (357) 
2.21763

>  <i_epik_Tot_Q>  (357) 
1

>  <i_epik_Tot_abs_Q>  (357) 
1

>  <s_lp_Force_Field>  (357) 
OPLS3e

>  <r_lp_Energy>  (357) 
293.551

>  <b_lp_Chiralities_Consistent>  (357) 
1

>  <s_lp_Variant>  (357) 
106:0-2

>  <s_i_glide_gridfile>  (357) 
pfpi4k_grid

>  <i_i_glide_lignum>  (357) 
29

>  <i_i_glide_rotatable_bonds>  (357) 
5

>  <r_i_docking_score>  (357) 
-0.0456665

>  <r_i_glide_ligand_efficiency>  (357) 
-0.00117094

>  <r_i_glide_ligand_efficiency_sa>  (357) 
-0.00397089

>  <r_i_glide_ligand_efficiency_ln>  (357) 
-0.0097922

>  <r_i_glide_gscore>  (357) 
-0.0456665

>  <r_i_glide_lipo>  (357) 
-0.04257

>  <r_i_glide_hbond>  (357) 
0

>  <r_i_glide_metal>  (357) 
-0

>  <r_i_glide_rewards>  (357) 
-0.0130091

>  <r_i_glide_evdw>  (357) 
-20.726

>  <r_i_glide_ecoul>  (357) 
-2.50985

>  <r_i_glide_erotb>  (357) 
0.123188

>  <r_i_glide_esite>  (357) 
-0.00296461

>  <r_i_glide_emodel>  (357) 
-14.1698

>  <r_i_glide_energy>  (357) 
-23.2359

>  <r_i_glide_einternal>  (357) 
5.11358

>  <r_i_glide_intrahb_reward>  (357) 
-0

>  <i_i_glide_confnum>  (357) 
6

>  <i_i_glide_posenum>  (357) 
23

>  <r_i_glide_eff_state_penalty>  (357) 
0

>  <ligand_id>  (357) 
106

>  <original_smiles>  (357) 
COC12CCC(CO)C1CC13OCC14C(CCC24)CC1(C)C2CC4CC2N(C13)C1(C(=O)N2CCOCC2)SC41

>  <smiles>  (357) 
[H]OC([H])([H])C1([H])C([H])([H])C([H])([H])C2(OC([H])([H])[H])C1([H])C([H])([H])C13OC([H])([H])C14C([H])(C([H])([H])C([H])([H])C24[H])C([H])([H])C1(C([H])([H])[H])C2([H])C([H])([H])C4([H])C([H])([H])C2([H])[N+]([H])(C2(C(=O)N5C([H])([H])C([H])([H])OC([H])([H])C5([H])[H])SC42[H])C31[H]

$$$$
107:0:0
     RDKit          3D

 42 47  0  0  1  0  0  0  0  0999 V2000
    2.6711   -4.7782    0.4541 C   0  0  0  0  0  0  0  0  0  0  0  0
    3.8557   -3.9862   -0.1134 C   0  0  2  0  0  0  0  0  0  0  0  0
    5.3831   -4.7511    0.1502 C   0  0  0  0  0  0  0  0  0  0  0  0
    6.6788   -3.8222    0.8760 C   0  0  0  0  0  0  0  0  0  0  0  0
    6.5682   -2.0891    0.8754 C   0  0  2  0  0  0  0  0  0  0  0  0
    6.1934   -1.5228    2.1340 O   0  0  0  0  0  0  0  0  0  0  0  0
    4.9037   -1.4857    2.6118 C   0  0  0  0  0  0  0  0  0  0  0  0
    4.5975   -1.0455    3.7038 O   0  0  0  0  0  0  0  0  0  0  0  0
    3.8016   -1.9906    1.6396 C   0  0  1  0  0  0  0  0  0  0  0  0
    3.3364   -0.7853    0.8597 C   0  0  0  0  0  0  0  0  0  0  0  0
    4.0087   -1.0830   -0.4320 C   0  0  1  0  0  0  0  0  0  0  0  0
    5.6134   -1.3055   -0.2500 C   0  0  2  0  0  0  0  0  0  0  0  0
    5.2972   -2.5253   -0.8559 C   0  0  1  0  0  0  0  0  0  0  0  0
    6.6106   -2.9552   -1.7145 C   0  0  0  0  0  0  0  0  0  0  0  0
    4.4251   -3.1032    0.6877 C   0  0  2  0  0  0  0  0  0  0  0  0
    4.2740   -2.5456   -1.9631 C   0  0  2  0  0  0  0  0  0  0  0  0
    4.0698   -3.3445   -3.2271 C   0  0  0  0  0  0  0  0  0  0  0  0
    4.1959   -1.8209   -3.2694 C   0  0  1  0  0  0  0  0  0  0  0  0
    2.9840   -1.1794   -3.4996 O   0  0  0  0  0  0  0  0  0  0  0  0
    3.4097   -2.5766   -0.9037 C   0  0  1  0  0  0  0  0  0  0  0  0
    2.3202   -5.4921   -0.2980 H   0  0  0  0  0  0  0  0  0  0  0  0
    1.8379   -4.1112    0.7026 H   0  0  0  0  0  0  0  0  0  0  0  0
    2.9382   -5.3430    1.3557 H   0  0  0  0  0  0  0  0  0  0  0  0
    5.2059   -5.5843    0.8385 H   0  0  0  0  0  0  0  0  0  0  0  0
    5.7052   -5.2558   -0.7446 H   0  0  0  0  0  0  0  0  0  0  0  0
    6.7470   -4.1049    1.9265 H   0  0  0  0  0  0  0  0  0  0  0  0
    7.6293   -4.1570    0.4665 H   0  0  0  0  0  0  0  0  0  0  0  0
    7.5844   -1.7375    0.7441 H   0  0  0  0  0  0  0  0  0  0  0  0
    2.9792   -2.4025    2.2382 H   0  0  0  0  0  0  0  0  0  0  0  0
    2.2525   -0.8071    0.7663 H   0  0  0  0  0  0  0  0  0  0  0  0
    3.6343    0.1908    1.2694 H   0  0  0  0  0  0  0  0  0  0  0  0
    3.8628   -0.2739   -1.1275 H   0  0  0  0  0  0  0  0  0  0  0  0
    6.1752   -0.6495   -0.9088 H   0  0  0  0  0  0  0  0  0  0  0  0
    6.5024   -3.9225   -2.1725 H   0  0  0  0  0  0  0  0  0  0  0  0
    7.5861   -2.8870   -1.2397 H   0  0  0  0  0  0  0  0  0  0  0  0
    6.7246   -2.2974   -2.5685 H   0  0  0  0  0  0  0  0  0  0  0  0
    4.6134   -3.6132    1.6591 H   0  0  0  0  0  0  0  0  0  0  0  0
    4.9087   -3.8608   -3.7163 H   0  0  0  0  0  0  0  0  0  0  0  0
    3.0787   -3.7373   -3.4500 H   0  0  0  0  0  0  0  0  0  0  0  0
    5.0309   -1.3656   -3.7958 H   0  0  0  0  0  0  0  0  0  0  0  0
    2.4925   -1.2176   -2.6944 H   0  0  0  0  0  0  0  0  0  0  0  0
    2.3898   -2.5799   -1.2360 H   0  0  0  0  0  0  0  0  0  0  0  0
  2  1  1  1
  1 21  1  0
  1 22  1  0
  1 23  1  0
  2 15  1  0
  2 20  1  0
  2  3  1  0
  3  4  1  0
  3 24  1  0
  3 25  1  0
  4  5  1  0
  4 26  1  0
  4 27  1  0
  5 12  1  0
  5  6  1  0
  5 28  1  6
  6  7  1  0
  7  8  2  0
  7  9  1  0
  9 15  1  0
  9 10  1  0
  9 29  1  1
 10 11  1  0
 10 30  1  0
 10 31  1  0
 11 20  1  0
 11 12  1  0
 11 32  1  6
 12 13  1  0
 12 33  1  6
 13 14  1  6
 13 15  1  0
 13 16  1  0
 14 34  1  0
 14 35  1  0
 14 36  1  0
 15 37  1  1
 16 18  1  0
 16 17  1  6
 16 20  1  0
 17 18  1  0
 17 38  1  0
 17 39  1  0
 18 19  1  0
 18 40  1  6
 19 41  1  0
 20 42  1  6
M  END
>  <i_m_ct_stereo_status>  (358) 
1

>  <s_m_source_file>  (358) 
/var/tmp/pbs.5076255.sched01/tmpb6g28bo8/1236hu3uqnd.sdf

>  <i_m_source_file_index>  (358) 
30

>  <i_lp_mmshare_version>  (358) 
48012

>  <i_f3d_flags>  (358) 
0

>  <s_epik_input>  (358) 
W0NAQEhdMTJbQ0BIXTNbQ0gyXVtDQEhdKEMoTzQpPU8pW0NASF01W0NAXTEoW0NIM10pW0NIMl1bQ0gyXVtDQEhdNFtDQEhdM1tDQF01KFtDSDNdKVtDQEBdMjZbQ0gyXVtDQEhdNltPSF0=

>  <s_epik_cmdline>  (358) 
J2VwaWtfcHl0aG9uJywgJy1waHQnLCAnMi4wJywgJy1waCcsICc3LjAnLCAnLXRuJywgJzgnLCAnLW1hJywgJzIwMCcsICctaW1hZScsICc8aW5maWxlLm1hZT4nLCAnLW9tYWUnLCAnPG91dGZpbGUubWFlPic=

>  <r_lp_tautomer_probability>  (358) 
1

>  <r_epik_Ionization_Penalty>  (358) 
1.4423e-06

>  <r_epik_Ionization_Penalty_Charging>  (358) 
0

>  <r_epik_Ionization_Penalty_Neutral>  (358) 
1.4423e-06

>  <r_epik_State_Penalty>  (358) 
-0

>  <r_epik_Charging_Adjusted_Penalty>  (358) 
0

>  <i_epik_Tot_Q>  (358) 
0

>  <i_epik_Tot_abs_Q>  (358) 
0

>  <s_epik_Chemistry_Notes>  (358) 
This compound has an ester and may undergo hydrolysis at high or low pH.

>  <s_lp_Force_Field>  (358) 
OPLS3e

>  <r_lp_Energy>  (358) 
459.653

>  <b_lp_Chiralities_Consistent>  (358) 
1

>  <s_lp_Variant>  (358) 
107:0-1

>  <s_i_glide_gridfile>  (358) 
pfpi4k_grid

>  <i_i_glide_lignum>  (358) 
30

>  <i_i_glide_rotatable_bonds>  (358) 
1

>  <r_i_docking_score>  (358) 
-3.40471

>  <r_i_glide_ligand_efficiency>  (358) 
-0.170236

>  <r_i_glide_ligand_efficiency_sa>  (358) 
-0.46209

>  <r_i_glide_ligand_efficiency_ln>  (358) 
-0.852087

>  <r_i_glide_gscore>  (358) 
-3.40471

>  <r_i_glide_lipo>  (358) 
-0.453551

>  <r_i_glide_hbond>  (358) 
0

>  <r_i_glide_metal>  (358) 
-0

>  <r_i_glide_rewards>  (358) 
-1.64179

>  <r_i_glide_evdw>  (358) 
-24.7699

>  <r_i_glide_ecoul>  (358) 
-0.472496

>  <r_i_glide_erotb>  (358) 
0

>  <r_i_glide_esite>  (358) 
0

>  <r_i_glide_emodel>  (358) 
-29.0188

>  <r_i_glide_energy>  (358) 
-25.2424

>  <r_i_glide_einternal>  (358) 
0.218047

>  <r_i_glide_intrahb_reward>  (358) 
-0

>  <i_i_glide_confnum>  (358) 
2

>  <i_i_glide_posenum>  (358) 
5

>  <r_i_glide_eff_state_penalty>  (358) 
0

>  <ligand_id>  (358) 
107

>  <original_smiles>  (358) 
CC12CCC3OC(=O)C4CC5C3C(C)(C41)C1(CC1O)C52

>  <smiles>  (358) 
[H]OC1([H])C([H])([H])C12C1([H])C3([H])C([H])([H])C4([H])C(=O)OC5([H])C([H])([H])C([H])([H])C1(C([H])([H])[H])C4([H])C2(C([H])([H])[H])C53[H]

$$$$
108:0:0
     RDKit          3D

 79 84  0  0  1  0  0  0  0  0999 V2000
    6.4352   -5.9085    0.8079 C   0  0  0  0  0  0  0  0  0  0  0  0
    6.5387   -4.6422    0.1635 O   0  0  0  0  0  0  0  0  0  0  0  0
    5.3088   -4.1327   -0.3388 C   0  0  2  0  0  0  0  0  0  0  0  0
    5.2834   -2.6595   -0.7926 C   0  0  1  0  0  0  0  0  0  0  0  0
    3.8075   -2.5381   -1.2871 C   0  0  1  0  0  0  0  0  0  0  0  0
    3.5228   -2.7621   -2.8121 C   0  0  0  0  0  0  0  0  0  0  0  0
    2.0385   -3.0527   -3.0929 C   0  0  0  0  0  0  0  0  0  0  0  0
    3.9400   -1.5375   -3.6428 C   0  0  0  0  0  0  0  0  0  0  0  0
    4.2473   -3.8546   -3.3464 O   0  0  0  0  0  0  0  0  0  0  0  0
    3.0924   -3.4713   -0.2911 C   0  0  0  0  0  0  0  0  0  0  0  0
    4.2072   -3.9014    0.6915 C   0  0  2  0  0  0  0  0  0  0  0  0
    4.7196   -2.7353    1.6151 C   0  0  2  0  0  0  0  0  0  0  0  0
    5.6055   -3.3056    2.7516 C   0  0  0  0  0  0  0  0  0  0  0  0
    3.5472   -2.0397    2.3494 C   0  0  0  0  0  0  0  0  0  0  0  0
    2.4851   -2.7662    2.7644 C   0  0  0  0  0  0  0  0  0  0  0  0
    1.2305   -2.2069    3.3743 C   0  0  0  0  0  0  0  0  0  0  0  0
    1.0400   -0.7219    3.0329 C   0  0  1  0  0  0  0  0  0  0  0  0
   -0.2097   -0.1356    3.7578 C   0  0  1  0  0  0  0  0  0  0  0  0
   -0.3479   -0.4246    5.2707 C   0  0  0  0  0  0  0  0  0  0  0  0
   -1.3665    0.5988    5.7993 C   0  0  0  0  0  0  0  0  0  0  0  0
   -1.3821    1.6854    4.7372 C   0  0  0  0  0  0  0  0  0  0  0  0
   -2.1169    2.6736    4.7878 O   0  0  0  0  0  0  0  0  0  0  0  0
   -0.3836    1.3933    3.6170 C   0  0  2  0  0  0  0  0  0  0  0  0
   -0.9561    1.7957    2.2442 C   0  0  0  0  0  0  0  0  0  0  0  0
    0.9452    2.1184    3.9291 C   0  0  0  0  0  0  0  0  0  0  0  0
    2.1037    1.5807    3.0739 C   0  0  0  0  0  0  0  0  0  0  0  0
    2.3438    0.0620    3.2981 C   0  0  2  0  0  0  0  0  0  0  0  0
    3.6115   -0.5151    2.5485 C   0  0  1  0  0  0  0  0  0  0  0  0
    4.8197   -0.1289    3.4402 C   0  0  0  0  0  0  0  0  0  0  0  0
    3.7736    0.0586    1.1310 C   0  0  0  0  0  0  0  0  0  0  0  0
    5.0803   -0.3648    0.4462 C   0  0  0  0  0  0  0  0  0  0  0  0
    5.5158   -1.8581    0.5463 C   0  0  2  0  0  0  0  0  0  0  0  0
    7.0558   -1.7731    0.7835 C   0  0  0  0  0  0  0  0  0  0  0  0
    7.4293   -6.2398    1.1177 H   0  0  0  0  0  0  0  0  0  0  0  0
    5.9969   -6.6521    0.1455 H   0  0  0  0  0  0  0  0  0  0  0  0
    5.8200   -5.8650    1.7084 H   0  0  0  0  0  0  0  0  0  0  0  0
    4.9951   -4.8111   -1.1346 H   0  0  0  0  0  0  0  0  0  0  0  0
    6.0014   -2.4232   -1.5808 H   0  0  0  0  0  0  0  0  0  0  0  0
    3.4274   -1.5433   -1.0981 H   0  0  0  0  0  0  0  0  0  0  0  0
    1.4122   -2.2605   -2.7235 H   0  0  0  0  0  0  0  0  0  0  0  0
    1.7081   -3.9709   -2.6104 H   0  0  0  0  0  0  0  0  0  0  0  0
    1.8432   -3.1679   -4.1622 H   0  0  0  0  0  0  0  0  0  0  0  0
    3.4345   -0.6367   -3.2986 H   0  0  0  0  0  0  0  0  0  0  0  0
    3.6800   -1.6670   -4.6937 H   0  0  0  0  0  0  0  0  0  0  0  0
    5.0103   -1.3635   -3.5817 H   0  0  0  0  0  0  0  0  0  0  0  0
    3.8665   -4.6662   -3.0240 H   0  0  0  0  0  0  0  0  0  0  0  0
    2.2341   -2.9842    0.1678 H   0  0  0  0  0  0  0  0  0  0  0  0
    2.7283   -4.3819   -0.7646 H   0  0  0  0  0  0  0  0  0  0  0  0
    3.9035   -4.7953    1.2373 H   0  0  0  0  0  0  0  0  0  0  0  0
    6.4777   -3.8523    2.4075 H   0  0  0  0  0  0  0  0  0  0  0  0
    5.0294   -3.9909    3.3738 H   0  0  0  0  0  0  0  0  0  0  0  0
    5.9626   -2.5172    3.4086 H   0  0  0  0  0  0  0  0  0  0  0  0
    2.4862   -3.8376    2.6572 H   0  0  0  0  0  0  0  0  0  0  0  0
    0.3842   -2.7745    2.9885 H   0  0  0  0  0  0  0  0  0  0  0  0
    1.2895   -2.3812    4.4505 H   0  0  0  0  0  0  0  0  0  0  0  0
    0.8465   -0.6531    1.9574 H   0  0  0  0  0  0  0  0  0  0  0  0
   -1.0827   -0.5871    3.2889 H   0  0  0  0  0  0  0  0  0  0  0  0
   -0.6829   -1.4469    5.4556 H   0  0  0  0  0  0  0  0  0  0  0  0
    0.6043   -0.2802    5.7868 H   0  0  0  0  0  0  0  0  0  0  0  0
   -2.3671    0.1757    5.8808 H   0  0  0  0  0  0  0  0  0  0  0  0
   -1.0803    1.0058    6.7690 H   0  0  0  0  0  0  0  0  0  0  0  0
   -0.3612    1.4180    1.4156 H   0  0  0  0  0  0  0  0  0  0  0  0
   -0.9940    2.8772    2.1376 H   0  0  0  0  0  0  0  0  0  0  0  0
   -1.9691    1.4291    2.0968 H   0  0  0  0  0  0  0  0  0  0  0  0
    0.8375    3.1929    3.7568 H   0  0  0  0  0  0  0  0  0  0  0  0
    1.2065    2.0005    4.9826 H   0  0  0  0  0  0  0  0  0  0  0  0
    1.8727    1.7833    2.0227 H   0  0  0  0  0  0  0  0  0  0  0  0
    3.0083    2.1463    3.3053 H   0  0  0  0  0  0  0  0  0  0  0  0
    2.5366   -0.0614    4.3646 H   0  0  0  0  0  0  0  0  0  0  0  0
    4.8784    0.9426    3.6073 H   0  0  0  0  0  0  0  0  0  0  0  0
    5.7773   -0.4166    3.0243 H   0  0  0  0  0  0  0  0  0  0  0  0
    4.7492   -0.6036    4.4178 H   0  0  0  0  0  0  0  0  0  0  0  0
    2.9123   -0.2219    0.5272 H   0  0  0  0  0  0  0  0  0  0  0  0
    3.7764    1.1429    1.1532 H   0  0  0  0  0  0  0  0  0  0  0  0
    5.0275   -0.0931   -0.6022 H   0  0  0  0  0  0  0  0  0  0  0  0
    5.8584    0.2823    0.8543 H   0  0  0  0  0  0  0  0  0  0  0  0
    7.2884   -1.2011    1.6791 H   0  0  0  0  0  0  0  0  0  0  0  0
    7.5422   -1.2602   -0.0445 H   0  0  0  0  0  0  0  0  0  0  0  0
    7.5668   -2.7266    0.8817 H   0  0  0  0  0  0  0  0  0  0  0  0
  1  2  1  0
  1 34  1  0
  1 35  1  0
  1 36  1  0
  2  3  1  0
  3 11  1  0
  3  4  1  0
  3 37  1  6
  4 32  1  0
  4  5  1  0
  4 38  1  6
  5  6  1  0
  5 10  1  0
  5 39  1  1
  6  7  1  0
  6  8  1  0
  6  9  1  0
  7 40  1  0
  7 41  1  0
  7 42  1  0
  8 43  1  0
  8 44  1  0
  8 45  1  0
  9 46  1  0
 10 11  1  0
 10 47  1  0
 10 48  1  0
 11 12  1  0
 11 49  1  1
 12 32  1  0
 12 13  1  1
 12 14  1  0
 13 50  1  0
 13 51  1  0
 13 52  1  0
 14 28  1  0
 14 15  2  0
 15 16  1  0
 15 53  1  0
 16 17  1  0
 16 54  1  0
 16 55  1  0
 17 27  1  0
 17 18  1  0
 17 56  1  6
 18 23  1  0
 18 19  1  0
 18 57  1  6
 19 20  1  0
 19 58  1  0
 19 59  1  0
 20 21  1  0
 20 60  1  0
 20 61  1  0
 21 22  2  0
 21 23  1  0
 23 24  1  6
 23 25  1  0
 24 62  1  0
 24 63  1  0
 24 64  1  0
 25 26  1  0
 25 65  1  0
 25 66  1  0
 26 27  1  0
 26 67  1  0
 26 68  1  0
 27 28  1  0
 27 69  1  1
 28 29  1  1
 28 30  1  0
 29 70  1  0
 29 71  1  0
 29 72  1  0
 30 31  1  0
 30 73  1  0
 30 74  1  0
 31 32  1  0
 31 75  1  0
 31 76  1  0
 32 33  1  1
 33 77  1  0
 33 78  1  0
 33 79  1  0
M  END
>  <i_m_ct_stereo_status>  (359) 
1

>  <s_m_source_file>  (359) 
/var/tmp/pbs.5076255.sched01/tmpb6g28bo8/1236hu3uqnd.sdf

>  <i_m_source_file_index>  (359) 
31

>  <i_lp_mmshare_version>  (359) 
48012

>  <i_f3d_flags>  (359) 
0

>  <s_epik_input>  (359) 
W0NIM11bQ0BAXTEyW0NAQEhdM1tDQEhdKE9bQ0gzXSlbQ0BASF0oW0NASF0oW0NIMl0zKUMoW0NIM10pKFtDSDNdKVtPSF0pW0NAQF0yKFtDSDNdKVtDSDJdW0NIMl1bQ0BdNChbQ0gzXSlDMT1bQ0hdW0NIMl1bQ0BIXTVbQ0BASF02W0NAQF0oW0NIM10pKEMoPU8pW0NIMl1bQ0gyXTYpW0NIMl1bQ0gyXVtDQEhdNDU=

>  <s_epik_cmdline>  (359) 
J2VwaWtfcHl0aG9uJywgJy1waHQnLCAnMi4wJywgJy1waCcsICc3LjAnLCAnLXRuJywgJzgnLCAnLW1hJywgJzIwMCcsICctaW1hZScsICc8aW5maWxlLm1hZT4nLCAnLW9tYWUnLCAnPG91dGZpbGUubWFlPic=

>  <r_lp_tautomer_probability>  (359) 
1

>  <r_epik_Ionization_Penalty>  (359) 
6.26e-07

>  <r_epik_Ionization_Penalty_Charging>  (359) 
0

>  <r_epik_Ionization_Penalty_Neutral>  (359) 
6.26e-07

>  <r_epik_State_Penalty>  (359) 
-0

>  <r_epik_Charging_Adjusted_Penalty>  (359) 
0

>  <i_epik_Tot_Q>  (359) 
0

>  <i_epik_Tot_abs_Q>  (359) 
0

>  <s_lp_Force_Field>  (359) 
OPLS3e

>  <r_lp_Energy>  (359) 
81.8452

>  <b_lp_Chiralities_Consistent>  (359) 
1

>  <s_lp_Variant>  (359) 
108:0-1

>  <s_i_glide_gridfile>  (359) 
pfpi4k_grid

>  <i_i_glide_lignum>  (359) 
31

>  <i_i_glide_rotatable_bonds>  (359) 
3

>  <r_i_docking_score>  (359) 
-4.13046

>  <r_i_glide_ligand_efficiency>  (359) 
-0.125165

>  <r_i_glide_ligand_efficiency_sa>  (359) 
-0.401472

>  <r_i_glide_ligand_efficiency_ln>  (359) 
-0.918592

>  <r_i_glide_gscore>  (359) 
-4.13046

>  <r_i_glide_lipo>  (359) 
-1.05457

>  <r_i_glide_hbond>  (359) 
-0.32

>  <r_i_glide_metal>  (359) 
-0

>  <r_i_glide_rewards>  (359) 
-0.30897

>  <r_i_glide_evdw>  (359) 
-30.0038

>  <r_i_glide_ecoul>  (359) 
-6.83222

>  <r_i_glide_erotb>  (359) 
0.0971427

>  <r_i_glide_esite>  (359) 
-0.0190359

>  <r_i_glide_emodel>  (359) 
-43.8606

>  <r_i_glide_energy>  (359) 
-36.836

>  <r_i_glide_einternal>  (359) 
2.84272

>  <r_i_glide_intrahb_reward>  (359) 
-0

>  <i_i_glide_confnum>  (359) 
2

>  <i_i_glide_posenum>  (359) 
12

>  <r_i_glide_eff_state_penalty>  (359) 
0

>  <ligand_id>  (359) 
108

>  <original_smiles>  (359) 
COC1C2C(C(C)(C)O)CC1C1(C)C3=CCC4C5CCC(=O)C5(C)CCC4C3(C)CCC21C

>  <smiles>  (359) 
[H]OC(C([H])([H])[H])(C([H])([H])[H])C1([H])C([H])([H])C2([H])C([H])(OC([H])([H])[H])C1([H])C1(C([H])([H])[H])C([H])([H])C([H])([H])C3(C([H])([H])[H])C(=C([H])C([H])([H])C4([H])C5([H])C([H])([H])C([H])([H])C(=O)C5(C([H])([H])[H])C([H])([H])C([H])([H])C43[H])C21C([H])([H])[H]

$$$$
108:0:1
     RDKit          3D

 79 84  0  0  1  0  0  0  0  0999 V2000
    4.8487   -6.6349    0.4889 C   0  0  0  0  0  0  0  0  0  0  0  0
    3.9208   -5.7346    1.0694 O   0  0  0  0  0  0  0  0  0  0  0  0
    3.8896   -4.4579    0.4496 C   0  0  2  0  0  0  0  0  0  0  0  0
    5.0235   -3.4595    0.7523 C   0  0  1  0  0  0  0  0  0  0  0  0
    4.6078   -2.2560   -0.1456 C   0  0  1  0  0  0  0  0  0  0  0  0
    5.2046   -2.1898   -1.5915 C   0  0  0  0  0  0  0  0  0  0  0  0
    5.0976   -3.4924   -2.4008 C   0  0  0  0  0  0  0  0  0  0  0  0
    4.6026   -1.0312   -2.4106 C   0  0  0  0  0  0  0  0  0  0  0  0
    6.5884   -1.9099   -1.4636 O   0  0  0  0  0  0  0  0  0  0  0  0
    3.0696   -2.3456   -0.0481 C   0  0  0  0  0  0  0  0  0  0  0  0
    2.8221   -3.4996    0.9599 C   0  0  2  0  0  0  0  0  0  0  0  0
    3.2333   -3.1258    2.4322 C   0  0  2  0  0  0  0  0  0  0  0  0
    2.6583   -4.2074    3.3907 C   0  0  0  0  0  0  0  0  0  0  0  0
    2.6032   -1.7801    2.9005 C   0  0  0  0  0  0  0  0  0  0  0  0
    1.3634   -1.4477    2.4948 C   0  0  0  0  0  0  0  0  0  0  0  0
    0.6632   -0.1374    2.7432 C   0  0  0  0  0  0  0  0  0  0  0  0
    1.6535    0.9791    3.0836 C   0  0  1  0  0  0  0  0  0  0  0  0
    0.9078    2.3009    3.4449 C   0  0  1  0  0  0  0  0  0  0  0  0
   -0.2432    2.1958    4.4748 C   0  0  0  0  0  0  0  0  0  0  0  0
   -0.4869    3.6226    4.9850 C   0  0  0  0  0  0  0  0  0  0  0  0
    0.7915    4.3584    4.6257 C   0  0  0  0  0  0  0  0  0  0  0  0
    0.9607    5.5605    4.8401 O   0  0  0  0  0  0  0  0  0  0  0  0
    1.8204    3.4308    3.9779 C   0  0  2  0  0  0  0  0  0  0  0  0
    2.5895    4.1520    2.8516 C   0  0  0  0  0  0  0  0  0  0  0  0
    2.7700    2.8866    5.0726 C   0  0  0  0  0  0  0  0  0  0  0  0
    3.5682    1.6678    4.5883 C   0  0  0  0  0  0  0  0  0  0  0  0
    2.6519    0.4950    4.1592 C   0  0  2  0  0  0  0  0  0  0  0  0
    3.4337   -0.8306    3.7776 C   0  0  1  0  0  0  0  0  0  0  0  0
    3.7677   -1.5083    5.1328 C   0  0  0  0  0  0  0  0  0  0  0  0
    4.7098   -0.5561    2.9612 C   0  0  0  0  0  0  0  0  0  0  0  0
    5.5462   -1.8235    2.7197 C   0  0  0  0  0  0  0  0  0  0  0  0
    4.8186   -3.1347    2.2791 C   0  0  2  0  0  0  0  0  0  0  0  0
    5.5294   -4.2609    3.0949 C   0  0  0  0  0  0  0  0  0  0  0  0
    4.8279   -7.5795    1.0342 H   0  0  0  0  0  0  0  0  0  0  0  0
    5.8656   -6.2462    0.5376 H   0  0  0  0  0  0  0  0  0  0  0  0
    4.6038   -6.8447   -0.5525 H   0  0  0  0  0  0  0  0  0  0  0  0
    3.7222   -4.6556   -0.6043 H   0  0  0  0  0  0  0  0  0  0  0  0
    6.0242   -3.8192    0.5206 H   0  0  0  0  0  0  0  0  0  0  0  0
    4.9077   -1.3166    0.3064 H   0  0  0  0  0  0  0  0  0  0  0  0
    4.0581   -3.7750   -2.5732 H   0  0  0  0  0  0  0  0  0  0  0  0
    5.5883   -4.3169   -1.8880 H   0  0  0  0  0  0  0  0  0  0  0  0
    5.5646   -3.4094   -3.3814 H   0  0  0  0  0  0  0  0  0  0  0  0
    3.5175   -1.1172   -2.5187 H   0  0  0  0  0  0  0  0  0  0  0  0
    5.0084   -1.0085   -3.4220 H   0  0  0  0  0  0  0  0  0  0  0  0
    4.8074   -0.0670   -1.9440 H   0  0  0  0  0  0  0  0  0  0  0  0
    7.0120   -2.6839   -1.1306 H   0  0  0  0  0  0  0  0  0  0  0  0
    2.6335   -1.3876    0.2331 H   0  0  0  0  0  0  0  0  0  0  0  0
    2.6322   -2.6115   -1.0096 H   0  0  0  0  0  0  0  0  0  0  0  0
    1.8208   -3.9174    0.8720 H   0  0  0  0  0  0  0  0  0  0  0  0
    2.9298   -5.2247    3.1292 H   0  0  0  0  0  0  0  0  0  0  0  0
    1.5692   -4.1807    3.3769 H   0  0  0  0  0  0  0  0  0  0  0  0
    2.9663   -4.0572    4.4209 H   0  0  0  0  0  0  0  0  0  0  0  0
    0.7949   -2.1486    1.9209 H   0  0  0  0  0  0  0  0  0  0  0  0
    0.1132    0.1383    1.8414 H   0  0  0  0  0  0  0  0  0  0  0  0
   -0.0656   -0.3040    3.5353 H   0  0  0  0  0  0  0  0  0  0  0  0
    2.2332    1.1842    2.1796 H   0  0  0  0  0  0  0  0  0  0  0  0
    0.4537    2.6629    2.5166 H   0  0  0  0  0  0  0  0  0  0  0  0
   -1.1488    1.7834    4.0277 H   0  0  0  0  0  0  0  0  0  0  0  0
    0.0402    1.5604    5.3162 H   0  0  0  0  0  0  0  0  0  0  0  0
   -1.3219    4.0986    4.4744 H   0  0  0  0  0  0  0  0  0  0  0  0
   -0.6631    3.6589    6.0598 H   0  0  0  0  0  0  0  0  0  0  0  0
    3.1513    3.4505    2.2432 H   0  0  0  0  0  0  0  0  0  0  0  0
    3.2960    4.8810    3.2445 H   0  0  0  0  0  0  0  0  0  0  0  0
    1.9185    4.6835    2.1778 H   0  0  0  0  0  0  0  0  0  0  0  0
    3.4622    3.6674    5.3919 H   0  0  0  0  0  0  0  0  0  0  0  0
    2.2051    2.5998    5.9632 H   0  0  0  0  0  0  0  0  0  0  0  0
    4.1951    1.9773    3.7499 H   0  0  0  0  0  0  0  0  0  0  0  0
    4.2482    1.3495    5.3776 H   0  0  0  0  0  0  0  0  0  0  0  0
    2.0362    0.2536    5.0272 H   0  0  0  0  0  0  0  0  0  0  0  0
    4.3617   -0.8611    5.7747 H   0  0  0  0  0  0  0  0  0  0  0  0
    4.3275   -2.4307    5.0304 H   0  0  0  0  0  0  0  0  0  0  0  0
    2.8572   -1.7657    5.6741 H   0  0  0  0  0  0  0  0  0  0  0  0
    4.4446   -0.0737    2.0218 H   0  0  0  0  0  0  0  0  0  0  0  0
    5.3628    0.1448    3.4765 H   0  0  0  0  0  0  0  0  0  0  0  0
    6.3671   -1.5943    2.0406 H   0  0  0  0  0  0  0  0  0  0  0  0
    6.0300   -2.0089    3.6710 H   0  0  0  0  0  0  0  0  0  0  0  0
    5.4730   -4.0899    4.1695 H   0  0  0  0  0  0  0  0  0  0  0  0
    6.5811   -4.3113    2.8203 H   0  0  0  0  0  0  0  0  0  0  0  0
    5.1454   -5.2616    2.9412 H   0  0  0  0  0  0  0  0  0  0  0  0
  1  2  1  0
  1 34  1  0
  1 35  1  0
  1 36  1  0
  2  3  1  0
  3 11  1  0
  3  4  1  0
  3 37  1  6
  4 32  1  0
  4  5  1  0
  4 38  1  1
  5  6  1  0
  5 10  1  0
  5 39  1  1
  6  7  1  0
  6  8  1  0
  6  9  1  0
  7 40  1  0
  7 41  1  0
  7 42  1  0
  8 43  1  0
  8 44  1  0
  8 45  1  0
  9 46  1  0
 10 11  1  0
 10 47  1  0
 10 48  1  0
 11 12  1  0
 11 49  1  1
 12 32  1  0
 12 13  1  1
 12 14  1  0
 13 50  1  0
 13 51  1  0
 13 52  1  0
 14 28  1  0
 14 15  2  0
 15 16  1  0
 15 53  1  0
 16 17  1  0
 16 54  1  0
 16 55  1  0
 17 27  1  0
 17 18  1  0
 17 56  1  6
 18 23  1  0
 18 19  1  0
 18 57  1  6
 19 20  1  0
 19 58  1  0
 19 59  1  0
 20 21  1  0
 20 60  1  0
 20 61  1  0
 21 22  2  0
 21 23  1  0
 23 24  1  6
 23 25  1  0
 24 62  1  0
 24 63  1  0
 24 64  1  0
 25 26  1  0
 25 65  1  0
 25 66  1  0
 26 27  1  0
 26 67  1  0
 26 68  1  0
 27 28  1  0
 27 69  1  1
 28 29  1  1
 28 30  1  0
 29 70  1  0
 29 71  1  0
 29 72  1  0
 30 31  1  0
 30 73  1  0
 30 74  1  0
 31 32  1  0
 31 75  1  0
 31 76  1  0
 32 33  1  1
 33 77  1  0
 33 78  1  0
 33 79  1  0
M  END
>  <i_m_ct_stereo_status>  (360) 
1

>  <s_m_source_file>  (360) 
/var/tmp/pbs.5076255.sched01/tmpb6g28bo8/1236hu3uqnd.sdf

>  <i_m_source_file_index>  (360) 
31

>  <i_lp_mmshare_version>  (360) 
48012

>  <i_f3d_flags>  (360) 
0

>  <s_epik_input>  (360) 
W0NIM11bQ0BAXTEyW0NAQEhdM1tDQEhdKE9bQ0gzXSlbQ0BASF0oW0NASF0oW0NIMl0zKUMoW0NIM10pKFtDSDNdKVtPSF0pW0NAQF0yKFtDSDNdKVtDSDJdW0NIMl1bQ0BdNChbQ0gzXSlDMT1bQ0hdW0NIMl1bQ0BIXTVbQ0BASF02W0NAQF0oW0NIM10pKEMoPU8pW0NIMl1bQ0gyXTYpW0NIMl1bQ0gyXVtDQEhdNDU=

>  <s_epik_cmdline>  (360) 
J2VwaWtfcHl0aG9uJywgJy1waHQnLCAnMi4wJywgJy1waCcsICc3LjAnLCAnLXRuJywgJzgnLCAnLW1hJywgJzIwMCcsICctaW1hZScsICc8aW5maWxlLm1hZT4nLCAnLW9tYWUnLCAnPG91dGZpbGUubWFlPic=

>  <r_lp_tautomer_probability>  (360) 
1

>  <r_epik_Ionization_Penalty>  (360) 
6.26e-07

>  <r_epik_Ionization_Penalty_Charging>  (360) 
0

>  <r_epik_Ionization_Penalty_Neutral>  (360) 
6.26e-07

>  <r_epik_State_Penalty>  (360) 
-0

>  <r_epik_Charging_Adjusted_Penalty>  (360) 
0

>  <i_epik_Tot_Q>  (360) 
0

>  <i_epik_Tot_abs_Q>  (360) 
0

>  <s_lp_Force_Field>  (360) 
OPLS3e

>  <r_lp_Energy>  (360) 
81.8452

>  <b_lp_Chiralities_Consistent>  (360) 
1

>  <s_lp_Variant>  (360) 
108:0-1

>  <s_i_glide_gridfile>  (360) 
pfpi4k_grid

>  <i_i_glide_lignum>  (360) 
31

>  <i_i_glide_rotatable_bonds>  (360) 
3

>  <r_i_docking_score>  (360) 
-2.79694

>  <r_i_glide_ligand_efficiency>  (360) 
-0.0847558

>  <r_i_glide_ligand_efficiency_sa>  (360) 
-0.271857

>  <r_i_glide_ligand_efficiency_ln>  (360) 
-0.622026

>  <r_i_glide_gscore>  (360) 
-2.79694

>  <r_i_glide_lipo>  (360) 
-0.527047

>  <r_i_glide_hbond>  (360) 
-0.16

>  <r_i_glide_metal>  (360) 
-0

>  <r_i_glide_rewards>  (360) 
-0.30897

>  <r_i_glide_evdw>  (360) 
-21.3575

>  <r_i_glide_ecoul>  (360) 
-5.35242

>  <r_i_glide_erotb>  (360) 
0.0971427

>  <r_i_glide_esite>  (360) 
-0.0273299

>  <r_i_glide_emodel>  (360) 
-32.4208

>  <r_i_glide_energy>  (360) 
-26.7099

>  <r_i_glide_einternal>  (360) 
0.381899

>  <r_i_glide_intrahb_reward>  (360) 
-0

>  <i_i_glide_confnum>  (360) 
6

>  <i_i_glide_posenum>  (360) 
26

>  <r_i_glide_eff_state_penalty>  (360) 
0

>  <ligand_id>  (360) 
108

>  <original_smiles>  (360) 
COC1C2C(C(C)(C)O)CC1C1(C)C3=CCC4C5CCC(=O)C5(C)CCC4C3(C)CCC21C

>  <smiles>  (360) 
[H]OC(C([H])([H])[H])(C([H])([H])[H])C1([H])C([H])([H])C2([H])C([H])(OC([H])([H])[H])C1([H])C1(C([H])([H])[H])C([H])([H])C([H])([H])C3(C([H])([H])[H])C(=C([H])C([H])([H])C4([H])C5([H])C([H])([H])C([H])([H])C(=O)C5(C([H])([H])[H])C([H])([H])C([H])([H])C43[H])C21C([H])([H])[H]

$$$$
108:0:2
     RDKit          3D

 79 84  0  0  1  0  0  0  0  0999 V2000
    2.2879   -8.8447    7.7141 C   0  0  0  0  0  0  0  0  0  0  0  0
    2.5774   -9.2178    6.3739 O   0  0  0  0  0  0  0  0  0  0  0  0
    1.8113   -8.5202    5.3997 C   0  0  2  0  0  0  0  0  0  0  0  0
    1.9282   -8.9991    3.9474 C   0  0  1  0  0  0  0  0  0  0  0  0
    0.9110   -8.0500    3.2398 C   0  0  1  0  0  0  0  0  0  0  0  0
   -0.5616   -8.5587    3.0803 C   0  0  0  0  0  0  0  0  0  0  0  0
   -1.3697   -8.6754    4.3800 C   0  0  0  0  0  0  0  0  0  0  0  0
   -1.3599   -7.6848    2.1104 C   0  0  0  0  0  0  0  0  0  0  0  0
   -0.5365   -9.8401    2.4823 O   0  0  0  0  0  0  0  0  0  0  0  0
    1.1120   -6.7465    4.0532 C   0  0  0  0  0  0  0  0  0  0  0  0
    2.2615   -7.1085    5.0419 C   0  0  2  0  0  0  0  0  0  0  0  0
    3.6490   -7.2681    4.3203 C   0  0  2  0  0  0  0  0  0  0  0  0
    4.7643   -7.3117    5.4012 C   0  0  0  0  0  0  0  0  0  0  0  0
    3.9718   -6.0332    3.4399 C   0  0  0  0  0  0  0  0  0  0  0  0
    3.5977   -4.8007    3.8419 C   0  0  0  0  0  0  0  0  0  0  0  0
    3.7157   -3.5346    3.0361 C   0  0  0  0  0  0  0  0  0  0  0  0
    3.8531   -3.8256    1.5343 C   0  0  1  0  0  0  0  0  0  0  0  0
    4.0887   -2.5125    0.7294 C   0  0  1  0  0  0  0  0  0  0  0  0
    5.1917   -1.5626    1.2526 C   0  0  0  0  0  0  0  0  0  0  0  0
    5.5261   -0.6310    0.0857 C   0  0  0  0  0  0  0  0  0  0  0  0
    4.9970   -1.3656   -1.1354 C   0  0  0  0  0  0  0  0  0  0  0  0
    5.0196   -0.9055   -2.2766 O   0  0  0  0  0  0  0  0  0  0  0  0
    4.4213   -2.7314   -0.7654 C   0  0  2  0  0  0  0  0  0  0  0  0
    3.1772   -3.0514   -1.6195 C   0  0  0  0  0  0  0  0  0  0  0  0
    5.5245   -3.7986   -0.9332 C   0  0  0  0  0  0  0  0  0  0  0  0
    5.1416   -5.1069   -0.2253 C   0  0  0  0  0  0  0  0  0  0  0  0
    4.9205   -4.9137    1.2949 C   0  0  2  0  0  0  0  0  0  0  0  0
    4.6737   -6.2613    2.0837 C   0  0  1  0  0  0  0  0  0  0  0  0
    6.0796   -6.8723    2.3038 C   0  0  0  0  0  0  0  0  0  0  0  0
    3.7668   -7.2461    1.3166 C   0  0  0  0  0  0  0  0  0  0  0  0
    3.6432   -8.6197    1.9972 C   0  0  0  0  0  0  0  0  0  0  0  0
    3.4113   -8.6487    3.5482 C   0  0  2  0  0  0  0  0  0  0  0  0
    4.3172   -9.8245    4.0277 C   0  0  0  0  0  0  0  0  0  0  0  0
    2.9273   -9.3993    8.4017 H   0  0  0  0  0  0  0  0  0  0  0  0
    1.2516   -9.0660    7.9721 H   0  0  0  0  0  0  0  0  0  0  0  0
    2.4671   -7.7816    7.8719 H   0  0  0  0  0  0  0  0  0  0  0  0
    0.7913   -8.5094    5.7728 H   0  0  0  0  0  0  0  0  0  0  0  0
    1.6807  -10.0514    3.8160 H   0  0  0  0  0  0  0  0  0  0  0  0
    1.2403   -7.8720    2.2212 H   0  0  0  0  0  0  0  0  0  0  0  0
   -1.4741   -7.7399    4.9246 H   0  0  0  0  0  0  0  0  0  0  0  0
   -0.9106   -9.4130    5.0328 H   0  0  0  0  0  0  0  0  0  0  0  0
   -2.3778   -9.0407    4.1765 H   0  0  0  0  0  0  0  0  0  0  0  0
   -1.3997   -6.6595    2.4560 H   0  0  0  0  0  0  0  0  0  0  0  0
   -2.3897   -8.0434    2.0575 H   0  0  0  0  0  0  0  0  0  0  0  0
   -0.9358   -7.6969    1.1016 H   0  0  0  0  0  0  0  0  0  0  0  0
   -0.2301   -9.7807    1.5847 H   0  0  0  0  0  0  0  0  0  0  0  0
    1.2994   -5.8891    3.4053 H   0  0  0  0  0  0  0  0  0  0  0  0
    0.2334   -6.4841    4.6412 H   0  0  0  0  0  0  0  0  0  0  0  0
    2.2871   -6.4349    5.8997 H   0  0  0  0  0  0  0  0  0  0  0  0
    4.6173   -8.0722    6.1633 H   0  0  0  0  0  0  0  0  0  0  0  0
    4.8101   -6.3623    5.9319 H   0  0  0  0  0  0  0  0  0  0  0  0
    5.7501   -7.4856    4.9733 H   0  0  0  0  0  0  0  0  0  0  0  0
    3.1387   -4.6617    4.8105 H   0  0  0  0  0  0  0  0  0  0  0  0
    2.8247   -2.9281    3.2018 H   0  0  0  0  0  0  0  0  0  0  0  0
    4.5712   -2.9832    3.4289 H   0  0  0  0  0  0  0  0  0  0  0  0
    2.9026   -4.2356    1.1886 H   0  0  0  0  0  0  0  0  0  0  0  0
    3.1568   -1.9465    0.7688 H   0  0  0  0  0  0  0  0  0  0  0  0
    4.8544   -0.9881    2.1198 H   0  0  0  0  0  0  0  0  0  0  0  0
    6.0926   -2.1119    1.5394 H   0  0  0  0  0  0  0  0  0  0  0  0
    4.9945    0.3144    0.1860 H   0  0  0  0  0  0  0  0  0  0  0  0
    6.5938   -0.4272    0.0154 H   0  0  0  0  0  0  0  0  0  0  0  0
    2.6228   -3.8997   -1.2271 H   0  0  0  0  0  0  0  0  0  0  0  0
    3.4409   -3.2776   -2.6506 H   0  0  0  0  0  0  0  0  0  0  0  0
    2.4912   -2.2094   -1.6495 H   0  0  0  0  0  0  0  0  0  0  0  0
    5.7016   -3.9908   -1.9954 H   0  0  0  0  0  0  0  0  0  0  0  0
    6.4725   -3.4427   -0.5288 H   0  0  0  0  0  0  0  0  0  0  0  0
    4.2411   -5.5006   -0.7051 H   0  0  0  0  0  0  0  0  0  0  0  0
    5.9259   -5.8470   -0.3743 H   0  0  0  0  0  0  0  0  0  0  0  0
    5.8474   -4.4940    1.6812 H   0  0  0  0  0  0  0  0  0  0  0  0
    6.6009   -7.0494    1.3625 H   0  0  0  0  0  0  0  0  0  0  0  0
    6.0630   -7.8265    2.8167 H   0  0  0  0  0  0  0  0  0  0  0  0
    6.7050   -6.2132    2.9048 H   0  0  0  0  0  0  0  0  0  0  0  0
    2.7887   -6.7934    1.1640 H   0  0  0  0  0  0  0  0  0  0  0  0
    4.1559   -7.4377    0.3195 H   0  0  0  0  0  0  0  0  0  0  0  0
    2.8823   -9.2085    1.4940 H   0  0  0  0  0  0  0  0  0  0  0  0
    4.5652   -9.1568    1.7523 H   0  0  0  0  0  0  0  0  0  0  0  0
    5.3644   -9.6602    3.7803 H   0  0  0  0  0  0  0  0  0  0  0  0
    4.0180  -10.7549    3.5405 H   0  0  0  0  0  0  0  0  0  0  0  0
    4.2919  -10.0226    5.0947 H   0  0  0  0  0  0  0  0  0  0  0  0
  1  2  1  0
  1 34  1  0
  1 35  1  0
  1 36  1  0
  2  3  1  0
  3 11  1  0
  3  4  1  0
  3 37  1  1
  4 32  1  0
  4  5  1  0
  4 38  1  1
  5  6  1  0
  5 10  1  0
  5 39  1  6
  6  7  1  0
  6  8  1  0
  6  9  1  0
  7 40  1  0
  7 41  1  0
  7 42  1  0
  8 43  1  0
  8 44  1  0
  8 45  1  0
  9 46  1  0
 10 11  1  0
 10 47  1  0
 10 48  1  0
 11 12  1  0
 11 49  1  1
 12 32  1  0
 12 13  1  1
 12 14  1  0
 13 50  1  0
 13 51  1  0
 13 52  1  0
 14 28  1  0
 14 15  2  0
 15 16  1  0
 15 53  1  0
 16 17  1  0
 16 54  1  0
 16 55  1  0
 17 27  1  0
 17 18  1  0
 17 56  1  6
 18 23  1  0
 18 19  1  0
 18 57  1  6
 19 20  1  0
 19 58  1  0
 19 59  1  0
 20 21  1  0
 20 60  1  0
 20 61  1  0
 21 22  2  0
 21 23  1  0
 23 24  1  6
 23 25  1  0
 24 62  1  0
 24 63  1  0
 24 64  1  0
 25 26  1  0
 25 65  1  0
 25 66  1  0
 26 27  1  0
 26 67  1  0
 26 68  1  0
 27 28  1  0
 27 69  1  1
 28 29  1  1
 28 30  1  0
 29 70  1  0
 29 71  1  0
 29 72  1  0
 30 31  1  0
 30 73  1  0
 30 74  1  0
 31 32  1  0
 31 75  1  0
 31 76  1  0
 32 33  1  1
 33 77  1  0
 33 78  1  0
 33 79  1  0
M  END
>  <i_m_ct_stereo_status>  (361) 
1

>  <s_m_source_file>  (361) 
/var/tmp/pbs.5076255.sched01/tmpb6g28bo8/1236hu3uqnd.sdf

>  <i_m_source_file_index>  (361) 
31

>  <i_lp_mmshare_version>  (361) 
48012

>  <i_f3d_flags>  (361) 
0

>  <s_epik_input>  (361) 
W0NIM11bQ0BAXTEyW0NAQEhdM1tDQEhdKE9bQ0gzXSlbQ0BASF0oW0NASF0oW0NIMl0zKUMoW0NIM10pKFtDSDNdKVtPSF0pW0NAQF0yKFtDSDNdKVtDSDJdW0NIMl1bQ0BdNChbQ0gzXSlDMT1bQ0hdW0NIMl1bQ0BIXTVbQ0BASF02W0NAQF0oW0NIM10pKEMoPU8pW0NIMl1bQ0gyXTYpW0NIMl1bQ0gyXVtDQEhdNDU=

>  <s_epik_cmdline>  (361) 
J2VwaWtfcHl0aG9uJywgJy1waHQnLCAnMi4wJywgJy1waCcsICc3LjAnLCAnLXRuJywgJzgnLCAnLW1hJywgJzIwMCcsICctaW1hZScsICc8aW5maWxlLm1hZT4nLCAnLW9tYWUnLCAnPG91dGZpbGUubWFlPic=

>  <r_lp_tautomer_probability>  (361) 
1

>  <r_epik_Ionization_Penalty>  (361) 
6.26e-07

>  <r_epik_Ionization_Penalty_Charging>  (361) 
0

>  <r_epik_Ionization_Penalty_Neutral>  (361) 
6.26e-07

>  <r_epik_State_Penalty>  (361) 
-0

>  <r_epik_Charging_Adjusted_Penalty>  (361) 
0

>  <i_epik_Tot_Q>  (361) 
0

>  <i_epik_Tot_abs_Q>  (361) 
0

>  <s_lp_Force_Field>  (361) 
OPLS3e

>  <r_lp_Energy>  (361) 
81.8452

>  <b_lp_Chiralities_Consistent>  (361) 
1

>  <s_lp_Variant>  (361) 
108:0-1

>  <s_i_glide_gridfile>  (361) 
pfpi4k_grid

>  <i_i_glide_lignum>  (361) 
31

>  <i_i_glide_rotatable_bonds>  (361) 
3

>  <r_i_docking_score>  (361) 
-2.64338

>  <r_i_glide_ligand_efficiency>  (361) 
-0.0801023

>  <r_i_glide_ligand_efficiency_sa>  (361) 
-0.256931

>  <r_i_glide_ligand_efficiency_ln>  (361) 
-0.587873

>  <r_i_glide_gscore>  (361) 
-2.64338

>  <r_i_glide_lipo>  (361) 
-0.376929

>  <r_i_glide_hbond>  (361) 
-0.32

>  <r_i_glide_metal>  (361) 
-0

>  <r_i_glide_rewards>  (361) 
-0.30897

>  <r_i_glide_evdw>  (361) 
-25.2381

>  <r_i_glide_ecoul>  (361) 
-2.87947

>  <r_i_glide_erotb>  (361) 
0.0971427

>  <r_i_glide_esite>  (361) 
-0.0407959

>  <r_i_glide_emodel>  (361) 
-32.7474

>  <r_i_glide_energy>  (361) 
-28.1175

>  <r_i_glide_einternal>  (361) 
1.72126

>  <r_i_glide_intrahb_reward>  (361) 
-0

>  <i_i_glide_confnum>  (361) 
6

>  <i_i_glide_posenum>  (361) 
22

>  <r_i_glide_eff_state_penalty>  (361) 
0

>  <ligand_id>  (361) 
108

>  <original_smiles>  (361) 
COC1C2C(C(C)(C)O)CC1C1(C)C3=CCC4C5CCC(=O)C5(C)CCC4C3(C)CCC21C

>  <smiles>  (361) 
[H]OC(C([H])([H])[H])(C([H])([H])[H])C1([H])C([H])([H])C2([H])C([H])(OC([H])([H])[H])C1([H])C1(C([H])([H])[H])C([H])([H])C([H])([H])C3(C([H])([H])[H])C(=C([H])C([H])([H])C4([H])C5([H])C([H])([H])C([H])([H])C(=O)C5(C([H])([H])[H])C([H])([H])C([H])([H])C43[H])C21C([H])([H])[H]

$$$$
109:0:0
     RDKit          3D

 37 40  0  0  1  0  0  0  0  0999 V2000
    6.3414   -5.4594    1.4566 C   0  0  0  0  0  0  0  0  0  0  0  0
    6.5817   -4.2419    0.6878 N   0  0  0  0  0  0  0  0  0  0  0  0
    7.7357   -3.6086    0.4945 C   0  0  0  0  0  0  0  0  0  0  0  0
    8.8615   -3.9168    0.8925 O   0  0  0  0  0  0  0  0  0  0  0  0
    7.4366   -2.4057   -0.3815 C   0  0  1  0  0  0  0  0  0  0  0  0
    7.2138   -3.0576   -1.7653 C   0  0  0  0  0  0  0  0  0  0  0  0
    5.7974   -3.6766   -1.5763 C   0  0  2  0  0  0  0  0  0  0  0  0
    4.8253   -2.9046   -2.4115 C   0  0  0  0  0  0  0  0  0  0  0  0
    4.2727   -3.5250   -3.4687 N   0  0  0  0  0  0  0  0  0  0  0  0
    3.3373   -2.8412   -4.1442 C   0  0  0  0  0  0  0  0  0  0  0  0
    3.0225   -1.4962   -3.8953 C   0  0  0  0  0  0  0  0  0  0  0  0
    3.6676   -0.8532   -2.8292 C   0  0  0  0  0  0  0  0  0  0  0  0
    4.5868   -1.5715   -2.0563 C   0  0  0  0  0  0  0  0  0  0  0  0
    5.2974   -0.9837   -0.8482 C   0  0  0  0  0  0  0  0  0  0  0  0
    6.0070   -2.0197    0.1031 C   0  0  2  0  0  0  0  0  0  0  0  0
    5.9675   -1.4710    1.5663 C   0  0  0  0  0  0  0  0  0  0  0  0
    4.6548   -1.2200    2.0246 O   0  0  0  0  0  0  0  0  0  0  0  0
    5.5397   -3.4924   -0.0519 C   0  0  2  0  0  0  0  0  0  0  0  0
    4.0993   -3.8157    0.4036 C   0  0  0  0  0  0  0  0  0  0  0  0
    7.2652   -5.8570    1.8709 H   0  0  0  0  0  0  0  0  0  0  0  0
    5.9042   -6.2323    0.8298 H   0  0  0  0  0  0  0  0  0  0  0  0
    5.6722   -5.2690    2.2918 H   0  0  0  0  0  0  0  0  0  0  0  0
    8.2222   -1.6502   -0.3188 H   0  0  0  0  0  0  0  0  0  0  0  0
    7.2678   -2.3303   -2.5703 H   0  0  0  0  0  0  0  0  0  0  0  0
    7.9708   -3.8120   -1.9838 H   0  0  0  0  0  0  0  0  0  0  0  0
    5.6469   -4.7130   -1.8391 H   0  0  0  0  0  0  0  0  0  0  0  0
    2.8370   -3.3807   -4.9307 H   0  0  0  0  0  0  0  0  0  0  0  0
    2.2838   -0.9768   -4.4909 H   0  0  0  0  0  0  0  0  0  0  0  0
    3.4340    0.1673   -2.6205 H   0  0  0  0  0  0  0  0  0  0  0  0
    6.0094   -0.2552   -1.2087 H   0  0  0  0  0  0  0  0  0  0  0  0
    4.5402   -0.4042   -0.3208 H   0  0  0  0  0  0  0  0  0  0  0  0
    6.4208   -2.1324    2.3084 H   0  0  0  0  0  0  0  0  0  0  0  0
    6.5159   -0.5309    1.5943 H   0  0  0  0  0  0  0  0  0  0  0  0
    4.1423   -2.0096    1.8977 H   0  0  0  0  0  0  0  0  0  0  0  0
    3.3747   -3.1552   -0.0822 H   0  0  0  0  0  0  0  0  0  0  0  0
    3.9816   -3.7058    1.4839 H   0  0  0  0  0  0  0  0  0  0  0  0
    3.8253   -4.8448    0.1542 H   0  0  0  0  0  0  0  0  0  0  0  0
  1  2  1  0
  1 20  1  0
  1 21  1  0
  1 22  1  0
  2 18  1  0
  2  3  1  0
  3  4  2  0
  3  5  1  0
  5 15  1  0
  5  6  1  0
  5 23  1  6
  6  7  1  0
  6 24  1  0
  6 25  1  0
  7 18  1  0
  7  8  1  0
  7 26  1  6
  8 13  2  0
  8  9  1  0
  9 10  2  0
 10 11  1  0
 10 27  1  0
 11 12  2  0
 11 28  1  0
 12 13  1  0
 12 29  1  0
 13 14  1  0
 14 15  1  0
 14 30  1  0
 14 31  1  0
 15 16  1  1
 15 18  1  0
 16 17  1  0
 16 32  1  0
 16 33  1  0
 17 34  1  0
 18 19  1  6
 19 35  1  0
 19 36  1  0
 19 37  1  0
M  END
>  <i_m_ct_stereo_status>  (362) 
1

>  <s_m_source_file>  (362) 
/var/tmp/pbs.5076255.sched01/tmpb6g28bo8/1236hu3uqnd.sdf

>  <i_m_source_file_index>  (362) 
32

>  <i_lp_mmshare_version>  (362) 
48012

>  <i_f3d_flags>  (362) 
0

>  <s_epik_input>  (362) 
W09IXVtDSDJdW0NAXTEyW0NASF0zQyg9TylOKFtDSDNdKVtDQF0yKFtDSDNdKVtDQEhdKFtDSDJdMyljNGMoW0NIMl0xKVtjSF1bY0hdW2NIXW40

>  <s_epik_cmdline>  (362) 
J2VwaWtfcHl0aG9uJywgJy1waHQnLCAnMi4wJywgJy1waCcsICc3LjAnLCAnLXRuJywgJzgnLCAnLW1hJywgJzIwMCcsICctaW1hZScsICc8aW5maWxlLm1hZT4nLCAnLW9tYWUnLCAnPG91dGZpbGUubWFlPic=

>  <r_epik_Ionization_Penalty>  (362) 
0.401928

>  <r_epik_Ionization_Penalty_Charging>  (362) 
0

>  <r_epik_Ionization_Penalty_Neutral>  (362) 
0.401928

>  <r_epik_State_Penalty>  (362) 
0.401346

>  <r_epik_Charging_Adjusted_Penalty>  (362) 
0.401346

>  <i_epik_Tot_Q>  (362) 
0

>  <i_epik_Tot_abs_Q>  (362) 
0

>  <s_lp_Force_Field>  (362) 
OPLS3e

>  <r_lp_Energy>  (362) 
45.4746

>  <b_lp_Chiralities_Consistent>  (362) 
1

>  <s_lp_Variant>  (362) 
109:0-1

>  <s_i_glide_gridfile>  (362) 
pfpi4k_grid

>  <i_i_glide_lignum>  (362) 
32

>  <i_i_glide_rotatable_bonds>  (362) 
2

>  <r_i_docking_score>  (362) 
-3.63473

>  <r_i_glide_ligand_efficiency>  (362) 
-0.191302

>  <r_i_glide_ligand_efficiency_sa>  (362) 
-0.51047

>  <r_i_glide_ligand_efficiency_ln>  (362) 
-0.921483

>  <r_i_glide_gscore>  (362) 
-3.63473

>  <r_i_glide_lipo>  (362) 
-0.662332

>  <r_i_glide_hbond>  (362) 
0

>  <r_i_glide_metal>  (362) 
-0

>  <r_i_glide_rewards>  (362) 
-2.04648

>  <r_i_glide_evdw>  (362) 
-22.5429

>  <r_i_glide_ecoul>  (362) 
-0.423184

>  <r_i_glide_erotb>  (362) 
0.264697

>  <r_i_glide_esite>  (362) 
0

>  <r_i_glide_emodel>  (362) 
-26.6714

>  <r_i_glide_energy>  (362) 
-22.966

>  <r_i_glide_einternal>  (362) 
0.826754

>  <r_i_glide_intrahb_reward>  (362) 
-0

>  <i_i_glide_confnum>  (362) 
2

>  <i_i_glide_posenum>  (362) 
1

>  <r_i_glide_eff_state_penalty>  (362) 
0

>  <ligand_id>  (362) 
109

>  <original_smiles>  (362) 
CN1C(=O)C2CC3c4ncccc4CC2(CO)C31C

>  <smiles>  (362) 
[H]OC([H])([H])C12C([H])([H])c3c(nc([H])c([H])c3[H])C3([H])C([H])([H])C1([H])C(=O)N(C([H])([H])[H])C32C([H])([H])[H]

$$$$
109:0:1
     RDKit          3D

 37 40  0  0  1  0  0  0  0  0999 V2000
    6.2989   -5.5612    1.3210 C   0  0  0  0  0  0  0  0  0  0  0  0
    6.5290   -4.3056    0.6069 N   0  0  0  0  0  0  0  0  0  0  0  0
    7.6805   -3.6444    0.4777 C   0  0  0  0  0  0  0  0  0  0  0  0
    8.8009   -3.9514    0.8861 O   0  0  0  0  0  0  0  0  0  0  0  0
    7.3724   -2.4070   -0.3547 C   0  0  1  0  0  0  0  0  0  0  0  0
    7.2039   -2.9949   -1.7731 C   0  0  0  0  0  0  0  0  0  0  0  0
    5.8133   -3.6515   -1.6520 C   0  0  2  0  0  0  0  0  0  0  0  0
    4.8174   -2.8896   -2.4682 C   0  0  0  0  0  0  0  0  0  0  0  0
    4.2782   -3.4854   -3.5488 N   0  0  0  0  0  0  0  0  0  0  0  0
    3.3487   -2.7853   -4.2229 C   0  0  0  0  0  0  0  0  0  0  0  0
    3.0073   -1.4603   -3.9237 C   0  0  0  0  0  0  0  0  0  0  0  0
    3.6191   -0.8524   -2.8231 C   0  0  0  0  0  0  0  0  0  0  0  0
    4.5385   -1.5855   -2.0633 C   0  0  0  0  0  0  0  0  0  0  0  0
    5.2167   -1.0139   -0.8340 C   0  0  0  0  0  0  0  0  0  0  0  0
    5.9205   -2.0677    0.1013 C   0  0  2  0  0  0  0  0  0  0  0  0
    5.8363   -1.5697    1.5823 C   0  0  0  0  0  0  0  0  0  0  0  0
    4.5079   -1.4097    2.0473 O   0  0  0  0  0  0  0  0  0  0  0  0
    5.4932   -3.5459   -0.1282 C   0  0  2  0  0  0  0  0  0  0  0  0
    4.0453   -3.9208    0.2831 C   0  0  0  0  0  0  0  0  0  0  0  0
    7.2207   -5.9615    1.7372 H   0  0  0  0  0  0  0  0  0  0  0  0
    5.8846   -6.3164    0.6535 H   0  0  0  0  0  0  0  0  0  0  0  0
    5.6069   -5.4174    2.1503 H   0  0  0  0  0  0  0  0  0  0  0  0
    8.1371   -1.6386   -0.2613 H   0  0  0  0  0  0  0  0  0  0  0  0
    7.2495   -2.2564   -2.5691 H   0  0  0  0  0  0  0  0  0  0  0  0
    7.9668   -3.7366   -2.0149 H   0  0  0  0  0  0  0  0  0  0  0  0
    5.7974   -4.6634   -1.9929 H   0  0  0  0  0  0  0  0  0  0  0  0
    2.8828   -3.2823   -5.0550 H   0  0  0  0  0  0  0  0  0  0  0  0
    2.2643   -0.9247   -4.5063 H   0  0  0  0  0  0  0  0  0  0  0  0
    3.3722    0.1490   -2.5847 H   0  0  0  0  0  0  0  0  0  0  0  0
    5.9184   -0.2554   -1.1578 H   0  0  0  0  0  0  0  0  0  0  0  0
    4.4396   -0.4730   -0.2974 H   0  0  0  0  0  0  0  0  0  0  0  0
    6.3148   -2.2346    2.3028 H   0  0  0  0  0  0  0  0  0  0  0  0
    6.3427   -0.6073    1.6466 H   0  0  0  0  0  0  0  0  0  0  0  0
    4.0259   -0.8794    1.4276 H   0  0  0  0  0  0  0  0  0  0  0  0
    3.3171   -3.2550   -0.1859 H   0  0  0  0  0  0  0  0  0  0  0  0
    3.9060   -3.8420    1.3643 H   0  0  0  0  0  0  0  0  0  0  0  0
    3.7925   -4.9465   -0.0041 H   0  0  0  0  0  0  0  0  0  0  0  0
  1  2  1  0
  1 20  1  0
  1 21  1  0
  1 22  1  0
  2 18  1  0
  2  3  1  0
  3  4  2  0
  3  5  1  0
  5 15  1  0
  5  6  1  0
  5 23  1  6
  6  7  1  0
  6 24  1  0
  6 25  1  0
  7 18  1  0
  7  8  1  0
  7 26  1  6
  8 13  2  0
  8  9  1  0
  9 10  2  0
 10 11  1  0
 10 27  1  0
 11 12  2  0
 11 28  1  0
 12 13  1  0
 12 29  1  0
 13 14  1  0
 14 15  1  0
 14 30  1  0
 14 31  1  0
 15 16  1  1
 15 18  1  0
 16 17  1  0
 16 32  1  0
 16 33  1  0
 17 34  1  0
 18 19  1  6
 19 35  1  0
 19 36  1  0
 19 37  1  0
M  END
>  <i_m_ct_stereo_status>  (363) 
1

>  <s_m_source_file>  (363) 
/var/tmp/pbs.5076255.sched01/tmpb6g28bo8/1236hu3uqnd.sdf

>  <i_m_source_file_index>  (363) 
32

>  <i_lp_mmshare_version>  (363) 
48012

>  <i_f3d_flags>  (363) 
0

>  <s_epik_input>  (363) 
W09IXVtDSDJdW0NAXTEyW0NASF0zQyg9TylOKFtDSDNdKVtDQF0yKFtDSDNdKVtDQEhdKFtDSDJdMyljNGMoW0NIMl0xKVtjSF1bY0hdW2NIXW40

>  <s_epik_cmdline>  (363) 
J2VwaWtfcHl0aG9uJywgJy1waHQnLCAnMi4wJywgJy1waCcsICc3LjAnLCAnLXRuJywgJzgnLCAnLW1hJywgJzIwMCcsICctaW1hZScsICc8aW5maWxlLm1hZT4nLCAnLW9tYWUnLCAnPG91dGZpbGUubWFlPic=

>  <r_epik_Ionization_Penalty>  (363) 
0.401928

>  <r_epik_Ionization_Penalty_Charging>  (363) 
0

>  <r_epik_Ionization_Penalty_Neutral>  (363) 
0.401928

>  <r_epik_State_Penalty>  (363) 
0.401346

>  <r_epik_Charging_Adjusted_Penalty>  (363) 
0.401346

>  <i_epik_Tot_Q>  (363) 
0

>  <i_epik_Tot_abs_Q>  (363) 
0

>  <s_lp_Force_Field>  (363) 
OPLS3e

>  <r_lp_Energy>  (363) 
45.4746

>  <b_lp_Chiralities_Consistent>  (363) 
1

>  <s_lp_Variant>  (363) 
109:0-1

>  <s_i_glide_gridfile>  (363) 
pfpi4k_grid

>  <i_i_glide_lignum>  (363) 
32

>  <i_i_glide_rotatable_bonds>  (363) 
2

>  <r_i_docking_score>  (363) 
-3.6148

>  <r_i_glide_ligand_efficiency>  (363) 
-0.190253

>  <r_i_glide_ligand_efficiency_sa>  (363) 
-0.50767

>  <r_i_glide_ligand_efficiency_ln>  (363) 
-0.916429

>  <r_i_glide_gscore>  (363) 
-3.6148

>  <r_i_glide_lipo>  (363) 
-0.638719

>  <r_i_glide_hbond>  (363) 
0

>  <r_i_glide_metal>  (363) 
-0

>  <r_i_glide_rewards>  (363) 
-2.04453

>  <r_i_glide_evdw>  (363) 
-22.2975

>  <r_i_glide_ecoul>  (363) 
-0.542472

>  <r_i_glide_erotb>  (363) 
0.264697

>  <r_i_glide_esite>  (363) 
0

>  <r_i_glide_emodel>  (363) 
-27.0167

>  <r_i_glide_energy>  (363) 
-22.84

>  <r_i_glide_einternal>  (363) 
0.770408

>  <r_i_glide_intrahb_reward>  (363) 
-0

>  <i_i_glide_confnum>  (363) 
2

>  <i_i_glide_posenum>  (363) 
35

>  <r_i_glide_eff_state_penalty>  (363) 
0

>  <ligand_id>  (363) 
109

>  <original_smiles>  (363) 
CN1C(=O)C2CC3c4ncccc4CC2(CO)C31C

>  <smiles>  (363) 
[H]OC([H])([H])C12C([H])([H])c3c(nc([H])c([H])c3[H])C3([H])C([H])([H])C1([H])C(=O)N(C([H])([H])[H])C32C([H])([H])[H]

$$$$
109:0:2
     RDKit          3D

 37 40  0  0  1  0  0  0  0  0999 V2000
    3.2393   -4.3882    2.9715 C   0  0  0  0  0  0  0  0  0  0  0  0
    4.2162   -3.9585    1.9783 N   0  0  0  0  0  0  0  0  0  0  0  0
    5.4885   -4.3641    1.8701 C   0  0  0  0  0  0  0  0  0  0  0  0
    6.0971   -5.1665    2.5711 O   0  0  0  0  0  0  0  0  0  0  0  0
    6.0633   -3.6306    0.6628 C   0  0  1  0  0  0  0  0  0  0  0  0
    5.3769   -4.3163   -0.5464 C   0  0  0  0  0  0  0  0  0  0  0  0
    3.9378   -3.7349   -0.4619 C   0  0  2  0  0  0  0  0  0  0  0  0
    3.7206   -2.7624   -1.6021 C   0  0  0  0  0  0  0  0  0  0  0  0
    2.7993   -3.0626   -2.5395 N   0  0  0  0  0  0  0  0  0  0  0  0
    2.6295   -2.1857   -3.5458 C   0  0  0  0  0  0  0  0  0  0  0  0
    3.3661   -0.9897   -3.6629 C   0  0  0  0  0  0  0  0  0  0  0  0
    4.3153   -0.6849   -2.6721 C   0  0  0  0  0  0  0  0  0  0  0  0
    4.5129   -1.6032   -1.6225 C   0  0  0  0  0  0  0  0  0  0  0  0
    5.5297   -1.3715   -0.5138 C   0  0  0  0  0  0  0  0  0  0  0  0
    5.3412   -2.2532    0.7755 C   0  0  2  0  0  0  0  0  0  0  0  0
    5.7836   -1.4221    2.0325 C   0  0  0  0  0  0  0  0  0  0  0  0
    5.0161   -0.2536    2.1962 O   0  0  0  0  0  0  0  0  0  0  0  0
    3.9646   -2.9745    0.9049 C   0  0  2  0  0  0  0  0  0  0  0  0
    2.7430   -2.0656    1.1869 C   0  0  0  0  0  0  0  0  0  0  0  0
    3.6392   -5.1698    3.6144 H   0  0  0  0  0  0  0  0  0  0  0  0
    2.3515   -4.7859    2.4840 H   0  0  0  0  0  0  0  0  0  0  0  0
    2.9442   -3.5599    3.6116 H   0  0  0  0  0  0  0  0  0  0  0  0
    7.1514   -3.6222    0.6428 H   0  0  0  0  0  0  0  0  0  0  0  0
    5.8707   -4.0911   -1.4935 H   0  0  0  0  0  0  0  0  0  0  0  0
    5.3694   -5.4042   -0.4456 H   0  0  0  0  0  0  0  0  0  0  0  0
    3.1795   -4.5211   -0.4752 H   0  0  0  0  0  0  0  0  0  0  0  0
    1.8836   -2.4451   -4.2799 H   0  0  0  0  0  0  0  0  0  0  0  0
    3.1737   -0.3069   -4.4797 H   0  0  0  0  0  0  0  0  0  0  0  0
    4.8770    0.2335   -2.7218 H   0  0  0  0  0  0  0  0  0  0  0  0
    6.5343   -1.5086   -0.9183 H   0  0  0  0  0  0  0  0  0  0  0  0
    5.4396   -0.3122   -0.2672 H   0  0  0  0  0  0  0  0  0  0  0  0
    5.7183   -1.9682    2.9755 H   0  0  0  0  0  0  0  0  0  0  0  0
    6.8235   -1.1154    1.9186 H   0  0  0  0  0  0  0  0  0  0  0  0
    4.1003   -0.4888    2.2062 H   0  0  0  0  0  0  0  0  0  0  0  0
    2.6631   -1.2645    0.4490 H   0  0  0  0  0  0  0  0  0  0  0  0
    2.8020   -1.5966    2.1707 H   0  0  0  0  0  0  0  0  0  0  0  0
    1.8119   -2.6294    1.1601 H   0  0  0  0  0  0  0  0  0  0  0  0
  1  2  1  0
  1 20  1  0
  1 21  1  0
  1 22  1  0
  2 18  1  0
  2  3  1  0
  3  4  2  0
  3  5  1  0
  5 15  1  0
  5  6  1  0
  5 23  1  6
  6  7  1  0
  6 24  1  0
  6 25  1  0
  7 18  1  0
  7  8  1  0
  7 26  1  1
  8 13  2  0
  8  9  1  0
  9 10  2  0
 10 11  1  0
 10 27  1  0
 11 12  2  0
 11 28  1  0
 12 13  1  0
 12 29  1  0
 13 14  1  0
 14 15  1  0
 14 30  1  0
 14 31  1  0
 15 16  1  1
 15 18  1  0
 16 17  1  0
 16 32  1  0
 16 33  1  0
 17 34  1  0
 18 19  1  1
 19 35  1  0
 19 36  1  0
 19 37  1  0
M  END
>  <i_m_ct_stereo_status>  (364) 
1

>  <s_m_source_file>  (364) 
/var/tmp/pbs.5076255.sched01/tmpb6g28bo8/1236hu3uqnd.sdf

>  <i_m_source_file_index>  (364) 
32

>  <i_lp_mmshare_version>  (364) 
48012

>  <i_f3d_flags>  (364) 
0

>  <s_epik_input>  (364) 
W09IXVtDSDJdW0NAXTEyW0NASF0zQyg9TylOKFtDSDNdKVtDQF0yKFtDSDNdKVtDQEhdKFtDSDJdMyljNGMoW0NIMl0xKVtjSF1bY0hdW2NIXW40

>  <s_epik_cmdline>  (364) 
J2VwaWtfcHl0aG9uJywgJy1waHQnLCAnMi4wJywgJy1waCcsICc3LjAnLCAnLXRuJywgJzgnLCAnLW1hJywgJzIwMCcsICctaW1hZScsICc8aW5maWxlLm1hZT4nLCAnLW9tYWUnLCAnPG91dGZpbGUubWFlPic=

>  <r_epik_Ionization_Penalty>  (364) 
0.401928

>  <r_epik_Ionization_Penalty_Charging>  (364) 
0

>  <r_epik_Ionization_Penalty_Neutral>  (364) 
0.401928

>  <r_epik_State_Penalty>  (364) 
0.401346

>  <r_epik_Charging_Adjusted_Penalty>  (364) 
0.401346

>  <i_epik_Tot_Q>  (364) 
0

>  <i_epik_Tot_abs_Q>  (364) 
0

>  <s_lp_Force_Field>  (364) 
OPLS3e

>  <r_lp_Energy>  (364) 
45.4746

>  <b_lp_Chiralities_Consistent>  (364) 
1

>  <s_lp_Variant>  (364) 
109:0-1

>  <s_i_glide_gridfile>  (364) 
pfpi4k_grid

>  <i_i_glide_lignum>  (364) 
32

>  <i_i_glide_rotatable_bonds>  (364) 
2

>  <r_i_docking_score>  (364) 
-3.50054

>  <r_i_glide_ligand_efficiency>  (364) 
-0.184239

>  <r_i_glide_ligand_efficiency_sa>  (364) 
-0.491624

>  <r_i_glide_ligand_efficiency_ln>  (364) 
-0.887463

>  <r_i_glide_gscore>  (364) 
-3.50054

>  <r_i_glide_lipo>  (364) 
-0.849662

>  <r_i_glide_hbond>  (364) 
-0.0883783

>  <r_i_glide_metal>  (364) 
-0

>  <r_i_glide_rewards>  (364) 
-1.71238

>  <r_i_glide_evdw>  (364) 
-22.9105

>  <r_i_glide_ecoul>  (364) 
0.204714

>  <r_i_glide_erotb>  (364) 
0.264697

>  <r_i_glide_esite>  (364) 
0

>  <r_i_glide_emodel>  (364) 
-26.8307

>  <r_i_glide_energy>  (364) 
-22.7057

>  <r_i_glide_einternal>  (364) 
0.769138

>  <r_i_glide_intrahb_reward>  (364) 
-0

>  <i_i_glide_confnum>  (364) 
4

>  <i_i_glide_posenum>  (364) 
39

>  <r_i_glide_eff_state_penalty>  (364) 
0

>  <ligand_id>  (364) 
109

>  <original_smiles>  (364) 
CN1C(=O)C2CC3c4ncccc4CC2(CO)C31C

>  <smiles>  (364) 
[H]OC([H])([H])C12C([H])([H])c3c(nc([H])c([H])c3[H])C3([H])C([H])([H])C1([H])C(=O)N(C([H])([H])[H])C32C([H])([H])[H]

$$$$
109:1:0
     RDKit          3D

 38 41  0  0  1  0  0  0  0  0999 V2000
    3.9933   -4.3374    2.9410 C   0  0  0  0  0  0  0  0  0  0  0  0
    4.7834   -4.0050    1.7602 N   0  0  0  0  0  0  0  0  0  0  0  0
    5.9936   -4.4578    1.4378 C   0  0  0  0  0  0  0  0  0  0  0  0
    6.7090   -5.2381    2.0679 O   0  0  0  0  0  0  0  0  0  0  0  0
    6.3503   -3.8529    0.0923 C   0  0  1  0  0  0  0  0  0  0  0  0
    5.4148   -4.5986   -0.8961 C   0  0  0  0  0  0  0  0  0  0  0  0
    4.0362   -3.9651   -0.5849 C   0  0  2  0  0  0  0  0  0  0  0  0
    3.6352   -3.0918   -1.7385 C   0  0  0  0  0  0  0  0  0  0  0  0
    2.6000   -3.4178   -2.5359 N   0  0  0  0  0  0  0  0  0  0  0  0
    2.2541   -2.6568   -3.5912 C   0  0  0  0  0  0  0  0  0  0  0  0
    2.9742   -1.4794   -3.8993 C   0  0  0  0  0  0  0  0  0  0  0  0
    4.0697   -1.1200   -3.0946 C   0  0  0  0  0  0  0  0  0  0  0  0
    4.4145   -1.9501   -2.0079 C   0  0  0  0  0  0  0  0  0  0  0  0
    5.6138   -1.6582   -1.1317 C   0  0  0  0  0  0  0  0  0  0  0  0
    5.6875   -2.4473    0.2179 C   0  0  2  0  0  0  0  0  0  0  0  0
    6.3446   -1.5257    1.2916 C   0  0  0  0  0  0  0  0  0  0  0  0
    7.5927   -1.0688    0.8203 O   0  0  0  0  0  0  0  0  0  0  0  0
    4.3469   -3.1036    0.6752 C   0  0  2  0  0  0  0  0  0  0  0  0
    3.2257   -2.1243    1.0986 C   0  0  0  0  0  0  0  0  0  0  0  0
    4.5023   -5.0753    3.5647 H   0  0  0  0  0  0  0  0  0  0  0  0
    3.0287   -4.7599    2.6559 H   0  0  0  0  0  0  0  0  0  0  0  0
    3.8240   -3.4528    3.5562 H   0  0  0  0  0  0  0  0  0  0  0  0
    7.4116   -3.8815   -0.1422 H   0  0  0  0  0  0  0  0  0  0  0  0
    5.7148   -4.4525   -1.9374 H   0  0  0  0  0  0  0  0  0  0  0  0
    5.4034   -5.6768   -0.7055 H   0  0  0  0  0  0  0  0  0  0  0  0
    3.2740   -4.7250   -0.3906 H   0  0  0  0  0  0  0  0  0  0  0  0
    1.4220   -3.0020   -4.1706 H   0  0  0  0  0  0  0  0  0  0  0  0
    2.6577   -0.8471   -4.7129 H   0  0  0  0  0  0  0  0  0  0  0  0
    4.6061   -0.2112   -3.3092 H   0  0  0  0  0  0  0  0  0  0  0  0
    6.5256   -1.8245   -1.7065 H   0  0  0  0  0  0  0  0  0  0  0  0
    5.5640   -0.5906   -0.9147 H   0  0  0  0  0  0  0  0  0  0  0  0
    5.7122   -0.6554    1.4716 H   0  0  0  0  0  0  0  0  0  0  0  0
    6.4800   -1.9932    2.2671 H   0  0  0  0  0  0  0  0  0  0  0  0
    7.7933   -0.2357    1.2691 H   0  0  0  0  0  0  0  0  0  0  0  0
    3.0068   -1.3974    0.3158 H   0  0  0  0  0  0  0  0  0  0  0  0
    3.5047   -1.5612    1.9899 H   0  0  0  0  0  0  0  0  0  0  0  0
    2.2968   -2.6572    1.3153 H   0  0  0  0  0  0  0  0  0  0  0  0
    2.0892   -4.2932   -2.3520 H   0  0  0  0  0  0  0  0  0  0  0  0
  1  2  1  0
  1 20  1  0
  1 21  1  0
  1 22  1  0
  2 18  1  0
  2  3  1  0
  3  4  2  0
  3  5  1  0
  5 15  1  0
  5  6  1  0
  5 23  1  6
  6  7  1  0
  6 24  1  0
  6 25  1  0
  7 18  1  0
  7  8  1  0
  7 26  1  1
  8 13  2  0
  8  9  1  0
  9 10  2  0
  9 38  1  0
 10 11  1  0
 10 27  1  0
 11 12  2  0
 11 28  1  0
 12 13  1  0
 12 29  1  0
 13 14  1  0
 14 15  1  0
 14 30  1  0
 14 31  1  0
 15 16  1  1
 15 18  1  0
 16 17  1  0
 16 32  1  0
 16 33  1  0
 17 34  1  0
 18 19  1  1
 19 35  1  0
 19 36  1  0
 19 37  1  0
M  CHG  1   9   1
M  END
>  <i_m_ct_stereo_status>  (365) 
1

>  <s_m_source_file>  (365) 
/var/tmp/pbs.5076255.sched01/tmpb6g28bo8/1236hu3uqnd.sdf

>  <i_m_source_file_index>  (365) 
33

>  <i_lp_mmshare_version>  (365) 
48012

>  <i_f3d_flags>  (365) 
0

>  <s_epik_input>  (365) 
W09IXVtDSDJdW0NAXTEyW0NASF0zQyg9TylOKFtDSDNdKVtDQF0yKFtDSDNdKVtDQEhdKFtDSDJdMyljNGMoW0NIMl0xKVtjSF1bY0hdW2NIXW40

>  <s_epik_cmdline>  (365) 
J2VwaWtfcHl0aG9uJywgJy1waHQnLCAnMi4wJywgJy1waCcsICc3LjAnLCAnLXRuJywgJzgnLCAnLW1hJywgJzIwMCcsICctaW1hZScsICc8aW5maWxlLm1hZT4nLCAnLW9tYWUnLCAnPG91dGZpbGUubWFlPic=

>  <r_epik_Ionization_Penalty>  (365) 
0.419563

>  <r_epik_Ionization_Penalty_Charging>  (365) 
0.419563

>  <r_epik_Ionization_Penalty_Neutral>  (365) 
6.4244e-08

>  <r_epik_State_Penalty>  (365) 
0.420163

>  <r_epik_Charging_Adjusted_Penalty>  (365) 
0.839726

>  <i_epik_Tot_Q>  (365) 
1

>  <i_epik_Tot_abs_Q>  (365) 
1

>  <s_lp_Force_Field>  (365) 
OPLS3e

>  <r_lp_Energy>  (365) 
53.9633

>  <b_lp_Chiralities_Consistent>  (365) 
1

>  <s_lp_Variant>  (365) 
109:0-2

>  <s_i_glide_gridfile>  (365) 
pfpi4k_grid

>  <i_i_glide_lignum>  (365) 
33

>  <i_i_glide_rotatable_bonds>  (365) 
2

>  <r_i_docking_score>  (365) 
-4.88162

>  <r_i_glide_ligand_efficiency>  (365) 
-0.256927

>  <r_i_glide_ligand_efficiency_sa>  (365) 
-0.685585

>  <r_i_glide_ligand_efficiency_ln>  (365) 
-1.2376

>  <r_i_glide_gscore>  (365) 
-4.88162

>  <r_i_glide_lipo>  (365) 
-0.734306

>  <r_i_glide_hbond>  (365) 
-0.32

>  <r_i_glide_metal>  (365) 
-0

>  <r_i_glide_rewards>  (365) 
-1.774

>  <r_i_glide_evdw>  (365) 
-17.5447

>  <r_i_glide_ecoul>  (365) 
-9.5934

>  <r_i_glide_erotb>  (365) 
0.262929

>  <r_i_glide_esite>  (365) 
0

>  <r_i_glide_emodel>  (365) 
-35.0718

>  <r_i_glide_energy>  (365) 
-27.1381

>  <r_i_glide_einternal>  (365) 
0.979036

>  <r_i_glide_intrahb_reward>  (365) 
-0

>  <i_i_glide_confnum>  (365) 
2

>  <i_i_glide_posenum>  (365) 
7

>  <r_i_glide_eff_state_penalty>  (365) 
0

>  <ligand_id>  (365) 
109

>  <original_smiles>  (365) 
CN1C(=O)C2CC3c4ncccc4CC2(CO)C31C

>  <smiles>  (365) 
[H]OC([H])([H])C12C([H])([H])c3c([H])c([H])c([H])[n+]([H])c3C3([H])C([H])([H])C1([H])C(=O)N(C([H])([H])[H])C32C([H])([H])[H]

$$$$
109:1:1
     RDKit          3D

 38 41  0  0  1  0  0  0  0  0999 V2000
    4.4167   -2.4410    3.9051 C   0  0  0  0  0  0  0  0  0  0  0  0
    4.3622   -3.3348    2.7506 N   0  0  0  0  0  0  0  0  0  0  0  0
    3.9755   -4.6142    2.7489 C   0  0  0  0  0  0  0  0  0  0  0  0
    3.5886   -5.3042    3.6923 O   0  0  0  0  0  0  0  0  0  0  0  0
    4.0673   -5.0639    1.2947 C   0  0  1  0  0  0  0  0  0  0  0  0
    2.8820   -4.3402    0.6048 C   0  0  0  0  0  0  0  0  0  0  0  0
    3.4070   -2.8781    0.5269 C   0  0  2  0  0  0  0  0  0  0  0  0
    3.7268   -2.5337   -0.9044 C   0  0  0  0  0  0  0  0  0  0  0  0
    3.0164   -1.6021   -1.5644 N   0  0  0  0  0  0  0  0  0  0  0  0
    3.2673   -1.3084   -2.8570 C   0  0  0  0  0  0  0  0  0  0  0  0
    4.3016   -1.9672   -3.5499 C   0  0  0  0  0  0  0  0  0  0  0  0
    5.0557   -2.9566   -2.8906 C   0  0  0  0  0  0  0  0  0  0  0  0
    4.7661   -3.2398   -1.5430 C   0  0  0  0  0  0  0  0  0  0  0  0
    5.5220   -4.3046   -0.7562 C   0  0  0  0  0  0  0  0  0  0  0  0
    5.3213   -4.2822    0.8011 C   0  0  2  0  0  0  0  0  0  0  0  0
    6.6573   -4.7309    1.4844 C   0  0  0  0  0  0  0  0  0  0  0  0
    7.0064   -6.0405    1.0927 O   0  0  0  0  0  0  0  0  0  0  0  0
    4.7263   -2.9558    1.3638 C   0  0  2  0  0  0  0  0  0  0  0  0
    5.6488   -1.7125    1.2918 C   0  0  0  0  0  0  0  0  0  0  0  0
    4.0425   -2.9268    4.8092 H   0  0  0  0  0  0  0  0  0  0  0  0
    3.8073   -1.5535    3.7402 H   0  0  0  0  0  0  0  0  0  0  0  0
    5.4361   -2.1206    4.1152 H   0  0  0  0  0  0  0  0  0  0  0  0
    4.0867   -6.1438    1.1704 H   0  0  0  0  0  0  0  0  0  0  0  0
    2.6397   -4.7657   -0.3715 H   0  0  0  0  0  0  0  0  0  0  0  0
    1.9738   -4.3971    1.2129 H   0  0  0  0  0  0  0  0  0  0  0  0
    2.6986   -2.1592    0.9446 H   0  0  0  0  0  0  0  0  0  0  0  0
    2.6299   -0.5670   -3.3121 H   0  0  0  0  0  0  0  0  0  0  0  0
    4.4948   -1.7006   -4.5768 H   0  0  0  0  0  0  0  0  0  0  0  0
    5.8534   -3.4788   -3.4017 H   0  0  0  0  0  0  0  0  0  0  0  0
    5.2688   -5.2950   -1.1365 H   0  0  0  0  0  0  0  0  0  0  0  0
    6.5758   -4.1315   -0.9658 H   0  0  0  0  0  0  0  0  0  0  0  0
    7.4634   -4.0464    1.2175 H   0  0  0  0  0  0  0  0  0  0  0  0
    6.6126   -4.7221    2.5768 H   0  0  0  0  0  0  0  0  0  0  0  0
    7.2877   -6.0217    0.1869 H   0  0  0  0  0  0  0  0  0  0  0  0
    5.9913   -1.5243    0.2731 H   0  0  0  0  0  0  0  0  0  0  0  0
    6.5394   -1.8377    1.9139 H   0  0  0  0  0  0  0  0  0  0  0  0
    5.1283   -0.8147    1.6351 H   0  0  0  0  0  0  0  0  0  0  0  0
    2.0784   -1.2764   -1.1642 H   0  0  0  0  0  0  0  0  0  0  0  0
  1  2  1  0
  1 20  1  0
  1 21  1  0
  1 22  1  0
  2 18  1  0
  2  3  1  0
  3  4  2  0
  3  5  1  0
  5 15  1  0
  5  6  1  0
  5 23  1  1
  6  7  1  0
  6 24  1  0
  6 25  1  0
  7 18  1  0
  7  8  1  0
  7 26  1  1
  8 13  2  0
  8  9  1  0
  9 10  2  0
  9 38  1  0
 10 11  1  0
 10 27  1  0
 11 12  2  0
 11 28  1  0
 12 13  1  0
 12 29  1  0
 13 14  1  0
 14 15  1  0
 14 30  1  0
 14 31  1  0
 15 16  1  1
 15 18  1  0
 16 17  1  0
 16 32  1  0
 16 33  1  0
 17 34  1  0
 18 19  1  1
 19 35  1  0
 19 36  1  0
 19 37  1  0
M  CHG  1   9   1
M  END
>  <i_m_ct_stereo_status>  (366) 
1

>  <s_m_source_file>  (366) 
/var/tmp/pbs.5076255.sched01/tmpb6g28bo8/1236hu3uqnd.sdf

>  <i_m_source_file_index>  (366) 
33

>  <i_lp_mmshare_version>  (366) 
48012

>  <i_f3d_flags>  (366) 
0

>  <s_epik_input>  (366) 
W09IXVtDSDJdW0NAXTEyW0NASF0zQyg9TylOKFtDSDNdKVtDQF0yKFtDSDNdKVtDQEhdKFtDSDJdMyljNGMoW0NIMl0xKVtjSF1bY0hdW2NIXW40

>  <s_epik_cmdline>  (366) 
J2VwaWtfcHl0aG9uJywgJy1waHQnLCAnMi4wJywgJy1waCcsICc3LjAnLCAnLXRuJywgJzgnLCAnLW1hJywgJzIwMCcsICctaW1hZScsICc8aW5maWxlLm1hZT4nLCAnLW9tYWUnLCAnPG91dGZpbGUubWFlPic=

>  <r_epik_Ionization_Penalty>  (366) 
0.419563

>  <r_epik_Ionization_Penalty_Charging>  (366) 
0.419563

>  <r_epik_Ionization_Penalty_Neutral>  (366) 
6.4244e-08

>  <r_epik_State_Penalty>  (366) 
0.420163

>  <r_epik_Charging_Adjusted_Penalty>  (366) 
0.839726

>  <i_epik_Tot_Q>  (366) 
1

>  <i_epik_Tot_abs_Q>  (366) 
1

>  <s_lp_Force_Field>  (366) 
OPLS3e

>  <r_lp_Energy>  (366) 
53.9633

>  <b_lp_Chiralities_Consistent>  (366) 
1

>  <s_lp_Variant>  (366) 
109:0-2

>  <s_i_glide_gridfile>  (366) 
pfpi4k_grid

>  <i_i_glide_lignum>  (366) 
33

>  <i_i_glide_rotatable_bonds>  (366) 
2

>  <r_i_docking_score>  (366) 
-4.30175

>  <r_i_glide_ligand_efficiency>  (366) 
-0.226408

>  <r_i_glide_ligand_efficiency_sa>  (366) 
-0.604148

>  <r_i_glide_ligand_efficiency_ln>  (366) 
-1.09059

>  <r_i_glide_gscore>  (366) 
-4.30175

>  <r_i_glide_lipo>  (366) 
-0.725063

>  <r_i_glide_hbond>  (366) 
-0.143318

>  <r_i_glide_metal>  (366) 
-0

>  <r_i_glide_rewards>  (366) 
-1.65929

>  <r_i_glide_evdw>  (366) 
-17.2045

>  <r_i_glide_ecoul>  (366) 
-7.17856

>  <r_i_glide_erotb>  (366) 
0.262929

>  <r_i_glide_esite>  (366) 
-0.1

>  <r_i_glide_emodel>  (366) 
-31.4801

>  <r_i_glide_energy>  (366) 
-24.3831

>  <r_i_glide_einternal>  (366) 
0.124631

>  <r_i_glide_intrahb_reward>  (366) 
-0

>  <i_i_glide_confnum>  (366) 
1

>  <i_i_glide_posenum>  (366) 
1

>  <r_i_glide_eff_state_penalty>  (366) 
0

>  <ligand_id>  (366) 
109

>  <original_smiles>  (366) 
CN1C(=O)C2CC3c4ncccc4CC2(CO)C31C

>  <smiles>  (366) 
[H]OC([H])([H])C12C([H])([H])c3c([H])c([H])c([H])[n+]([H])c3C3([H])C([H])([H])C1([H])C(=O)N(C([H])([H])[H])C32C([H])([H])[H]

$$$$
109:1:2
     RDKit          3D

 38 41  0  0  1  0  0  0  0  0999 V2000
    4.3233   -2.8565    4.0743 C   0  0  0  0  0  0  0  0  0  0  0  0
    4.3465   -3.6916    2.8880 N   0  0  0  0  0  0  0  0  0  0  0  0
    4.0161   -4.9894    2.7849 C   0  0  0  0  0  0  0  0  0  0  0  0
    3.6432   -5.7140    3.6624 O   0  0  0  0  0  0  0  0  0  0  0  0
    4.1399   -5.3851    1.3227 C   0  0  1  0  0  0  0  0  0  0  0  0
    2.9526   -4.6683    0.6465 C   0  0  0  0  0  0  0  0  0  0  0  0
    3.4240   -3.1825    0.6531 C   0  0  2  0  0  0  0  0  0  0  0  0
    3.7582   -2.7747   -0.7594 C   0  0  0  0  0  0  0  0  0  0  0  0
    3.0139   -1.8503   -1.4197 N   0  0  0  0  0  0  0  0  0  0  0  0
    3.2897   -1.4647   -2.6905 C   0  0  0  0  0  0  0  0  0  0  0  0
    4.3713   -2.0510   -3.3752 C   0  0  0  0  0  0  0  0  0  0  0  0
    5.1615   -3.0380   -2.7307 C   0  0  0  0  0  0  0  0  0  0  0  0
    4.8399   -3.3901   -1.3947 C   0  0  0  0  0  0  0  0  0  0  0  0
    5.6086   -4.4570   -0.6362 C   0  0  0  0  0  0  0  0  0  0  0  0
    5.3661   -4.5187    0.9123 C   0  0  2  0  0  0  0  0  0  0  0  0
    6.7170   -4.9339    1.6034 C   0  0  0  0  0  0  0  0  0  0  0  0
    7.1509   -6.1951    1.1434 O   0  0  0  0  0  0  0  0  0  0  0  0
    4.7043   -3.2441    1.5388 C   0  0  2  0  0  0  0  0  0  0  0  0
    5.5749   -1.9635    1.5187 C   0  0  0  0  0  0  0  0  0  0  0  0
    3.9506   -3.4142    4.9326 H   0  0  0  0  0  0  0  0  0  0  0  0
    3.6707   -1.9955    3.9242 H   0  0  0  0  0  0  0  0  0  0  0  0
    5.3324   -2.5194    4.3081 H   0  0  0  0  0  0  0  0  0  0  0  0
    4.2170   -6.4612    1.1536 H   0  0  0  0  0  0  0  0  0  0  0  0
    2.7492   -5.0558   -0.3506 H   0  0  0  0  0  0  0  0  0  0  0  0
    2.0313   -4.7818    1.2256 H   0  0  0  0  0  0  0  0  0  0  0  0
    2.6751   -2.5134    1.0695 H   0  0  0  0  0  0  0  0  0  0  0  0
    2.6168   -0.7191   -3.0984 H   0  0  0  0  0  0  0  0  0  0  0  0
    4.5768   -1.7170   -4.3759 H   0  0  0  0  0  0  0  0  0  0  0  0
    6.0019   -3.4826   -3.2555 H   0  0  0  0  0  0  0  0  0  0  0  0
    5.3959   -5.4261   -1.0842 H   0  0  0  0  0  0  0  0  0  0  0  0
    6.6576   -4.2392   -0.8217 H   0  0  0  0  0  0  0  0  0  0  0  0
    7.5031   -4.2133    1.3840 H   0  0  0  0  0  0  0  0  0  0  0  0
    6.6555   -4.9847    2.6917 H   0  0  0  0  0  0  0  0  0  0  0  0
    7.9470   -6.4394    1.5916 H   0  0  0  0  0  0  0  0  0  0  0  0
    5.9394   -1.7030    0.5229 H   0  0  0  0  0  0  0  0  0  0  0  0
    6.4593   -2.0733    2.1445 H   0  0  0  0  0  0  0  0  0  0  0  0
    5.0192   -1.1020    1.8870 H   0  0  0  0  0  0  0  0  0  0  0  0
    2.1429   -1.4552   -0.9916 H   0  0  0  0  0  0  0  0  0  0  0  0
  1  2  1  0
  1 20  1  0
  1 21  1  0
  1 22  1  0
  2 18  1  0
  2  3  1  0
  3  4  2  0
  3  5  1  0
  5 15  1  0
  5  6  1  0
  5 23  1  1
  6  7  1  0
  6 24  1  0
  6 25  1  0
  7 18  1  0
  7  8  1  0
  7 26  1  1
  8 13  2  0
  8  9  1  0
  9 10  2  0
  9 38  1  0
 10 11  1  0
 10 27  1  0
 11 12  2  0
 11 28  1  0
 12 13  1  0
 12 29  1  0
 13 14  1  0
 14 15  1  0
 14 30  1  0
 14 31  1  0
 15 16  1  1
 15 18  1  0
 16 17  1  0
 16 32  1  0
 16 33  1  0
 17 34  1  0
 18 19  1  1
 19 35  1  0
 19 36  1  0
 19 37  1  0
M  CHG  1   9   1
M  END
>  <i_m_ct_stereo_status>  (367) 
1

>  <s_m_source_file>  (367) 
/var/tmp/pbs.5076255.sched01/tmpb6g28bo8/1236hu3uqnd.sdf

>  <i_m_source_file_index>  (367) 
33

>  <i_lp_mmshare_version>  (367) 
48012

>  <i_f3d_flags>  (367) 
0

>  <s_epik_input>  (367) 
W09IXVtDSDJdW0NAXTEyW0NASF0zQyg9TylOKFtDSDNdKVtDQF0yKFtDSDNdKVtDQEhdKFtDSDJdMyljNGMoW0NIMl0xKVtjSF1bY0hdW2NIXW40

>  <s_epik_cmdline>  (367) 
J2VwaWtfcHl0aG9uJywgJy1waHQnLCAnMi4wJywgJy1waCcsICc3LjAnLCAnLXRuJywgJzgnLCAnLW1hJywgJzIwMCcsICctaW1hZScsICc8aW5maWxlLm1hZT4nLCAnLW9tYWUnLCAnPG91dGZpbGUubWFlPic=

>  <r_epik_Ionization_Penalty>  (367) 
0.419563

>  <r_epik_Ionization_Penalty_Charging>  (367) 
0.419563

>  <r_epik_Ionization_Penalty_Neutral>  (367) 
6.4244e-08

>  <r_epik_State_Penalty>  (367) 
0.420163

>  <r_epik_Charging_Adjusted_Penalty>  (367) 
0.839726

>  <i_epik_Tot_Q>  (367) 
1

>  <i_epik_Tot_abs_Q>  (367) 
1

>  <s_lp_Force_Field>  (367) 
OPLS3e

>  <r_lp_Energy>  (367) 
53.9633

>  <b_lp_Chiralities_Consistent>  (367) 
1

>  <s_lp_Variant>  (367) 
109:0-2

>  <s_i_glide_gridfile>  (367) 
pfpi4k_grid

>  <i_i_glide_lignum>  (367) 
33

>  <i_i_glide_rotatable_bonds>  (367) 
2

>  <r_i_docking_score>  (367) 
-4.2337

>  <r_i_glide_ligand_efficiency>  (367) 
-0.222826

>  <r_i_glide_ligand_efficiency_sa>  (367) 
-0.59459

>  <r_i_glide_ligand_efficiency_ln>  (367) 
-1.07333

>  <r_i_glide_gscore>  (367) 
-4.2337

>  <r_i_glide_lipo>  (367) 
-0.697227

>  <r_i_glide_hbond>  (367) 
-0.182321

>  <r_i_glide_metal>  (367) 
-0

>  <r_i_glide_rewards>  (367) 
-1.65425

>  <r_i_glide_evdw>  (367) 
-17.2521

>  <r_i_glide_ecoul>  (367) 
-6.67377

>  <r_i_glide_erotb>  (367) 
0.262929

>  <r_i_glide_esite>  (367) 
-0.0991583

>  <r_i_glide_emodel>  (367) 
-31.1857

>  <r_i_glide_energy>  (367) 
-23.9258

>  <r_i_glide_einternal>  (367) 
0.356561

>  <r_i_glide_intrahb_reward>  (367) 
-0

>  <i_i_glide_confnum>  (367) 
1

>  <i_i_glide_posenum>  (367) 
37

>  <r_i_glide_eff_state_penalty>  (367) 
0

>  <ligand_id>  (367) 
109

>  <original_smiles>  (367) 
CN1C(=O)C2CC3c4ncccc4CC2(CO)C31C

>  <smiles>  (367) 
[H]OC([H])([H])C12C([H])([H])c3c([H])c([H])c([H])[n+]([H])c3C3([H])C([H])([H])C1([H])C(=O)N(C([H])([H])[H])C32C([H])([H])[H]

$$$$
110:0:0
     RDKit          3D

 37 40  0  0  1  0  0  0  0  0999 V2000
    4.6222   -2.4013    2.0822 C   0  0  0  0  0  0  0  0  0  0  0  0
    4.1990   -1.5640    0.8037 C   0  0  2  0  0  0  0  0  0  0  0  0
    5.6666   -1.0548    0.4920 C   0  0  0  0  0  0  0  0  0  0  0  0
    6.8431   -2.0274    0.1810 C   0  0  0  0  0  0  0  0  0  0  0  0
    6.5600   -3.1628   -0.7958 C   0  0  1  0  0  0  0  0  0  0  0  0
    6.0414   -4.2957   -0.0616 O   0  0  0  0  0  0  0  0  0  0  0  0
    4.8321   -4.2909   -0.8547 C   0  0  1  0  0  0  0  0  0  0  0  0
    3.6235   -4.1973    0.0675 C   0  0  0  0  0  0  0  0  0  0  0  0
    3.1494   -2.7710    0.4665 C   0  0  0  0  0  0  0  0  0  0  0  0
    5.3215   -3.1054   -1.6797 C   0  0  2  0  0  0  0  0  0  0  0  0
    5.5542   -3.5102   -3.0131 O   0  0  0  0  0  0  0  0  0  0  0  0
    4.6186   -2.7347   -3.9005 O   0  0  0  0  0  0  0  0  0  0  0  0
    3.7325   -1.9936   -3.0797 C   0  0  0  0  0  0  0  0  0  0  0  0
    3.4114   -0.6462   -3.7356 C   0  0  0  0  0  0  0  0  0  0  0  0
    2.4698   -2.8593   -2.9622 C   0  0  0  0  0  0  0  0  0  0  0  0
    4.5808   -1.8343   -1.8141 C   0  0  1  0  0  0  0  0  0  0  0  0
    3.8273   -1.4704   -0.6262 O   0  0  0  0  0  0  0  0  0  0  0  0
    5.2208   -1.8002    2.7624 H   0  0  0  0  0  0  0  0  0  0  0  0
    5.2292   -3.2816    1.9010 H   0  0  0  0  0  0  0  0  0  0  0  0
    3.8270   -2.7025    2.7611 H   0  0  0  0  0  0  0  0  0  0  0  0
    5.6582   -0.2369   -0.2271 H   0  0  0  0  0  0  0  0  0  0  0  0
    6.0077   -0.4724    1.3464 H   0  0  0  0  0  0  0  0  0  0  0  0
    7.6576   -1.4420   -0.2247 H   0  0  0  0  0  0  0  0  0  0  0  0
    7.2498   -2.4346    1.1106 H   0  0  0  0  0  0  0  0  0  0  0  0
    7.4250   -3.4582   -1.3790 H   0  0  0  0  0  0  0  0  0  0  0  0
    4.8119   -5.1800   -1.4757 H   0  0  0  0  0  0  0  0  0  0  0  0
    2.7835   -4.6840   -0.4184 H   0  0  0  0  0  0  0  0  0  0  0  0
    3.7964   -4.8002    0.9631 H   0  0  0  0  0  0  0  0  0  0  0  0
    2.4892   -2.9255    1.3188 H   0  0  0  0  0  0  0  0  0  0  0  0
    2.2655   -2.5529   -0.1560 H   0  0  0  0  0  0  0  0  0  0  0  0
    2.7557   -0.0537   -3.1008 H   0  0  0  0  0  0  0  0  0  0  0  0
    2.9078   -0.7783   -4.6923 H   0  0  0  0  0  0  0  0  0  0  0  0
    4.3104   -0.0563   -3.9126 H   0  0  0  0  0  0  0  0  0  0  0  0
    1.7346   -2.3882   -2.3188 H   0  0  0  0  0  0  0  0  0  0  0  0
    2.6739   -3.8549   -2.5835 H   0  0  0  0  0  0  0  0  0  0  0  0
    2.0005   -2.9861   -3.9404 H   0  0  0  0  0  0  0  0  0  0  0  0
    5.3111   -1.0636   -2.0762 H   0  0  0  0  0  0  0  0  0  0  0  0
  2  1  1  6
  1 18  1  0
  1 19  1  0
  1 20  1  0
  2  9  1  0
  2 17  1  0
  2  3  1  0
  3  4  1  0
  3 21  1  0
  3 22  1  0
  4  5  1  0
  4 23  1  0
  4 24  1  0
  5 10  1  0
  5  6  1  0
  5 25  1  6
  6  7  1  0
  7  8  1  0
  7 10  1  0
  7 26  1  6
  8  9  1  0
  8 27  1  0
  8 28  1  0
  9 29  1  0
  9 30  1  0
 10 16  1  0
 10 11  1  6
 11 12  1  0
 12 13  1  0
 13 14  1  0
 13 15  1  0
 13 16  1  0
 14 31  1  0
 14 32  1  0
 14 33  1  0
 15 34  1  0
 15 35  1  0
 15 36  1  0
 16 17  1  0
 16 37  1  6
M  END
>  <i_m_ct_stereo_status>  (368) 
1

>  <s_m_source_file>  (368) 
/var/tmp/pbs.5076255.sched01/tmpb6g28bo8/1236hu3uqnd.sdf

>  <i_m_source_file_index>  (368) 
34

>  <i_lp_mmshare_version>  (368) 
48012

>  <i_f3d_flags>  (368) 
0

>  <s_epik_input>  (368) 
TzFbQ0BIXTJbQ0gyXVtDSDJdW0NAQF0oW0NIM10pKFtDSDJdW0NIMl1bQ0BASF0xW0NAXTIzNClPW0NAQEhdNEMoT08zKShbQ0gzXSlbQ0gzXQ==

>  <s_epik_cmdline>  (368) 
J2VwaWtfcHl0aG9uJywgJy1waHQnLCAnMi4wJywgJy1waCcsICc3LjAnLCAnLXRuJywgJzgnLCAnLW1hJywgJzIwMCcsICctaW1hZScsICc8aW5maWxlLm1hZT4nLCAnLW9tYWUnLCAnPG91dGZpbGUubWFlPic=

>  <r_lp_tautomer_probability>  (368) 
1

>  <r_epik_Ionization_Penalty>  (368) 
2.19834e-13

>  <r_epik_Ionization_Penalty_Charging>  (368) 
0

>  <r_epik_Ionization_Penalty_Neutral>  (368) 
2.19834e-13

>  <r_epik_State_Penalty>  (368) 
-0

>  <r_epik_Charging_Adjusted_Penalty>  (368) 
0

>  <i_epik_Tot_Q>  (368) 
0

>  <i_epik_Tot_abs_Q>  (368) 
0

>  <s_lp_Force_Field>  (368) 
OPLS3e

>  <r_lp_Energy>  (368) 
155.65

>  <b_lp_Chiralities_Consistent>  (368) 
1

>  <s_lp_Variant>  (368) 
110:0-1

>  <s_i_glide_gridfile>  (368) 
pfpi4k_grid

>  <i_i_glide_lignum>  (368) 
34

>  <i_i_glide_rotatable_bonds>  (368) 
0

>  <r_i_docking_score>  (368) 
-4.15056

>  <r_i_glide_ligand_efficiency>  (368) 
-0.244151

>  <r_i_glide_ligand_efficiency_sa>  (368) 
-0.627781

>  <r_i_glide_ligand_efficiency_ln>  (368) 
-1.08279

>  <r_i_glide_gscore>  (368) 
-4.15056

>  <r_i_glide_lipo>  (368) 
-0.687942

>  <r_i_glide_hbond>  (368) 
-0.0899068

>  <r_i_glide_metal>  (368) 
-0

>  <r_i_glide_rewards>  (368) 
-1.77071

>  <r_i_glide_evdw>  (368) 
-27.2225

>  <r_i_glide_ecoul>  (368) 
-1.60586

>  <r_i_glide_erotb>  (368) 
0

>  <r_i_glide_esite>  (368) 
0

>  <r_i_glide_emodel>  (368) 
-35.5983

>  <r_i_glide_energy>  (368) 
-28.8284

>  <r_i_glide_einternal>  (368) 
0

>  <r_i_glide_intrahb_reward>  (368) 
-0

>  <i_i_glide_confnum>  (368) 
1

>  <i_i_glide_posenum>  (368) 
1

>  <r_i_glide_eff_state_penalty>  (368) 
0

>  <ligand_id>  (368) 
110

>  <original_smiles>  (368) 
CC12CCC3OC(CC1)C31OOC(C)(C)C1O2

>  <smiles>  (368) 
[H]C([H])([H])C12OC3([H])C(C([H])([H])[H])(C([H])([H])[H])OOC34C([H])(OC4([H])C([H])([H])C1([H])[H])C([H])([H])C2([H])[H]

$$$$
110:0:1
     RDKit          3D

 37 40  0  0  1  0  0  0  0  0999 V2000
    4.4742   -3.8551    2.3141 C   0  0  0  0  0  0  0  0  0  0  0  0
    3.6632   -3.9075    0.9525 C   0  0  2  0  0  0  0  0  0  0  0  0
    2.8249   -2.5948    1.2506 C   0  0  0  0  0  0  0  0  0  0  0  0
    3.4921   -1.2021    1.4674 C   0  0  0  0  0  0  0  0  0  0  0  0
    4.6108   -0.8039    0.5044 C   0  0  1  0  0  0  0  0  0  0  0  0
    5.8788   -1.3057    0.9865 O   0  0  0  0  0  0  0  0  0  0  0  0
    6.0732   -2.0651   -0.2265 C   0  0  1  0  0  0  0  0  0  0  0  0
    6.2965   -3.5322    0.1147 C   0  0  0  0  0  0  0  0  0  0  0  0
    5.0352   -4.4332    0.2429 C   0  0  0  0  0  0  0  0  0  0  0  0
    4.7612   -1.5526   -0.8107 C   0  0  2  0  0  0  0  0  0  0  0  0
    5.0492   -0.7307   -1.9266 O   0  0  0  0  0  0  0  0  0  0  0  0
    4.3590   -1.3410   -3.1304 O   0  0  0  0  0  0  0  0  0  0  0  0
    3.9136   -2.6394   -2.7690 C   0  0  0  0  0  0  0  0  0  0  0  0
    2.6238   -2.9841   -3.5251 C   0  0  0  0  0  0  0  0  0  0  0  0
    5.0278   -3.6289   -3.1490 C   0  0  0  0  0  0  0  0  0  0  0  0
    3.6688   -2.4387   -1.2711 C   0  0  1  0  0  0  0  0  0  0  0  0
    3.5624   -3.6721   -0.5055 O   0  0  0  0  0  0  0  0  0  0  0  0
    3.8051   -3.7341    3.1641 H   0  0  0  0  0  0  0  0  0  0  0  0
    5.1865   -3.0430    2.4173 H   0  0  0  0  0  0  0  0  0  0  0  0
    4.9859   -4.7673    2.6179 H   0  0  0  0  0  0  0  0  0  0  0  0
    1.9751   -2.5019    0.5748 H   0  0  0  0  0  0  0  0  0  0  0  0
    2.2476   -2.7667    2.1586 H   0  0  0  0  0  0  0  0  0  0  0  0
    2.6996   -0.4648    1.3857 H   0  0  0  0  0  0  0  0  0  0  0  0
    3.8477   -1.1122    2.4966 H   0  0  0  0  0  0  0  0  0  0  0  0
    4.6711    0.2684    0.3492 H   0  0  0  0  0  0  0  0  0  0  0  0
    6.9124   -1.6515   -0.7747 H   0  0  0  0  0  0  0  0  0  0  0  0
    6.9240   -3.9711   -0.6541 H   0  0  0  0  0  0  0  0  0  0  0  0
    6.9029   -3.6047    1.0212 H   0  0  0  0  0  0  0  0  0  0  0  0
    5.3918   -5.3220    0.7623 H   0  0  0  0  0  0  0  0  0  0  0  0
    4.9597   -5.0322   -0.6846 H   0  0  0  0  0  0  0  0  0  0  0  0
    2.2278   -3.9477   -3.2165 H   0  0  0  0  0  0  0  0  0  0  0  0
    2.7904   -3.0255   -4.5990 H   0  0  0  0  0  0  0  0  0  0  0  0
    1.8380   -2.2555   -3.3378 H   0  0  0  0  0  0  0  0  0  0  0  0
    4.7754   -4.6475   -2.8632 H   0  0  0  0  0  0  0  0  0  0  0  0
    5.9875   -3.3748   -2.7000 H   0  0  0  0  0  0  0  0  0  0  0  0
    5.1793   -3.6436   -4.2273 H   0  0  0  0  0  0  0  0  0  0  0  0
    2.7427   -1.8643   -1.2302 H   0  0  0  0  0  0  0  0  0  0  0  0
  2  1  1  1
  1 18  1  0
  1 19  1  0
  1 20  1  0
  2  9  1  0
  2 17  1  0
  2  3  1  0
  3  4  1  0
  3 21  1  0
  3 22  1  0
  4  5  1  0
  4 23  1  0
  4 24  1  0
  5 10  1  0
  5  6  1  0
  5 25  1  6
  6  7  1  0
  7  8  1  0
  7 10  1  0
  7 26  1  6
  8  9  1  0
  8 27  1  0
  8 28  1  0
  9 29  1  0
  9 30  1  0
 10 16  1  0
 10 11  1  6
 11 12  1  0
 12 13  1  0
 13 14  1  0
 13 15  1  0
 13 16  1  0
 14 31  1  0
 14 32  1  0
 14 33  1  0
 15 34  1  0
 15 35  1  0
 15 36  1  0
 16 17  1  0
 16 37  1  6
M  END
>  <i_m_ct_stereo_status>  (369) 
1

>  <s_m_source_file>  (369) 
/var/tmp/pbs.5076255.sched01/tmpb6g28bo8/1236hu3uqnd.sdf

>  <i_m_source_file_index>  (369) 
34

>  <i_lp_mmshare_version>  (369) 
48012

>  <i_f3d_flags>  (369) 
0

>  <s_epik_input>  (369) 
TzFbQ0BIXTJbQ0gyXVtDSDJdW0NAQF0oW0NIM10pKFtDSDJdW0NIMl1bQ0BASF0xW0NAXTIzNClPW0NAQEhdNEMoT08zKShbQ0gzXSlbQ0gzXQ==

>  <s_epik_cmdline>  (369) 
J2VwaWtfcHl0aG9uJywgJy1waHQnLCAnMi4wJywgJy1waCcsICc3LjAnLCAnLXRuJywgJzgnLCAnLW1hJywgJzIwMCcsICctaW1hZScsICc8aW5maWxlLm1hZT4nLCAnLW9tYWUnLCAnPG91dGZpbGUubWFlPic=

>  <r_lp_tautomer_probability>  (369) 
1

>  <r_epik_Ionization_Penalty>  (369) 
2.19834e-13

>  <r_epik_Ionization_Penalty_Charging>  (369) 
0

>  <r_epik_Ionization_Penalty_Neutral>  (369) 
2.19834e-13

>  <r_epik_State_Penalty>  (369) 
-0

>  <r_epik_Charging_Adjusted_Penalty>  (369) 
0

>  <i_epik_Tot_Q>  (369) 
0

>  <i_epik_Tot_abs_Q>  (369) 
0

>  <s_lp_Force_Field>  (369) 
OPLS3e

>  <r_lp_Energy>  (369) 
155.65

>  <b_lp_Chiralities_Consistent>  (369) 
1

>  <s_lp_Variant>  (369) 
110:0-1

>  <s_i_glide_gridfile>  (369) 
pfpi4k_grid

>  <i_i_glide_lignum>  (369) 
34

>  <i_i_glide_rotatable_bonds>  (369) 
0

>  <r_i_docking_score>  (369) 
-3.75484

>  <r_i_glide_ligand_efficiency>  (369) 
-0.220873

>  <r_i_glide_ligand_efficiency_sa>  (369) 
-0.567926

>  <r_i_glide_ligand_efficiency_ln>  (369) 
-0.979553

>  <r_i_glide_gscore>  (369) 
-3.75484

>  <r_i_glide_lipo>  (369) 
-0.64275

>  <r_i_glide_hbond>  (369) 
0

>  <r_i_glide_metal>  (369) 
-0

>  <r_i_glide_rewards>  (369) 
-1.77071

>  <r_i_glide_evdw>  (369) 
-24.9725

>  <r_i_glide_ecoul>  (369) 
-0.618329

>  <r_i_glide_erotb>  (369) 
0

>  <r_i_glide_esite>  (369) 
0

>  <r_i_glide_emodel>  (369) 
-31.7128

>  <r_i_glide_energy>  (369) 
-25.5908

>  <r_i_glide_einternal>  (369) 
0

>  <r_i_glide_intrahb_reward>  (369) 
-0

>  <i_i_glide_confnum>  (369) 
1

>  <i_i_glide_posenum>  (369) 
29

>  <r_i_glide_eff_state_penalty>  (369) 
0

>  <ligand_id>  (369) 
110

>  <original_smiles>  (369) 
CC12CCC3OC(CC1)C31OOC(C)(C)C1O2

>  <smiles>  (369) 
[H]C([H])([H])C12OC3([H])C(C([H])([H])[H])(C([H])([H])[H])OOC34C([H])(OC4([H])C([H])([H])C1([H])[H])C([H])([H])C2([H])[H]

$$$$
110:0:2
     RDKit          3D

 37 40  0  0  1  0  0  0  0  0999 V2000
    3.4316   -2.0436    2.9077 C   0  0  0  0  0  0  0  0  0  0  0  0
    3.3377   -1.3437    1.4846 C   0  0  2  0  0  0  0  0  0  0  0  0
    4.7348   -0.6049    1.6012 C   0  0  0  0  0  0  0  0  0  0  0  0
    6.0662   -1.3878    1.7686 C   0  0  0  0  0  0  0  0  0  0  0  0
    6.2894   -2.6098    0.8773 C   0  0  1  0  0  0  0  0  0  0  0  0
    5.7226   -3.7856    1.5065 O   0  0  0  0  0  0  0  0  0  0  0  0
    4.8611   -4.0109    0.3656 C   0  0  1  0  0  0  0  0  0  0  0  0
    3.4161   -4.0705    0.8489 C   0  0  0  0  0  0  0  0  0  0  0  0
    2.6618   -2.7176    0.9442 C   0  0  0  0  0  0  0  0  0  0  0  0
    5.4260   -2.7977   -0.3579 C   0  0  2  0  0  0  0  0  0  0  0  0
    6.1379   -3.2183   -1.5028 O   0  0  0  0  0  0  0  0  0  0  0  0
    5.4613   -2.6091   -2.7126 O   0  0  0  0  0  0  0  0  0  0  0  0
    4.2521   -1.9997   -2.2896 C   0  0  0  0  0  0  0  0  0  0  0  0
    3.9554   -0.7500   -3.1201 C   0  0  0  0  0  0  0  0  0  0  0  0
    3.1327   -3.0357   -2.4915 C   0  0  0  0  0  0  0  0  0  0  0  0
    4.6047   -1.6596   -0.8385 C   0  0  1  0  0  0  0  0  0  0  0  0
    3.4618   -1.3784    0.0143 O   0  0  0  0  0  0  0  0  0  0  0  0
    3.6809   -1.3230    3.6843 H   0  0  0  0  0  0  0  0  0  0  0  0
    4.1788   -2.8214    3.0124 H   0  0  0  0  0  0  0  0  0  0  0  0
    2.5076   -2.4358    3.3255 H   0  0  0  0  0  0  0  0  0  0  0  0
    4.8391    0.1826    0.8514 H   0  0  0  0  0  0  0  0  0  0  0  0
    4.6891    0.0486    2.4687 H   0  0  0  0  0  0  0  0  0  0  0  0
    6.8699   -0.6845    1.5797 H   0  0  0  0  0  0  0  0  0  0  0  0
    6.1885   -1.6735    2.8172 H   0  0  0  0  0  0  0  0  0  0  0  0
    7.3310   -2.7891    0.6411 H   0  0  0  0  0  0  0  0  0  0  0  0
    5.1645   -4.9225   -0.1435 H   0  0  0  0  0  0  0  0  0  0  0  0
    2.8546   -4.7039    0.1737 H   0  0  0  0  0  0  0  0  0  0  0  0
    3.3688   -4.5951    1.8086 H   0  0  0  0  0  0  0  0  0  0  0  0
    1.7974   -2.9508    1.5639 H   0  0  0  0  0  0  0  0  0  0  0  0
    1.9923   -2.6699    0.0607 H   0  0  0  0  0  0  0  0  0  0  0  0
    3.0433   -0.2655   -2.7751 H   0  0  0  0  0  0  0  0  0  0  0  0
    3.8287   -0.9901   -4.1742 H   0  0  0  0  0  0  0  0  0  0  0  0
    4.7595   -0.0216   -3.0331 H   0  0  0  0  0  0  0  0  0  0  0  0
    2.1641   -2.6555   -2.1690 H   0  0  0  0  0  0  0  0  0  0  0  0
    3.3437   -3.9478   -1.9512 H   0  0  0  0  0  0  0  0  0  0  0  0
    3.0376   -3.2935   -3.5458 H   0  0  0  0  0  0  0  0  0  0  0  0
    5.2619   -0.7902   -0.9171 H   0  0  0  0  0  0  0  0  0  0  0  0
  2  1  1  1
  1 18  1  0
  1 19  1  0
  1 20  1  0
  2  9  1  0
  2 17  1  0
  2  3  1  0
  3  4  1  0
  3 21  1  0
  3 22  1  0
  4  5  1  0
  4 23  1  0
  4 24  1  0
  5 10  1  0
  5  6  1  0
  5 25  1  6
  6  7  1  0
  7  8  1  0
  7 10  1  0
  7 26  1  6
  8  9  1  0
  8 27  1  0
  8 28  1  0
  9 29  1  0
  9 30  1  0
 10 16  1  0
 10 11  1  6
 11 12  1  0
 12 13  1  0
 13 14  1  0
 13 15  1  0
 13 16  1  0
 14 31  1  0
 14 32  1  0
 14 33  1  0
 15 34  1  0
 15 35  1  0
 15 36  1  0
 16 17  1  0
 16 37  1  6
M  END
>  <i_m_ct_stereo_status>  (370) 
1

>  <s_m_source_file>  (370) 
/var/tmp/pbs.5076255.sched01/tmpb6g28bo8/1236hu3uqnd.sdf

>  <i_m_source_file_index>  (370) 
34

>  <i_lp_mmshare_version>  (370) 
48012

>  <i_f3d_flags>  (370) 
0

>  <s_epik_input>  (370) 
TzFbQ0BIXTJbQ0gyXVtDSDJdW0NAQF0oW0NIM10pKFtDSDJdW0NIMl1bQ0BASF0xW0NAXTIzNClPW0NAQEhdNEMoT08zKShbQ0gzXSlbQ0gzXQ==

>  <s_epik_cmdline>  (370) 
J2VwaWtfcHl0aG9uJywgJy1waHQnLCAnMi4wJywgJy1waCcsICc3LjAnLCAnLXRuJywgJzgnLCAnLW1hJywgJzIwMCcsICctaW1hZScsICc8aW5maWxlLm1hZT4nLCAnLW9tYWUnLCAnPG91dGZpbGUubWFlPic=

>  <r_lp_tautomer_probability>  (370) 
1

>  <r_epik_Ionization_Penalty>  (370) 
2.19834e-13

>  <r_epik_Ionization_Penalty_Charging>  (370) 
0

>  <r_epik_Ionization_Penalty_Neutral>  (370) 
2.19834e-13

>  <r_epik_State_Penalty>  (370) 
-0

>  <r_epik_Charging_Adjusted_Penalty>  (370) 
0

>  <i_epik_Tot_Q>  (370) 
0

>  <i_epik_Tot_abs_Q>  (370) 
0

>  <s_lp_Force_Field>  (370) 
OPLS3e

>  <r_lp_Energy>  (370) 
155.65

>  <b_lp_Chiralities_Consistent>  (370) 
1

>  <s_lp_Variant>  (370) 
110:0-1

>  <s_i_glide_gridfile>  (370) 
pfpi4k_grid

>  <i_i_glide_lignum>  (370) 
34

>  <i_i_glide_rotatable_bonds>  (370) 
0

>  <r_i_docking_score>  (370) 
-3.56449

>  <r_i_glide_ligand_efficiency>  (370) 
-0.209676

>  <r_i_glide_ligand_efficiency_sa>  (370) 
-0.539136

>  <r_i_glide_ligand_efficiency_ln>  (370) 
-0.929897

>  <r_i_glide_gscore>  (370) 
-3.56449

>  <r_i_glide_lipo>  (370) 
-0.590527

>  <r_i_glide_hbond>  (370) 
0

>  <r_i_glide_metal>  (370) 
-0

>  <r_i_glide_rewards>  (370) 
-1.77071

>  <r_i_glide_evdw>  (370) 
-22.274

>  <r_i_glide_ecoul>  (370) 
-0.597017

>  <r_i_glide_erotb>  (370) 
0

>  <r_i_glide_esite>  (370) 
0

>  <r_i_glide_emodel>  (370) 
-28.6547

>  <r_i_glide_energy>  (370) 
-22.8711

>  <r_i_glide_einternal>  (370) 
0

>  <r_i_glide_intrahb_reward>  (370) 
-0

>  <i_i_glide_confnum>  (370) 
2

>  <i_i_glide_posenum>  (370) 
19

>  <r_i_glide_eff_state_penalty>  (370) 
0

>  <ligand_id>  (370) 
110

>  <original_smiles>  (370) 
CC12CCC3OC(CC1)C31OOC(C)(C)C1O2

>  <smiles>  (370) 
[H]C([H])([H])C12OC3([H])C(C([H])([H])[H])(C([H])([H])[H])OOC34C([H])(OC4([H])C([H])([H])C1([H])[H])C([H])([H])C2([H])[H]

$$$$
110:1:0
     RDKit          3D

 37 40  0  0  1  0  0  0  0  0999 V2000
    4.6204   -2.3904    2.0793 C   0  0  0  0  0  0  0  0  0  0  0  0
    4.1913   -1.5560    0.7990 C   0  0  1  0  0  0  0  0  0  0  0  0
    3.1531   -2.7688    0.4658 C   0  0  0  0  0  0  0  0  0  0  0  0
    3.6319   -4.1939    0.0700 C   0  0  0  0  0  0  0  0  0  0  0  0
    4.8329   -4.2796   -0.8582 C   0  0  2  0  0  0  0  0  0  0  0  0
    6.0413   -4.2863   -0.0580 O   0  0  0  0  0  0  0  0  0  0  0  0
    6.5510   -3.1542   -0.8028 C   0  0  2  0  0  0  0  0  0  0  0  0
    6.8398   -2.0291    0.1796 C   0  0  0  0  0  0  0  0  0  0  0  0
    5.6659   -1.0495    0.4864 C   0  0  0  0  0  0  0  0  0  0  0  0
    5.3253   -3.1070   -1.6677 C   0  0  1  0  0  0  0  0  0  0  0  0
    5.5647   -3.5173   -3.0128 O   0  0  0  0  0  0  0  0  0  0  0  0
    4.6167   -2.7335   -3.9201 O   0  0  0  0  0  0  0  0  0  0  0  0
    3.7313   -1.9946   -3.0828 C   0  0  0  0  0  0  0  0  0  0  0  0
    3.4138   -0.6535   -3.7408 C   0  0  0  0  0  0  0  0  0  0  0  0
    2.4725   -2.8596   -2.9707 C   0  0  0  0  0  0  0  0  0  0  0  0
    4.5780   -1.8235   -1.8174 C   0  0  1  0  0  0  0  0  0  0  0  0
    3.8284   -1.4736   -0.6308 O   0  0  0  0  0  0  0  0  0  0  0  0
    3.8261   -2.6925    2.7594 H   0  0  0  0  0  0  0  0  0  0  0  0
    5.2164   -1.7864    2.7611 H   0  0  0  0  0  0  0  0  0  0  0  0
    5.2298   -3.2697    1.9030 H   0  0  0  0  0  0  0  0  0  0  0  0
    2.4880   -2.9184    1.3192 H   0  0  0  0  0  0  0  0  0  0  0  0
    2.2627   -2.5472   -0.1596 H   0  0  0  0  0  0  0  0  0  0  0  0
    3.7971   -4.7911    0.9657 H   0  0  0  0  0  0  0  0  0  0  0  0
    2.7804   -4.6817   -0.4158 H   0  0  0  0  0  0  0  0  0  0  0  0
    4.8145   -5.1763   -1.4714 H   0  0  0  0  0  0  0  0  0  0  0  0
    7.4250   -3.4539   -1.3779 H   0  0  0  0  0  0  0  0  0  0  0  0
    7.2475   -2.4241    1.1094 H   0  0  0  0  0  0  0  0  0  0  0  0
    7.6578   -1.4301   -0.2275 H   0  0  0  0  0  0  0  0  0  0  0  0
    5.6543   -0.2307   -0.2331 H   0  0  0  0  0  0  0  0  0  0  0  0
    6.0043   -0.4631    1.3433 H   0  0  0  0  0  0  0  0  0  0  0  0
    2.7616   -0.0525   -3.1044 H   0  0  0  0  0  0  0  0  0  0  0  0
    2.8992   -0.7822   -4.6965 H   0  0  0  0  0  0  0  0  0  0  0  0
    4.3111   -0.0628   -3.9287 H   0  0  0  0  0  0  0  0  0  0  0  0
    1.7306   -2.3848   -2.3350 H   0  0  0  0  0  0  0  0  0  0  0  0
    2.6721   -3.8545   -2.5826 H   0  0  0  0  0  0  0  0  0  0  0  0
    2.0023   -2.9927   -3.9480 H   0  0  0  0  0  0  0  0  0  0  0  0
    5.3113   -1.0653   -2.0833 H   0  0  0  0  0  0  0  0  0  0  0  0
  2  1  1  6
  1 18  1  0
  1 19  1  0
  1 20  1  0
  2  9  1  0
  2 17  1  0
  2  3  1  0
  3  4  1  0
  3 21  1  0
  3 22  1  0
  4  5  1  0
  4 23  1  0
  4 24  1  0
  5 10  1  0
  5  6  1  0
  5 25  1  6
  6  7  1  0
  7  8  1  0
  7 10  1  0
  7 26  1  6
  8  9  1  0
  8 27  1  0
  8 28  1  0
  9 29  1  0
  9 30  1  0
 10 16  1  0
 10 11  1  6
 11 12  1  0
 12 13  1  0
 13 14  1  0
 13 15  1  0
 13 16  1  0
 14 31  1  0
 14 32  1  0
 14 33  1  0
 15 34  1  0
 15 35  1  0
 15 36  1  0
 16 17  1  0
 16 37  1  6
M  END
>  <i_m_ct_stereo_status>  (371) 
1

>  <s_m_source_file>  (371) 
/var/tmp/pbs.5076255.sched01/tmpb6g28bo8/1236hu3uqnd.sdf

>  <i_m_source_file_index>  (371) 
35

>  <i_lp_mmshare_version>  (371) 
48012

>  <i_f3d_flags>  (371) 
0

>  <s_epik_input>  (371) 
TzFbQ0BIXTJbQ0gyXVtDSDJdW0NAQF0oW0NIM10pKFtDSDJdW0NIMl1bQ0BASF0xW0NAXTIzNClPW0NAQEhdNEMoT08zKShbQ0gzXSlbQ0gzXQ==

>  <s_epik_cmdline>  (371) 
J2VwaWtfcHl0aG9uJywgJy1waHQnLCAnMi4wJywgJy1waCcsICc3LjAnLCAnLXRuJywgJzgnLCAnLW1hJywgJzIwMCcsICctaW1hZScsICc8aW5maWxlLm1hZT4nLCAnLW9tYWUnLCAnPG91dGZpbGUubWFlPic=

>  <r_lp_tautomer_probability>  (371) 
1

>  <r_epik_Ionization_Penalty>  (371) 
2.19834e-13

>  <r_epik_Ionization_Penalty_Charging>  (371) 
0

>  <r_epik_Ionization_Penalty_Neutral>  (371) 
2.19834e-13

>  <r_epik_State_Penalty>  (371) 
-0

>  <r_epik_Charging_Adjusted_Penalty>  (371) 
0

>  <i_epik_Tot_Q>  (371) 
0

>  <i_epik_Tot_abs_Q>  (371) 
0

>  <s_lp_Force_Field>  (371) 
OPLS3e

>  <r_lp_Energy>  (371) 
155.65

>  <b_lp_Chiralities_Consistent>  (371) 
1

>  <s_lp_Variant>  (371) 
110:0-2

>  <s_i_glide_gridfile>  (371) 
pfpi4k_grid

>  <i_i_glide_lignum>  (371) 
35

>  <i_i_glide_rotatable_bonds>  (371) 
0

>  <r_i_docking_score>  (371) 
-4.1644

>  <r_i_glide_ligand_efficiency>  (371) 
-0.244965

>  <r_i_glide_ligand_efficiency_sa>  (371) 
-0.629873

>  <r_i_glide_ligand_efficiency_ln>  (371) 
-1.0864

>  <r_i_glide_gscore>  (371) 
-4.1644

>  <r_i_glide_lipo>  (371) 
-0.686283

>  <r_i_glide_hbond>  (371) 
-0.102215

>  <r_i_glide_metal>  (371) 
-0

>  <r_i_glide_rewards>  (371) 
-1.77071

>  <r_i_glide_evdw>  (371) 
-27.2117

>  <r_i_glide_ecoul>  (371) 
-1.63071

>  <r_i_glide_erotb>  (371) 
0

>  <r_i_glide_esite>  (371) 
0

>  <r_i_glide_emodel>  (371) 
-35.6364

>  <r_i_glide_energy>  (371) 
-28.8424

>  <r_i_glide_einternal>  (371) 
0

>  <r_i_glide_intrahb_reward>  (371) 
-0

>  <i_i_glide_confnum>  (371) 
1

>  <i_i_glide_posenum>  (371) 
20

>  <r_i_glide_eff_state_penalty>  (371) 
0

>  <ligand_id>  (371) 
110

>  <original_smiles>  (371) 
CC12CCC3OC(CC1)C31OOC(C)(C)C1O2

>  <smiles>  (371) 
[H]C([H])([H])C12OC3([H])C(C([H])([H])[H])(C([H])([H])[H])OOC34C([H])(OC4([H])C([H])([H])C1([H])[H])C([H])([H])C2([H])[H]

$$$$
110:1:1
     RDKit          3D

 37 40  0  0  1  0  0  0  0  0999 V2000
    4.4934   -3.8256    2.3143 C   0  0  0  0  0  0  0  0  0  0  0  0
    3.6692   -3.8523    0.9582 C   0  0  1  0  0  0  0  0  0  0  0  0
    5.0189   -4.4167    0.2389 C   0  0  0  0  0  0  0  0  0  0  0  0
    6.3049   -3.5547    0.0988 C   0  0  0  0  0  0  0  0  0  0  0  0
    6.1227   -2.0827   -0.2395 C   0  0  2  0  0  0  0  0  0  0  0  0
    5.9602   -1.3209    0.9781 O   0  0  0  0  0  0  0  0  0  0  0  0
    4.7019   -0.7779    0.5092 C   0  0  2  0  0  0  0  0  0  0  0  0
    3.5818   -1.1444    1.4766 C   0  0  0  0  0  0  0  0  0  0  0  0
    2.8713   -2.5155    1.2670 C   0  0  0  0  0  0  0  0  0  0  0  0
    4.8175   -1.5334   -0.8098 C   0  0  1  0  0  0  0  0  0  0  0  0
    5.1139   -0.7088   -1.9259 O   0  0  0  0  0  0  0  0  0  0  0  0
    4.4079   -1.3110   -3.1242 O   0  0  0  0  0  0  0  0  0  0  0  0
    3.9290   -2.5926   -2.7666 C   0  0  0  0  0  0  0  0  0  0  0  0
    2.6263   -2.9044   -3.5108 C   0  0  0  0  0  0  0  0  0  0  0  0
    5.0156   -3.6174   -3.1557 C   0  0  0  0  0  0  0  0  0  0  0  0
    3.7031   -2.3879   -1.2641 C   0  0  1  0  0  0  0  0  0  0  0  0
    3.5604   -3.6156   -0.4969 O   0  0  0  0  0  0  0  0  0  0  0  0
    4.9804   -4.7517    2.6125 H   0  0  0  0  0  0  0  0  0  0  0  0
    3.8333   -3.6853    3.1696 H   0  0  0  0  0  0  0  0  0  0  0  0
    5.2291   -3.0343    2.4115 H   0  0  0  0  0  0  0  0  0  0  0  0
    5.3524   -5.3164    0.7531 H   0  0  0  0  0  0  0  0  0  0  0  0
    4.9186   -5.0139   -0.6907 H   0  0  0  0  0  0  0  0  0  0  0  0
    6.9186   -3.6465    0.9991 H   0  0  0  0  0  0  0  0  0  0  0  0
    6.9109   -4.0096   -0.6771 H   0  0  0  0  0  0  0  0  0  0  0  0
    6.9671   -1.6920   -0.7953 H   0  0  0  0  0  0  0  0  0  0  0  0
    4.7955    0.2880    0.3513 H   0  0  0  0  0  0  0  0  0  0  0  0
    3.9475   -1.0640    2.5047 H   0  0  0  0  0  0  0  0  0  0  0  0
    2.8112   -0.3815    1.4002 H   0  0  0  0  0  0  0  0  0  0  0  0
    2.0220   -2.3943    0.5951 H   0  0  0  0  0  0  0  0  0  0  0  0
    2.2981   -2.6697    2.1784 H   0  0  0  0  0  0  0  0  0  0  0  0
    2.2064   -3.8557   -3.1938 H   0  0  0  0  0  0  0  0  0  0  0  0
    2.7790   -2.9500   -4.5875 H   0  0  0  0  0  0  0  0  0  0  0  0
    1.8699   -2.1423   -3.3165 H   0  0  0  0  0  0  0  0  0  0  0  0
    4.7333   -4.6294   -2.8736 H   0  0  0  0  0  0  0  0  0  0  0  0
    5.9819   -3.3918   -2.7172 H   0  0  0  0  0  0  0  0  0  0  0  0
    5.1483   -3.6299   -4.2362 H   0  0  0  0  0  0  0  0  0  0  0  0
    2.7915   -1.7882   -1.2181 H   0  0  0  0  0  0  0  0  0  0  0  0
  2  1  1  1
  1 18  1  0
  1 19  1  0
  1 20  1  0
  2  9  1  0
  2 17  1  0
  2  3  1  0
  3  4  1  0
  3 21  1  0
  3 22  1  0
  4  5  1  0
  4 23  1  0
  4 24  1  0
  5 10  1  0
  5  6  1  0
  5 25  1  6
  6  7  1  0
  7  8  1  0
  7 10  1  0
  7 26  1  6
  8  9  1  0
  8 27  1  0
  8 28  1  0
  9 29  1  0
  9 30  1  0
 10 16  1  0
 10 11  1  6
 11 12  1  0
 12 13  1  0
 13 14  1  0
 13 15  1  0
 13 16  1  0
 14 31  1  0
 14 32  1  0
 14 33  1  0
 15 34  1  0
 15 35  1  0
 15 36  1  0
 16 17  1  0
 16 37  1  6
M  END
>  <i_m_ct_stereo_status>  (372) 
1

>  <s_m_source_file>  (372) 
/var/tmp/pbs.5076255.sched01/tmpb6g28bo8/1236hu3uqnd.sdf

>  <i_m_source_file_index>  (372) 
35

>  <i_lp_mmshare_version>  (372) 
48012

>  <i_f3d_flags>  (372) 
0

>  <s_epik_input>  (372) 
TzFbQ0BIXTJbQ0gyXVtDSDJdW0NAQF0oW0NIM10pKFtDSDJdW0NIMl1bQ0BASF0xW0NAXTIzNClPW0NAQEhdNEMoT08zKShbQ0gzXSlbQ0gzXQ==

>  <s_epik_cmdline>  (372) 
J2VwaWtfcHl0aG9uJywgJy1waHQnLCAnMi4wJywgJy1waCcsICc3LjAnLCAnLXRuJywgJzgnLCAnLW1hJywgJzIwMCcsICctaW1hZScsICc8aW5maWxlLm1hZT4nLCAnLW9tYWUnLCAnPG91dGZpbGUubWFlPic=

>  <r_lp_tautomer_probability>  (372) 
1

>  <r_epik_Ionization_Penalty>  (372) 
2.19834e-13

>  <r_epik_Ionization_Penalty_Charging>  (372) 
0

>  <r_epik_Ionization_Penalty_Neutral>  (372) 
2.19834e-13

>  <r_epik_State_Penalty>  (372) 
-0

>  <r_epik_Charging_Adjusted_Penalty>  (372) 
0

>  <i_epik_Tot_Q>  (372) 
0

>  <i_epik_Tot_abs_Q>  (372) 
0

>  <s_lp_Force_Field>  (372) 
OPLS3e

>  <r_lp_Energy>  (372) 
155.65

>  <b_lp_Chiralities_Consistent>  (372) 
1

>  <s_lp_Variant>  (372) 
110:0-2

>  <s_i_glide_gridfile>  (372) 
pfpi4k_grid

>  <i_i_glide_lignum>  (372) 
35

>  <i_i_glide_rotatable_bonds>  (372) 
0

>  <r_i_docking_score>  (372) 
-3.76821

>  <r_i_glide_ligand_efficiency>  (372) 
-0.221659

>  <r_i_glide_ligand_efficiency_sa>  (372) 
-0.569949

>  <r_i_glide_ligand_efficiency_ln>  (372) 
-0.983042

>  <r_i_glide_gscore>  (372) 
-3.76821

>  <r_i_glide_lipo>  (372) 
-0.666624

>  <r_i_glide_hbond>  (372) 
0

>  <r_i_glide_metal>  (372) 
-0

>  <r_i_glide_rewards>  (372) 
-1.77071

>  <r_i_glide_evdw>  (372) 
-24.6914

>  <r_i_glide_ecoul>  (372) 
-0.642028

>  <r_i_glide_erotb>  (372) 
0

>  <r_i_glide_esite>  (372) 
0

>  <r_i_glide_emodel>  (372) 
-31.4718

>  <r_i_glide_energy>  (372) 
-25.3334

>  <r_i_glide_einternal>  (372) 
0

>  <r_i_glide_intrahb_reward>  (372) 
-0

>  <i_i_glide_confnum>  (372) 
2

>  <i_i_glide_posenum>  (372) 
2

>  <r_i_glide_eff_state_penalty>  (372) 
0

>  <ligand_id>  (372) 
110

>  <original_smiles>  (372) 
CC12CCC3OC(CC1)C31OOC(C)(C)C1O2

>  <smiles>  (372) 
[H]C([H])([H])C12OC3([H])C(C([H])([H])[H])(C([H])([H])[H])OOC34C([H])(OC4([H])C([H])([H])C1([H])[H])C([H])([H])C2([H])[H]

$$$$
110:1:2
     RDKit          3D

 37 40  0  0  1  0  0  0  0  0999 V2000
    3.5247   -2.2592    2.7724 C   0  0  0  0  0  0  0  0  0  0  0  0
    3.3598   -1.5011    1.3897 C   0  0  1  0  0  0  0  0  0  0  0  0
    2.7156   -2.8810    0.8035 C   0  0  0  0  0  0  0  0  0  0  0  0
    3.5382   -4.1873    0.6262 C   0  0  0  0  0  0  0  0  0  0  0  0
    4.9662   -4.0448    0.1117 C   0  0  2  0  0  0  0  0  0  0  0  0
    5.8511   -3.8290    1.2375 O   0  0  0  0  0  0  0  0  0  0  0  0
    6.3469   -2.6030    0.6479 C   0  0  2  0  0  0  0  0  0  0  0  0
    6.0961   -1.4274    1.5972 C   0  0  0  0  0  0  0  0  0  0  0  0
    4.7223   -0.7029    1.5000 C   0  0  0  0  0  0  0  0  0  0  0  0
    5.4579   -2.7723   -0.5718 C   0  0  1  0  0  0  0  0  0  0  0  0
    6.1608   -3.1062   -1.7505 O   0  0  0  0  0  0  0  0  0  0  0  0
    5.4100   -2.5006   -2.9150 O   0  0  0  0  0  0  0  0  0  0  0  0
    4.1909   -1.9516   -2.4331 C   0  0  0  0  0  0  0  0  0  0  0  0
    3.8209   -0.6786   -3.2044 C   0  0  0  0  0  0  0  0  0  0  0  0
    3.1118   -3.0194   -2.6529 C   0  0  0  0  0  0  0  0  0  0  0  0
    4.5732   -1.6577   -0.9786 C   0  0  1  0  0  0  0  0  0  0  0  0
    3.4416   -1.4680   -0.0877 O   0  0  0  0  0  0  0  0  0  0  0  0
    2.6312   -2.7181    3.1939 H   0  0  0  0  0  0  0  0  0  0  0  0
    3.7603   -1.5624    3.5744 H   0  0  0  0  0  0  0  0  0  0  0  0
    4.3123   -3.0035    2.8210 H   0  0  0  0  0  0  0  0  0  0  0  0
    1.8717   -3.1711    1.4285 H   0  0  0  0  0  0  0  0  0  0  0  0
    2.0301   -2.8192   -0.0611 H   0  0  0  0  0  0  0  0  0  0  0  0
    3.5417   -4.7564    1.5602 H   0  0  0  0  0  0  0  0  0  0  0  0
    2.9876   -4.8196   -0.0633 H   0  0  0  0  0  0  0  0  0  0  0  0
    5.2944   -4.9166   -0.4459 H   0  0  0  0  0  0  0  0  0  0  0  0
    7.3901   -2.7222    0.3781 H   0  0  0  0  0  0  0  0  0  0  0  0
    6.2556   -1.7533    2.6277 H   0  0  0  0  0  0  0  0  0  0  0  0
    6.8585   -0.6813    1.4171 H   0  0  0  0  0  0  0  0  0  0  0  0
    4.7720    0.1206    0.7849 H   0  0  0  0  0  0  0  0  0  0  0  0
    4.6727   -0.0900    2.3994 H   0  0  0  0  0  0  0  0  0  0  0  0
    2.9015   -0.2487   -2.8087 H   0  0  0  0  0  0  0  0  0  0  0  0
    3.6611   -0.8854   -4.2613 H   0  0  0  0  0  0  0  0  0  0  0  0
    4.6039    0.0750   -3.1223 H   0  0  0  0  0  0  0  0  0  0  0  0
    2.1363   -2.7080   -2.2853 H   0  0  0  0  0  0  0  0  0  0  0  0
    3.3894   -3.9420   -2.1563 H   0  0  0  0  0  0  0  0  0  0  0  0
    2.9970   -3.2466   -3.7135 H   0  0  0  0  0  0  0  0  0  0  0  0
    5.1877   -0.7551   -1.0367 H   0  0  0  0  0  0  0  0  0  0  0  0
  2  1  1  1
  1 18  1  0
  1 19  1  0
  1 20  1  0
  2  9  1  0
  2 17  1  0
  2  3  1  0
  3  4  1  0
  3 21  1  0
  3 22  1  0
  4  5  1  0
  4 23  1  0
  4 24  1  0
  5 10  1  0
  5  6  1  0
  5 25  1  6
  6  7  1  0
  7  8  1  0
  7 10  1  0
  7 26  1  6
  8  9  1  0
  8 27  1  0
  8 28  1  0
  9 29  1  0
  9 30  1  0
 10 16  1  0
 10 11  1  6
 11 12  1  0
 12 13  1  0
 13 14  1  0
 13 15  1  0
 13 16  1  0
 14 31  1  0
 14 32  1  0
 14 33  1  0
 15 34  1  0
 15 35  1  0
 15 36  1  0
 16 17  1  0
 16 37  1  6
M  END
>  <i_m_ct_stereo_status>  (373) 
1

>  <s_m_source_file>  (373) 
/var/tmp/pbs.5076255.sched01/tmpb6g28bo8/1236hu3uqnd.sdf

>  <i_m_source_file_index>  (373) 
35

>  <i_lp_mmshare_version>  (373) 
48012

>  <i_f3d_flags>  (373) 
0

>  <s_epik_input>  (373) 
TzFbQ0BIXTJbQ0gyXVtDSDJdW0NAQF0oW0NIM10pKFtDSDJdW0NIMl1bQ0BASF0xW0NAXTIzNClPW0NAQEhdNEMoT08zKShbQ0gzXSlbQ0gzXQ==

>  <s_epik_cmdline>  (373) 
J2VwaWtfcHl0aG9uJywgJy1waHQnLCAnMi4wJywgJy1waCcsICc3LjAnLCAnLXRuJywgJzgnLCAnLW1hJywgJzIwMCcsICctaW1hZScsICc8aW5maWxlLm1hZT4nLCAnLW9tYWUnLCAnPG91dGZpbGUubWFlPic=

>  <r_lp_tautomer_probability>  (373) 
1

>  <r_epik_Ionization_Penalty>  (373) 
2.19834e-13

>  <r_epik_Ionization_Penalty_Charging>  (373) 
0

>  <r_epik_Ionization_Penalty_Neutral>  (373) 
2.19834e-13

>  <r_epik_State_Penalty>  (373) 
-0

>  <r_epik_Charging_Adjusted_Penalty>  (373) 
0

>  <i_epik_Tot_Q>  (373) 
0

>  <i_epik_Tot_abs_Q>  (373) 
0

>  <s_lp_Force_Field>  (373) 
OPLS3e

>  <r_lp_Energy>  (373) 
155.65

>  <b_lp_Chiralities_Consistent>  (373) 
1

>  <s_lp_Variant>  (373) 
110:0-2

>  <s_i_glide_gridfile>  (373) 
pfpi4k_grid

>  <i_i_glide_lignum>  (373) 
35

>  <i_i_glide_rotatable_bonds>  (373) 
0

>  <r_i_docking_score>  (373) 
-3.62012

>  <r_i_glide_ligand_efficiency>  (373) 
-0.212948

>  <r_i_glide_ligand_efficiency_sa>  (373) 
-0.54755

>  <r_i_glide_ligand_efficiency_ln>  (373) 
-0.944408

>  <r_i_glide_gscore>  (373) 
-3.62012

>  <r_i_glide_lipo>  (373) 
-0.593993

>  <r_i_glide_hbond>  (373) 
0

>  <r_i_glide_metal>  (373) 
-0

>  <r_i_glide_rewards>  (373) 
-1.77071

>  <r_i_glide_evdw>  (373) 
-23.0612

>  <r_i_glide_ecoul>  (373) 
-0.682349

>  <r_i_glide_erotb>  (373) 
0

>  <r_i_glide_esite>  (373) 
0

>  <r_i_glide_emodel>  (373) 
-29.6137

>  <r_i_glide_energy>  (373) 
-23.7436

>  <r_i_glide_einternal>  (373) 
0

>  <r_i_glide_intrahb_reward>  (373) 
-0

>  <i_i_glide_confnum>  (373) 
1

>  <i_i_glide_posenum>  (373) 
26

>  <r_i_glide_eff_state_penalty>  (373) 
0

>  <ligand_id>  (373) 
110

>  <original_smiles>  (373) 
CC12CCC3OC(CC1)C31OOC(C)(C)C1O2

>  <smiles>  (373) 
[H]C([H])([H])C12OC3([H])C(C([H])([H])[H])(C([H])([H])[H])OOC34C([H])(OC4([H])C([H])([H])C1([H])[H])C([H])([H])C2([H])[H]

$$$$
112:0:0
     RDKit          3D

 37 40  0  0  1  0  0  0  0  0999 V2000
    7.8848   -4.3336    0.8810 C   0  0  0  0  0  0  0  0  0  0  0  0
    6.6221   -3.9576    0.6399 C   0  0  0  0  0  0  0  0  0  0  0  0
    6.2729   -2.6555   -0.0187 C   0  0  0  0  0  0  0  0  0  0  0  0
    7.1472   -1.8590   -0.3461 O   0  0  0  0  0  0  0  0  0  0  0  0
    4.7849   -2.4931   -0.2128 C   0  0  1  0  0  0  0  0  0  0  0  0
    4.4775   -1.4150   -1.2435 C   0  0  0  0  0  0  0  0  0  0  0  0
    4.1170   -1.9362   -2.4210 C   0  0  0  0  0  0  0  0  0  0  0  0
    3.8226   -1.1627   -3.6990 C   0  0  0  0  0  0  0  0  0  0  0  0
    4.0022   -3.4503   -2.3906 C   0  0  0  0  0  0  0  0  0  0  0  0
    4.1036   -3.7347   -0.8752 C   0  0  1  0  0  0  0  0  0  0  0  0
    4.7049   -5.0596   -0.4074 C   0  0  0  0  0  0  0  0  0  0  0  0
    5.3927   -4.7980    0.9767 C   0  0  2  0  0  0  0  0  0  0  0  0
    4.4538   -3.9486    1.9085 C   0  0  0  0  0  0  0  0  0  0  0  0
    3.3666   -4.8549    2.5454 C   0  0  0  0  0  0  0  0  0  0  0  0
    5.2114   -3.3123    3.1036 C   0  0  0  0  0  0  0  0  0  0  0  0
    3.8528   -2.8603    0.9934 C   0  0  2  0  0  0  0  0  0  0  0  0
    2.8692   -3.3422   -0.0528 C   0  0  0  0  0  0  0  0  0  0  0  0
    8.0998   -5.2813    1.3589 H   0  0  0  0  0  0  0  0  0  0  0  0
    8.7255   -3.7013    0.6203 H   0  0  0  0  0  0  0  0  0  0  0  0
    4.6053   -0.3593   -1.0483 H   0  0  0  0  0  0  0  0  0  0  0  0
    2.8021   -1.3559   -4.0333 H   0  0  0  0  0  0  0  0  0  0  0  0
    4.5013   -1.4709   -4.4932 H   0  0  0  0  0  0  0  0  0  0  0  0
    3.9344   -0.0878   -3.5562 H   0  0  0  0  0  0  0  0  0  0  0  0
    3.0387   -3.7544   -2.8003 H   0  0  0  0  0  0  0  0  0  0  0  0
    4.8027   -3.9104   -2.9640 H   0  0  0  0  0  0  0  0  0  0  0  0
    3.9222   -5.8216   -0.3104 H   0  0  0  0  0  0  0  0  0  0  0  0
    5.4169   -5.4572   -1.1242 H   0  0  0  0  0  0  0  0  0  0  0  0
    5.6976   -5.7339    1.4540 H   0  0  0  0  0  0  0  0  0  0  0  0
    2.5744   -4.2668    3.0018 H   0  0  0  0  0  0  0  0  0  0  0  0
    3.7981   -5.4900    3.3201 H   0  0  0  0  0  0  0  0  0  0  0  0
    2.9129   -5.5301    1.8201 H   0  0  0  0  0  0  0  0  0  0  0  0
    4.5300   -2.8486    3.8127 H   0  0  0  0  0  0  0  0  0  0  0  0
    5.9067   -2.5342    2.7904 H   0  0  0  0  0  0  0  0  0  0  0  0
    5.7872   -4.0663    3.6424 H   0  0  0  0  0  0  0  0  0  0  0  0
    3.4780   -1.9616    1.5199 H   0  0  0  0  0  0  0  0  0  0  0  0
    2.2449   -2.5956   -0.5112 H   0  0  0  0  0  0  0  0  0  0  0  0
    2.2500   -4.2044    0.2359 H   0  0  0  0  0  0  0  0  0  0  0  0
  1  2  2  0
  1 18  1  0
  1 19  1  0
  2 12  1  0
  2  3  1  0
  3  4  2  0
  3  5  1  0
  5 10  1  0
  5 16  1  0
  5  6  1  6
  6  7  2  0
  6 20  1  0
  7  8  1  0
  7  9  1  0
  8 21  1  0
  8 22  1  0
  8 23  1  0
 10  9  1  6
  9 24  1  0
  9 25  1  0
 10 17  1  0
 10 11  1  0
 11 12  1  0
 11 26  1  0
 11 27  1  0
 12 13  1  0
 12 28  1  1
 13 14  1  0
 13 15  1  0
 13 16  1  0
 14 29  1  0
 14 30  1  0
 14 31  1  0
 15 32  1  0
 15 33  1  0
 15 34  1  0
 16 17  1  0
 16 35  1  1
 17 36  1  0
 17 37  1  0
M  END
>  <i_m_ct_stereo_status>  (374) 
1

>  <s_m_source_file>  (374) 
/var/tmp/pbs.5076255.sched01/tmpb6g28bo8/1236hu3uqnd.sdf

>  <i_m_source_file_index>  (374) 
37

>  <i_lp_mmshare_version>  (374) 
48012

>  <i_f3d_flags>  (374) 
0

>  <s_epik_input>  (374) 
Tz1DMUMoPVtDSDJdKVtDQEBIXShDKFtDSDNdKShbQ0gzXSlbQ0BASF0yW0NIMl0zKVtDSDJdW0NAQF0zKFtDQF0xMjQpW0NIMl1DKD1bQ0hdNClbQ0gzXQ==

>  <s_epik_cmdline>  (374) 
J2VwaWtfcHl0aG9uJywgJy1waHQnLCAnMi4wJywgJy1waCcsICc3LjAnLCAnLXRuJywgJzgnLCAnLW1hJywgJzIwMCcsICctaW1hZScsICc8aW5maWxlLm1hZT4nLCAnLW9tYWUnLCAnPG91dGZpbGUubWFlPic=

>  <r_lp_tautomer_probability>  (374) 
1

>  <r_epik_Ionization_Penalty>  (374) 
0

>  <r_epik_Ionization_Penalty_Charging>  (374) 
0

>  <r_epik_Ionization_Penalty_Neutral>  (374) 
0

>  <r_epik_State_Penalty>  (374) 
-0

>  <r_epik_Charging_Adjusted_Penalty>  (374) 
0

>  <i_epik_Tot_Q>  (374) 
0

>  <i_epik_Tot_abs_Q>  (374) 
0

>  <s_lp_Force_Field>  (374) 
OPLS3e

>  <r_lp_Energy>  (374) 
67.4264

>  <b_lp_Chiralities_Consistent>  (374) 
1

>  <s_lp_Variant>  (374) 
112:0-1

>  <s_i_glide_gridfile>  (374) 
pfpi4k_grid

>  <i_i_glide_lignum>  (374) 
37

>  <i_i_glide_rotatable_bonds>  (374) 
0

>  <r_i_docking_score>  (374) 
-4.04883

>  <r_i_glide_ligand_efficiency>  (374) 
-0.238167

>  <r_i_glide_ligand_efficiency_sa>  (374) 
-0.612393

>  <r_i_glide_ligand_efficiency_ln>  (374) 
-1.05625

>  <r_i_glide_gscore>  (374) 
-4.04883

>  <r_i_glide_lipo>  (374) 
-0.596077

>  <r_i_glide_hbond>  (374) 
-0.153065

>  <r_i_glide_metal>  (374) 
-0

>  <r_i_glide_rewards>  (374) 
-1.89393

>  <r_i_glide_evdw>  (374) 
-21.6613

>  <r_i_glide_ecoul>  (374) 
-2.1513

>  <r_i_glide_erotb>  (374) 
0

>  <r_i_glide_esite>  (374) 
0

>  <r_i_glide_emodel>  (374) 
-30.0389

>  <r_i_glide_energy>  (374) 
-23.8126

>  <r_i_glide_einternal>  (374) 
0

>  <r_i_glide_intrahb_reward>  (374) 
-0

>  <i_i_glide_confnum>  (374) 
1

>  <i_i_glide_posenum>  (374) 
1

>  <r_i_glide_eff_state_penalty>  (374) 
0

>  <ligand_id>  (374) 
112

>  <original_smiles>  (374) 
C=C1C(=O)C23C=C(C)CC24CC1C(C)(C)C3C4

>  <smiles>  (374) 
[H]C([H])=C1C(=O)C23C([H])=C(C([H])([H])[H])C([H])([H])C24C([H])([H])C1([H])C(C([H])([H])[H])(C([H])([H])[H])C3([H])C4([H])[H]

$$$$
112:0:1
     RDKit          3D

 37 40  0  0  1  0  0  0  0  0999 V2000
    3.6405   -3.0091    2.8521 C   0  0  0  0  0  0  0  0  0  0  0  0
    4.2830   -3.0454    1.6723 C   0  0  0  0  0  0  0  0  0  0  0  0
    3.5818   -3.2635    0.3798 C   0  0  0  0  0  0  0  0  0  0  0  0
    2.3752   -3.4837    0.3150 O   0  0  0  0  0  0  0  0  0  0  0  0
    4.5349   -3.2174   -0.8033 C   0  0  1  0  0  0  0  0  0  0  0  0
    3.7878   -3.0115   -2.1117 C   0  0  0  0  0  0  0  0  0  0  0  0
    3.9336   -1.7585   -2.5644 C   0  0  0  0  0  0  0  0  0  0  0  0
    3.2636   -1.1494   -3.7742 C   0  0  0  0  0  0  0  0  0  0  0  0
    4.8744   -0.9370   -1.6989 C   0  0  0  0  0  0  0  0  0  0  0  0
    5.4958   -2.0085   -0.8065 C   0  0  1  0  0  0  0  0  0  0  0  0
    5.9651   -1.6061    0.6118 C   0  0  0  0  0  0  0  0  0  0  0  0
    5.7918   -2.8761    1.5195 C   0  0  2  0  0  0  0  0  0  0  0  0
    6.3549   -4.1626    0.7969 C   0  0  0  0  0  0  0  0  0  0  0  0
    7.8974   -4.2137    0.8871 C   0  0  0  0  0  0  0  0  0  0  0  0
    5.8511   -5.4828    1.4464 C   0  0  0  0  0  0  0  0  0  0  0  0
    5.8403   -4.0544   -0.6666 C   0  0  2  0  0  0  0  0  0  0  0  0
    6.5001   -2.9511   -1.5049 C   0  0  0  0  0  0  0  0  0  0  0  0
    4.1854   -2.8563    3.7762 H   0  0  0  0  0  0  0  0  0  0  0  0
    2.5640   -3.1271    2.9150 H   0  0  0  0  0  0  0  0  0  0  0  0
    3.1613   -3.7668   -2.5641 H   0  0  0  0  0  0  0  0  0  0  0  0
    4.0093   -0.7993   -4.4872 H   0  0  0  0  0  0  0  0  0  0  0  0
    2.6505   -0.2983   -3.4697 H   0  0  0  0  0  0  0  0  0  0  0  0
    2.6147   -1.8736   -4.2720 H   0  0  0  0  0  0  0  0  0  0  0  0
    5.6126   -0.4263   -2.3140 H   0  0  0  0  0  0  0  0  0  0  0  0
    4.3036   -0.2092   -1.1257 H   0  0  0  0  0  0  0  0  0  0  0  0
    7.0060   -1.2830    0.6038 H   0  0  0  0  0  0  0  0  0  0  0  0
    5.3832   -0.7690    1.0050 H   0  0  0  0  0  0  0  0  0  0  0  0
    6.2389   -2.7316    2.5028 H   0  0  0  0  0  0  0  0  0  0  0  0
    8.3156   -4.9529    0.2028 H   0  0  0  0  0  0  0  0  0  0  0  0
    8.2143   -4.4925    1.8935 H   0  0  0  0  0  0  0  0  0  0  0  0
    8.3614   -3.2510    0.6760 H   0  0  0  0  0  0  0  0  0  0  0  0
    6.3560   -6.3492    1.0191 H   0  0  0  0  0  0  0  0  0  0  0  0
    4.7854   -5.6510    1.3041 H   0  0  0  0  0  0  0  0  0  0  0  0
    6.0429   -5.4904    2.5200 H   0  0  0  0  0  0  0  0  0  0  0  0
    5.7683   -5.0114   -1.1776 H   0  0  0  0  0  0  0  0  0  0  0  0
    6.3566   -3.0770   -2.5781 H   0  0  0  0  0  0  0  0  0  0  0  0
    7.5413   -2.7346   -1.2881 H   0  0  0  0  0  0  0  0  0  0  0  0
  1  2  2  0
  1 18  1  0
  1 19  1  0
  2 12  1  0
  2  3  1  0
  3  4  2  0
  3  5  1  0
  5 10  1  0
  5 16  1  0
  5  6  1  6
  6  7  2  0
  6 20  1  0
  7  8  1  0
  7  9  1  0
  8 21  1  0
  8 22  1  0
  8 23  1  0
 10  9  1  6
  9 24  1  0
  9 25  1  0
 10 17  1  0
 10 11  1  0
 11 12  1  0
 11 26  1  0
 11 27  1  0
 12 13  1  0
 12 28  1  1
 13 14  1  0
 13 15  1  0
 13 16  1  0
 14 29  1  0
 14 30  1  0
 14 31  1  0
 15 32  1  0
 15 33  1  0
 15 34  1  0
 16 17  1  0
 16 35  1  6
 17 36  1  0
 17 37  1  0
M  END
>  <i_m_ct_stereo_status>  (375) 
1

>  <s_m_source_file>  (375) 
/var/tmp/pbs.5076255.sched01/tmpb6g28bo8/1236hu3uqnd.sdf

>  <i_m_source_file_index>  (375) 
37

>  <i_lp_mmshare_version>  (375) 
48012

>  <i_f3d_flags>  (375) 
0

>  <s_epik_input>  (375) 
Tz1DMUMoPVtDSDJdKVtDQEBIXShDKFtDSDNdKShbQ0gzXSlbQ0BASF0yW0NIMl0zKVtDSDJdW0NAQF0zKFtDQF0xMjQpW0NIMl1DKD1bQ0hdNClbQ0gzXQ==

>  <s_epik_cmdline>  (375) 
J2VwaWtfcHl0aG9uJywgJy1waHQnLCAnMi4wJywgJy1waCcsICc3LjAnLCAnLXRuJywgJzgnLCAnLW1hJywgJzIwMCcsICctaW1hZScsICc8aW5maWxlLm1hZT4nLCAnLW9tYWUnLCAnPG91dGZpbGUubWFlPic=

>  <r_lp_tautomer_probability>  (375) 
1

>  <r_epik_Ionization_Penalty>  (375) 
0

>  <r_epik_Ionization_Penalty_Charging>  (375) 
0

>  <r_epik_Ionization_Penalty_Neutral>  (375) 
0

>  <r_epik_State_Penalty>  (375) 
-0

>  <r_epik_Charging_Adjusted_Penalty>  (375) 
0

>  <i_epik_Tot_Q>  (375) 
0

>  <i_epik_Tot_abs_Q>  (375) 
0

>  <s_lp_Force_Field>  (375) 
OPLS3e

>  <r_lp_Energy>  (375) 
67.4264

>  <b_lp_Chiralities_Consistent>  (375) 
1

>  <s_lp_Variant>  (375) 
112:0-1

>  <s_i_glide_gridfile>  (375) 
pfpi4k_grid

>  <i_i_glide_lignum>  (375) 
37

>  <i_i_glide_rotatable_bonds>  (375) 
0

>  <r_i_docking_score>  (375) 
-3.76598

>  <r_i_glide_ligand_efficiency>  (375) 
-0.221528

>  <r_i_glide_ligand_efficiency_sa>  (375) 
-0.569612

>  <r_i_glide_ligand_efficiency_ln>  (375) 
-0.982461

>  <r_i_glide_gscore>  (375) 
-3.76598

>  <r_i_glide_lipo>  (375) 
-0.782766

>  <r_i_glide_hbond>  (375) 
-0.000118862

>  <r_i_glide_metal>  (375) 
-0

>  <r_i_glide_rewards>  (375) 
-1.8523

>  <r_i_glide_evdw>  (375) 
-22.0651

>  <r_i_glide_ecoul>  (375) 
-0.147369

>  <r_i_glide_erotb>  (375) 
0

>  <r_i_glide_esite>  (375) 
-0.00544168

>  <r_i_glide_emodel>  (375) 
-28.0388

>  <r_i_glide_energy>  (375) 
-22.2124

>  <r_i_glide_einternal>  (375) 
0

>  <r_i_glide_intrahb_reward>  (375) 
-0

>  <i_i_glide_confnum>  (375) 
1

>  <i_i_glide_posenum>  (375) 
2

>  <r_i_glide_eff_state_penalty>  (375) 
0

>  <ligand_id>  (375) 
112

>  <original_smiles>  (375) 
C=C1C(=O)C23C=C(C)CC24CC1C(C)(C)C3C4

>  <smiles>  (375) 
[H]C([H])=C1C(=O)C23C([H])=C(C([H])([H])[H])C([H])([H])C24C([H])([H])C1([H])C(C([H])([H])[H])(C([H])([H])[H])C3([H])C4([H])[H]

$$$$
112:0:2
     RDKit          3D

 37 40  0  0  1  0  0  0  0  0999 V2000
    2.6658   -3.4718    2.0554 C   0  0  0  0  0  0  0  0  0  0  0  0
    3.5285   -3.3752    1.0275 C   0  0  0  0  0  0  0  0  0  0  0  0
    3.1078   -3.4676   -0.3971 C   0  0  0  0  0  0  0  0  0  0  0  0
    1.9532   -3.7238   -0.7321 O   0  0  0  0  0  0  0  0  0  0  0  0
    4.2801   -3.2797   -1.3483 C   0  0  1  0  0  0  0  0  0  0  0  0
    3.8112   -2.9429   -2.7546 C   0  0  0  0  0  0  0  0  0  0  0  0
    4.0160   -1.6460   -3.0287 C   0  0  0  0  0  0  0  0  0  0  0  0
    3.5811   -0.9060   -4.2735 C   0  0  0  0  0  0  0  0  0  0  0  0
    4.7338   -0.9164   -1.9048 C   0  0  0  0  0  0  0  0  0  0  0  0
    5.1952   -2.0756   -1.0270 C   0  0  1  0  0  0  0  0  0  0  0  0
    5.3534   -1.8257    0.4883 C   0  0  0  0  0  0  0  0  0  0  0  0
    5.0297   -3.1825    1.2091 C   0  0  2  0  0  0  0  0  0  0  0  0
    5.7567   -4.3849    0.4863 C   0  0  0  0  0  0  0  0  0  0  0  0
    7.2499   -4.4333    0.8896 C   0  0  0  0  0  0  0  0  0  0  0  0
    5.1678   -5.7690    0.8775 C   0  0  0  0  0  0  0  0  0  0  0  0
    5.5383   -4.1246   -1.0309 C   0  0  2  0  0  0  0  0  0  0  0  0
    6.3365   -2.9459   -1.6055 C   0  0  0  0  0  0  0  0  0  0  0  0
    3.0218   -3.4169    3.0731 H   0  0  0  0  0  0  0  0  0  0  0  0
    1.6051   -3.6046    1.9031 H   0  0  0  0  0  0  0  0  0  0  0  0
    3.2999   -3.6455   -3.3971 H   0  0  0  0  0  0  0  0  0  0  0  0
    4.4472   -0.4775   -4.7728 H   0  0  0  0  0  0  0  0  0  0  0  0
    2.8933   -0.0995   -4.0091 H   0  0  0  0  0  0  0  0  0  0  0  0
    3.0703   -1.5762   -4.9599 H   0  0  0  0  0  0  0  0  0  0  0  0
    5.5639   -0.3358   -2.2966 H   0  0  0  0  0  0  0  0  0  0  0  0
    4.0350   -0.2757   -1.3749 H   0  0  0  0  0  0  0  0  0  0  0  0
    6.3636   -1.4979    0.7280 H   0  0  0  0  0  0  0  0  0  0  0  0
    4.6808   -1.0382    0.8347 H   0  0  0  0  0  0  0  0  0  0  0  0
    5.2806   -3.1453    2.2723 H   0  0  0  0  0  0  0  0  0  0  0  0
    7.8142   -5.0989    0.2351 H   0  0  0  0  0  0  0  0  0  0  0  0
    7.3613   -4.8113    1.9068 H   0  0  0  0  0  0  0  0  0  0  0  0
    7.7260   -3.4562    0.8698 H   0  0  0  0  0  0  0  0  0  0  0  0
    5.7732   -6.5772    0.4707 H   0  0  0  0  0  0  0  0  0  0  0  0
    4.1590   -5.9267    0.5018 H   0  0  0  0  0  0  0  0  0  0  0  0
    5.1404   -5.8952    1.9590 H   0  0  0  0  0  0  0  0  0  0  0  0
    5.5135   -5.0193   -1.6465 H   0  0  0  0  0  0  0  0  0  0  0  0
    6.4115   -2.9589   -2.6927 H   0  0  0  0  0  0  0  0  0  0  0  0
    7.3089   -2.7404   -1.1608 H   0  0  0  0  0  0  0  0  0  0  0  0
  1  2  2  0
  1 18  1  0
  1 19  1  0
  2 12  1  0
  2  3  1  0
  3  4  2  0
  3  5  1  0
  5 10  1  0
  5 16  1  0
  5  6  1  6
  6  7  2  0
  6 20  1  0
  7  8  1  0
  7  9  1  0
  8 21  1  0
  8 22  1  0
  8 23  1  0
 10  9  1  6
  9 24  1  0
  9 25  1  0
 10 17  1  0
 10 11  1  0
 11 12  1  0
 11 26  1  0
 11 27  1  0
 12 13  1  0
 12 28  1  1
 13 14  1  0
 13 15  1  0
 13 16  1  0
 14 29  1  0
 14 30  1  0
 14 31  1  0
 15 32  1  0
 15 33  1  0
 15 34  1  0
 16 17  1  0
 16 35  1  6
 17 36  1  0
 17 37  1  0
M  END
>  <i_m_ct_stereo_status>  (376) 
1

>  <s_m_source_file>  (376) 
/var/tmp/pbs.5076255.sched01/tmpb6g28bo8/1236hu3uqnd.sdf

>  <i_m_source_file_index>  (376) 
37

>  <i_lp_mmshare_version>  (376) 
48012

>  <i_f3d_flags>  (376) 
0

>  <s_epik_input>  (376) 
Tz1DMUMoPVtDSDJdKVtDQEBIXShDKFtDSDNdKShbQ0gzXSlbQ0BASF0yW0NIMl0zKVtDSDJdW0NAQF0zKFtDQF0xMjQpW0NIMl1DKD1bQ0hdNClbQ0gzXQ==

>  <s_epik_cmdline>  (376) 
J2VwaWtfcHl0aG9uJywgJy1waHQnLCAnMi4wJywgJy1waCcsICc3LjAnLCAnLXRuJywgJzgnLCAnLW1hJywgJzIwMCcsICctaW1hZScsICc8aW5maWxlLm1hZT4nLCAnLW9tYWUnLCAnPG91dGZpbGUubWFlPic=

>  <r_lp_tautomer_probability>  (376) 
1

>  <r_epik_Ionization_Penalty>  (376) 
0

>  <r_epik_Ionization_Penalty_Charging>  (376) 
0

>  <r_epik_Ionization_Penalty_Neutral>  (376) 
0

>  <r_epik_State_Penalty>  (376) 
-0

>  <r_epik_Charging_Adjusted_Penalty>  (376) 
0

>  <i_epik_Tot_Q>  (376) 
0

>  <i_epik_Tot_abs_Q>  (376) 
0

>  <s_lp_Force_Field>  (376) 
OPLS3e

>  <r_lp_Energy>  (376) 
67.4264

>  <b_lp_Chiralities_Consistent>  (376) 
1

>  <s_lp_Variant>  (376) 
112:0-1

>  <s_i_glide_gridfile>  (376) 
pfpi4k_grid

>  <i_i_glide_lignum>  (376) 
37

>  <i_i_glide_rotatable_bonds>  (376) 
0

>  <r_i_docking_score>  (376) 
-3.69034

>  <r_i_glide_ligand_efficiency>  (376) 
-0.217079

>  <r_i_glide_ligand_efficiency_sa>  (376) 
-0.558171

>  <r_i_glide_ligand_efficiency_ln>  (376) 
-0.962728

>  <r_i_glide_gscore>  (376) 
-3.69034

>  <r_i_glide_lipo>  (376) 
-0.597179

>  <r_i_glide_hbond>  (376) 
-0.0159371

>  <r_i_glide_metal>  (376) 
-0

>  <r_i_glide_rewards>  (376) 
-1.89662

>  <r_i_glide_evdw>  (376) 
-21.9112

>  <r_i_glide_ecoul>  (376) 
-0.566927

>  <r_i_glide_erotb>  (376) 
0

>  <r_i_glide_esite>  (376) 
0

>  <r_i_glide_emodel>  (376) 
-28.08

>  <r_i_glide_energy>  (376) 
-22.4782

>  <r_i_glide_einternal>  (376) 
0

>  <r_i_glide_intrahb_reward>  (376) 
-0

>  <i_i_glide_confnum>  (376) 
2

>  <i_i_glide_posenum>  (376) 
5

>  <r_i_glide_eff_state_penalty>  (376) 
0

>  <ligand_id>  (376) 
112

>  <original_smiles>  (376) 
C=C1C(=O)C23C=C(C)CC24CC1C(C)(C)C3C4

>  <smiles>  (376) 
[H]C([H])=C1C(=O)C23C([H])=C(C([H])([H])[H])C([H])([H])C24C([H])([H])C1([H])C(C([H])([H])[H])(C([H])([H])[H])C3([H])C4([H])[H]

$$$$
113:0:0
     RDKit          3D

 67 73  0  0  1  0  0  0  0  0999 V2000
    5.1594   -2.8601    1.2554 C   0  0  0  0  0  0  0  0  0  0  0  0
    4.7479   -3.9640    0.2554 C   0  0  2  0  0  0  0  0  0  0  0  0
    5.8552   -4.1106   -0.8190 C   0  0  0  0  0  0  0  0  0  0  0  0
    5.9514   -2.9640   -1.8460 C   0  0  0  0  0  0  0  0  0  0  0  0
    4.6018   -2.6748   -2.5163 C   0  0  1  0  0  0  0  0  0  0  0  0
    4.2464   -3.7314   -3.3897 O   0  0  0  0  0  0  0  0  0  0  0  0
    3.5115   -2.4474   -1.4589 C   0  0  0  0  0  0  0  0  0  0  0  0
    3.4344   -3.5822   -0.4466 C   0  0  0  0  0  0  0  0  0  0  0  0
    2.2707   -4.2385   -0.2281 C   0  0  0  0  0  0  0  0  0  0  0  0
    2.0638   -5.3521    0.7997 C   0  0  0  0  0  0  0  0  0  0  0  0
    3.2376   -5.4094    1.7809 C   0  0  2  0  0  0  0  0  0  0  0  0
    4.5451   -5.3499    0.9521 C   0  0  2  0  0  0  0  0  0  0  0  0
    5.6906   -5.9116    1.7894 C   0  0  1  0  0  0  0  0  0  0  0  0
    5.5808   -5.6878    3.3063 C   0  0  0  0  0  0  0  0  0  0  0  0
    4.6653   -6.9307    3.3182 C   0  0  2  0  0  0  0  0  0  0  0  0
    4.7932   -7.8194    4.5958 C   0  0  0  0  0  0  0  0  0  0  0  0
    5.5435   -9.1623    4.4451 C   0  0  0  0  0  0  0  0  0  0  0  0
    6.8056   -9.0782    3.6248 C   0  0  2  0  0  0  0  0  0  0  0  0
    7.5377   -7.8487    3.6964 O   0  0  0  0  0  0  0  0  0  0  0  0
    6.8484   -8.1471    2.4701 C   0  0  2  0  0  0  0  0  0  0  0  0
    5.5537   -7.4151    2.1232 C   0  0  2  0  0  0  0  0  0  0  0  0
    4.8571   -8.3466    1.1039 C   0  0  0  0  0  0  0  0  0  0  0  0
    3.1892   -6.5236    2.9054 C   0  0  1  0  0  0  0  0  0  0  0  0
    2.2634   -5.9903    4.0501 C   0  0  0  0  0  0  0  0  0  0  0  0
    1.7587   -7.0039    5.0681 C   0  0  0  0  0  0  0  0  0  0  0  0
    1.9223   -6.7404    6.4472 C   0  0  0  0  0  0  0  0  0  0  0  0
    1.5350   -7.7053    7.3997 C   0  0  0  0  0  0  0  0  0  0  0  0
    0.9991   -8.9343    6.9824 C   0  0  0  0  0  0  0  0  0  0  0  0
    0.6630   -9.8567    7.9255 O   0  0  0  0  0  0  0  0  0  0  0  0
    0.8174   -9.1998    5.6099 C   0  0  0  0  0  0  0  0  0  0  0  0
    1.1907   -8.2295    4.6543 C   0  0  0  0  0  0  0  0  0  0  0  0
    6.0683   -3.1276    1.7954 H   0  0  0  0  0  0  0  0  0  0  0  0
    4.3781   -2.6660    1.9882 H   0  0  0  0  0  0  0  0  0  0  0  0
    5.3531   -1.9116    0.7530 H   0  0  0  0  0  0  0  0  0  0  0  0
    6.8303   -4.2492   -0.3500 H   0  0  0  0  0  0  0  0  0  0  0  0
    5.6388   -5.0195   -1.3716 H   0  0  0  0  0  0  0  0  0  0  0  0
    6.3017   -2.0634   -1.3444 H   0  0  0  0  0  0  0  0  0  0  0  0
    6.7002   -3.1962   -2.6062 H   0  0  0  0  0  0  0  0  0  0  0  0
    4.6933   -1.7771   -3.1283 H   0  0  0  0  0  0  0  0  0  0  0  0
    3.9396   -4.4700   -2.8728 H   0  0  0  0  0  0  0  0  0  0  0  0
    3.7252   -1.5304   -0.9094 H   0  0  0  0  0  0  0  0  0  0  0  0
    2.5441   -2.2896   -1.9379 H   0  0  0  0  0  0  0  0  0  0  0  0
    1.4142   -3.9536   -0.8131 H   0  0  0  0  0  0  0  0  0  0  0  0
    1.1605   -5.1817    1.3786 H   0  0  0  0  0  0  0  0  0  0  0  0
    1.9336   -6.2982    0.2745 H   0  0  0  0  0  0  0  0  0  0  0  0
    3.1883   -4.4695    2.3284 H   0  0  0  0  0  0  0  0  0  0  0  0
    4.4006   -6.0328    0.1164 H   0  0  0  0  0  0  0  0  0  0  0  0
    6.6843   -5.6705    1.4110 H   0  0  0  0  0  0  0  0  0  0  0  0
    6.5194   -5.7826    3.8563 H   0  0  0  0  0  0  0  0  0  0  0  0
    5.0771   -4.7621    3.5915 H   0  0  0  0  0  0  0  0  0  0  0  0
    5.2765   -7.2397    5.3855 H   0  0  0  0  0  0  0  0  0  0  0  0
    3.8522   -8.1424    5.0045 H   0  0  0  0  0  0  0  0  0  0  0  0
    5.7778   -9.5660    5.4300 H   0  0  0  0  0  0  0  0  0  0  0  0
    4.8899   -9.8883    3.9627 H   0  0  0  0  0  0  0  0  0  0  0  0
    7.4329   -9.9660    3.6085 H   0  0  0  0  0  0  0  0  0  0  0  0
    7.4983   -8.3993    1.6369 H   0  0  0  0  0  0  0  0  0  0  0  0
    4.7103   -9.3448    1.5108 H   0  0  0  0  0  0  0  0  0  0  0  0
    5.4137   -8.4720    0.1833 H   0  0  0  0  0  0  0  0  0  0  0  0
    3.8758   -8.0083    0.7891 H   0  0  0  0  0  0  0  0  0  0  0  0
    2.6977   -7.3955    2.4804 H   0  0  0  0  0  0  0  0  0  0  0  0
    2.7442   -5.1571    4.5663 H   0  0  0  0  0  0  0  0  0  0  0  0
    1.3573   -5.5780    3.6061 H   0  0  0  0  0  0  0  0  0  0  0  0
    2.3908   -5.8267    6.7839 H   0  0  0  0  0  0  0  0  0  0  0  0
    1.6874   -7.5175    8.4531 H   0  0  0  0  0  0  0  0  0  0  0  0
    0.8659  -10.7805    7.6878 H   0  0  0  0  0  0  0  0  0  0  0  0
    0.4126  -10.1468    5.2833 H   0  0  0  0  0  0  0  0  0  0  0  0
    1.0860   -8.4622    3.6043 H   0  0  0  0  0  0  0  0  0  0  0  0
  2  1  1  1
  1 32  1  0
  1 33  1  0
  1 34  1  0
  2  8  1  0
  2 12  1  0
  2  3  1  0
  3  4  1  0
  3 35  1  0
  3 36  1  0
  4  5  1  0
  4 37  1  0
  4 38  1  0
  5  6  1  0
  5  7  1  0
  5 39  1  6
  6 40  1  0
  7  8  1  0
  7 41  1  0
  7 42  1  0
  8  9  2  0
  9 10  1  0
  9 43  1  0
 10 11  1  0
 10 44  1  0
 10 45  1  0
 11 23  1  0
 11 12  1  0
 11 46  1  1
 12 13  1  0
 12 47  1  6
 13 21  1  0
 13 14  1  0
 13 48  1  6
 15 14  1  1
 14 49  1  0
 14 50  1  0
 15 21  1  0
 15 16  1  0
 15 23  1  0
 16 17  1  0
 16 51  1  0
 16 52  1  0
 17 18  1  0
 17 53  1  0
 17 54  1  0
 18 20  1  0
 18 19  1  0
 18 55  1  6
 19 20  1  0
 20 21  1  0
 20 56  1  6
 21 22  1  6
 22 57  1  0
 22 58  1  0
 22 59  1  0
 23 24  1  0
 23 60  1  6
 24 25  1  0
 24 61  1  0
 24 62  1  0
 25 31  1  0
 25 26  2  0
 26 27  1  0
 26 63  1  0
 27 28  2  0
 27 64  1  0
 28 29  1  0
 28 30  1  0
 29 65  1  0
 30 31  2  0
 30 66  1  0
 31 67  1  0
M  END
>  <i_m_ct_stereo_status>  (377) 
1

>  <s_m_source_file>  (377) 
/var/tmp/pbs.5076255.sched01/tmpb6g28bo8/1236hu3uqnd.sdf

>  <i_m_source_file_index>  (377) 
38

>  <i_lp_mmshare_version>  (377) 
48012

>  <i_f3d_flags>  (377) 
0

>  <s_epik_input>  (377) 
W0NIMl0xW0NIMl1bQ0BIXShPMilbQ0BIXTJbQ0BdKFtDQEBdMTM0KShbQ0gzXSlbQ0BIXShbQ0gyXTMpW0NAQEhdNVtDQF02KFtDSDNdKUMoW0NIMl1bQ0BIXShbT0hdKVtDSDJdW0NIMl02KT1bQ0hdW0NIMl1bQ0BIXTVbQ0BASF00W0NIMl1jN1tjSF1bY0hdYyhbT0hdKVtjSF1bY0hdNw==

>  <s_epik_cmdline>  (377) 
J2VwaWtfcHl0aG9uJywgJy1waHQnLCAnMi4wJywgJy1waCcsICc3LjAnLCAnLXRuJywgJzgnLCAnLW1hJywgJzIwMCcsICctaW1hZScsICc8aW5maWxlLm1hZT4nLCAnLW9tYWUnLCAnPG91dGZpbGUubWFlPic=

>  <r_lp_tautomer_probability>  (377) 
1

>  <r_epik_Ionization_Penalty>  (377) 
0.000303828

>  <r_epik_Ionization_Penalty_Charging>  (377) 
0

>  <r_epik_Ionization_Penalty_Neutral>  (377) 
0.000303828

>  <r_epik_State_Penalty>  (377) 
0.000182071

>  <r_epik_Charging_Adjusted_Penalty>  (377) 
0.000182071

>  <i_epik_Tot_Q>  (377) 
0

>  <i_epik_Tot_abs_Q>  (377) 
0

>  <s_lp_Force_Field>  (377) 
OPLS3e

>  <r_lp_Energy>  (377) 
75.6307

>  <b_lp_Chiralities_Consistent>  (377) 
1

>  <s_lp_Variant>  (377) 
113:0-1

>  <s_i_glide_gridfile>  (377) 
pfpi4k_grid

>  <i_i_glide_lignum>  (377) 
38

>  <i_i_glide_rotatable_bonds>  (377) 
4

>  <r_i_docking_score>  (377) 
-3.67691

>  <r_i_glide_ligand_efficiency>  (377) 
-0.11861

>  <r_i_glide_ligand_efficiency_sa>  (377) 
-0.372599

>  <r_i_glide_ligand_efficiency_ln>  (377) 
-0.829256

>  <r_i_glide_gscore>  (377) 
-3.67691

>  <r_i_glide_lipo>  (377) 
-0.533459

>  <r_i_glide_hbond>  (377) 
-0.456

>  <r_i_glide_metal>  (377) 
-0

>  <r_i_glide_rewards>  (377) 
-0.541475

>  <r_i_glide_evdw>  (377) 
-18.7696

>  <r_i_glide_ecoul>  (377) 
-9.54195

>  <r_i_glide_erotb>  (377) 
0.223796

>  <r_i_glide_esite>  (377) 
0

>  <r_i_glide_emodel>  (377) 
-33.6286

>  <r_i_glide_energy>  (377) 
-28.3116

>  <r_i_glide_einternal>  (377) 
3.71757

>  <r_i_glide_intrahb_reward>  (377) 
-0

>  <i_i_glide_confnum>  (377) 
2

>  <i_i_glide_posenum>  (377) 
30

>  <r_i_glide_eff_state_penalty>  (377) 
0

>  <ligand_id>  (377) 
113

>  <original_smiles>  (377) 
CC12CCC(O)CC1=CCC1C2C2CC3(CCC4OC4C23C)C1Cc1ccc(O)cc1

>  <smiles>  (377) 
[H]Oc1c([H])c([H])c(C([H])([H])C2([H])C3([H])C([H])([H])C([H])=C4C([H])([H])C([H])(O[H])C([H])([H])C([H])([H])C4(C([H])([H])[H])C3([H])C3([H])C([H])([H])C24C([H])([H])C([H])([H])C2([H])OC2([H])C34C([H])([H])[H])c([H])c1[H]

$$$$
113:0:1
     RDKit          3D

 67 73  0  0  1  0  0  0  0  0999 V2000
    3.9811   -7.5917    4.3901 C   0  0  0  0  0  0  0  0  0  0  0  0
    2.5399   -7.1459    4.0424 C   0  0  2  0  0  0  0  0  0  0  0  0
    1.6441   -7.2695    5.3077 C   0  0  0  0  0  0  0  0  0  0  0  0
    1.3011   -8.7157    5.7260 C   0  0  0  0  0  0  0  0  0  0  0  0
    0.7040   -9.5306    4.5642 C   0  0  1  0  0  0  0  0  0  0  0  0
   -0.5880   -9.0518    4.2461 O   0  0  0  0  0  0  0  0  0  0  0  0
    1.6237   -9.4740    3.3341 C   0  0  0  0  0  0  0  0  0  0  0  0
    1.9699   -8.0474    2.9271 C   0  0  0  0  0  0  0  0  0  0  0  0
    1.7565   -7.6146    1.6643 C   0  0  0  0  0  0  0  0  0  0  0  0
    2.1193   -6.2296    1.1349 C   0  0  0  0  0  0  0  0  0  0  0  0
    3.0669   -5.5207    2.1104 C   0  0  2  0  0  0  0  0  0  0  0  0
    2.4927   -5.6697    3.5391 C   0  0  2  0  0  0  0  0  0  0  0  0
    3.0978   -4.5864    4.4325 C   0  0  1  0  0  0  0  0  0  0  0  0
    4.5198   -4.1311    4.0720 C   0  0  0  0  0  0  0  0  0  0  0  0
    3.8568   -3.2254    3.0155 C   0  0  2  0  0  0  0  0  0  0  0  0
    4.5892   -1.8710    2.7567 C   0  0  0  0  0  0  0  0  0  0  0  0
    3.9150   -0.6006    3.3589 C   0  0  0  0  0  0  0  0  0  0  0  0
    3.3747   -0.7814    4.7615 C   0  0  2  0  0  0  0  0  0  0  0  0
    4.0833   -1.6773    5.6238 O   0  0  0  0  0  0  0  0  0  0  0  0
    2.7924   -2.0936    5.1479 C   0  0  2  0  0  0  0  0  0  0  0  0
    2.6844   -3.1444    4.0488 C   0  0  2  0  0  0  0  0  0  0  0  0
    1.2732   -2.9145    3.4666 C   0  0  0  0  0  0  0  0  0  0  0  0
    3.5235   -4.0608    1.7125 C   0  0  1  0  0  0  0  0  0  0  0  0
    4.6888   -4.1519    0.6742 C   0  0  0  0  0  0  0  0  0  0  0  0
    4.4615   -3.4228   -0.6507 C   0  0  0  0  0  0  0  0  0  0  0  0
    4.9354   -3.9931   -1.8533 C   0  0  0  0  0  0  0  0  0  0  0  0
    4.7120   -3.3625   -3.0971 C   0  0  0  0  0  0  0  0  0  0  0  0
    4.0284   -2.1355   -3.1386 C   0  0  0  0  0  0  0  0  0  0  0  0
    3.7996   -1.5053   -4.3253 O   0  0  0  0  0  0  0  0  0  0  0  0
    3.5502   -1.5642   -1.9455 C   0  0  0  0  0  0  0  0  0  0  0  0
    3.7689   -2.1974   -0.7148 C   0  0  0  0  0  0  0  0  0  0  0  0
    4.4358   -6.9424    5.1393 H   0  0  0  0  0  0  0  0  0  0  0  0
    4.6380   -7.5949    3.5208 H   0  0  0  0  0  0  0  0  0  0  0  0
    4.0099   -8.6074    4.7905 H   0  0  0  0  0  0  0  0  0  0  0  0
    2.1119   -6.7621    6.1507 H   0  0  0  0  0  0  0  0  0  0  0  0
    0.7000   -6.7504    5.1370 H   0  0  0  0  0  0  0  0  0  0  0  0
    2.2007   -9.2132    6.0856 H   0  0  0  0  0  0  0  0  0  0  0  0
    0.6062   -8.7079    6.5693 H   0  0  0  0  0  0  0  0  0  0  0  0
    0.5990  -10.5747    4.8777 H   0  0  0  0  0  0  0  0  0  0  0  0
   -1.2189   -9.7185    4.5380 H   0  0  0  0  0  0  0  0  0  0  0  0
    2.5553   -9.9920    3.5587 H   0  0  0  0  0  0  0  0  0  0  0  0
    1.1689  -10.0097    2.4988 H   0  0  0  0  0  0  0  0  0  0  0  0
    1.3032   -8.2766    0.9368 H   0  0  0  0  0  0  0  0  0  0  0  0
    2.5913   -6.3082    0.1559 H   0  0  0  0  0  0  0  0  0  0  0  0
    1.1986   -5.6634    0.9996 H   0  0  0  0  0  0  0  0  0  0  0  0
    3.9721   -6.1179    2.1098 H   0  0  0  0  0  0  0  0  0  0  0  0
    1.4242   -5.4687    3.4666 H   0  0  0  0  0  0  0  0  0  0  0  0
    2.9845   -4.7670    5.5010 H   0  0  0  0  0  0  0  0  0  0  0  0
    5.0535   -3.6188    4.8715 H   0  0  0  0  0  0  0  0  0  0  0  0
    5.1559   -4.9077    3.6494 H   0  0  0  0  0  0  0  0  0  0  0  0
    5.5866   -1.9311    3.1911 H   0  0  0  0  0  0  0  0  0  0  0  0
    4.7939   -1.6862    1.7074 H   0  0  0  0  0  0  0  0  0  0  0  0
    4.6145    0.2344    3.3711 H   0  0  0  0  0  0  0  0  0  0  0  0
    3.0784   -0.2940    2.7311 H   0  0  0  0  0  0  0  0  0  0  0  0
    3.0029    0.1051    5.2633 H   0  0  0  0  0  0  0  0  0  0  0  0
    2.0096   -2.1090    5.9031 H   0  0  0  0  0  0  0  0  0  0  0  0
    1.1584   -1.8876    3.1161 H   0  0  0  0  0  0  0  0  0  0  0  0
    0.4818   -3.1127    4.1963 H   0  0  0  0  0  0  0  0  0  0  0  0
    1.0580   -3.5425    2.6060 H   0  0  0  0  0  0  0  0  0  0  0  0
    2.6678   -3.6054    1.2192 H   0  0  0  0  0  0  0  0  0  0  0  0
    5.6363   -3.8330    1.1041 H   0  0  0  0  0  0  0  0  0  0  0  0
    4.8582   -5.1953    0.4102 H   0  0  0  0  0  0  0  0  0  0  0  0
    5.4142   -4.9551   -1.8374 H   0  0  0  0  0  0  0  0  0  0  0  0
    5.0398   -3.8360   -4.0131 H   0  0  0  0  0  0  0  0  0  0  0  0
    3.2003   -0.7791   -4.2269 H   0  0  0  0  0  0  0  0  0  0  0  0
    2.9795   -0.6549   -1.9544 H   0  0  0  0  0  0  0  0  0  0  0  0
    3.3461   -1.7301    0.1573 H   0  0  0  0  0  0  0  0  0  0  0  0
  2  1  1  1
  1 32  1  0
  1 33  1  0
  1 34  1  0
  2  8  1  0
  2 12  1  0
  2  3  1  0
  3  4  1  0
  3 35  1  0
  3 36  1  0
  4  5  1  0
  4 37  1  0
  4 38  1  0
  5  6  1  0
  5  7  1  0
  5 39  1  1
  6 40  1  0
  7  8  1  0
  7 41  1  0
  7 42  1  0
  8  9  2  0
  9 10  1  0
  9 43  1  0
 10 11  1  0
 10 44  1  0
 10 45  1  0
 11 23  1  0
 11 12  1  0
 11 46  1  1
 12 13  1  0
 12 47  1  6
 13 21  1  0
 13 14  1  0
 13 48  1  1
 15 14  1  1
 14 49  1  0
 14 50  1  0
 15 21  1  0
 15 16  1  0
 15 23  1  0
 16 17  1  0
 16 51  1  0
 16 52  1  0
 17 18  1  0
 17 53  1  0
 17 54  1  0
 18 20  1  0
 18 19  1  0
 18 55  1  1
 19 20  1  0
 20 21  1  0
 20 56  1  1
 21 22  1  6
 22 57  1  0
 22 58  1  0
 22 59  1  0
 23 24  1  0
 23 60  1  6
 24 25  1  0
 24 61  1  0
 24 62  1  0
 25 31  1  0
 25 26  2  0
 26 27  1  0
 26 63  1  0
 27 28  2  0
 27 64  1  0
 28 29  1  0
 28 30  1  0
 29 65  1  0
 30 31  2  0
 30 66  1  0
 31 67  1  0
M  END
>  <i_m_ct_stereo_status>  (378) 
1

>  <s_m_source_file>  (378) 
/var/tmp/pbs.5076255.sched01/tmpb6g28bo8/1236hu3uqnd.sdf

>  <i_m_source_file_index>  (378) 
38

>  <i_lp_mmshare_version>  (378) 
48012

>  <i_f3d_flags>  (378) 
0

>  <s_epik_input>  (378) 
W0NIMl0xW0NIMl1bQ0BIXShPMilbQ0BIXTJbQ0BdKFtDQEBdMTM0KShbQ0gzXSlbQ0BIXShbQ0gyXTMpW0NAQEhdNVtDQF02KFtDSDNdKUMoW0NIMl1bQ0BIXShbT0hdKVtDSDJdW0NIMl02KT1bQ0hdW0NIMl1bQ0BIXTVbQ0BASF00W0NIMl1jN1tjSF1bY0hdYyhbT0hdKVtjSF1bY0hdNw==

>  <s_epik_cmdline>  (378) 
J2VwaWtfcHl0aG9uJywgJy1waHQnLCAnMi4wJywgJy1waCcsICc3LjAnLCAnLXRuJywgJzgnLCAnLW1hJywgJzIwMCcsICctaW1hZScsICc8aW5maWxlLm1hZT4nLCAnLW9tYWUnLCAnPG91dGZpbGUubWFlPic=

>  <r_lp_tautomer_probability>  (378) 
1

>  <r_epik_Ionization_Penalty>  (378) 
0.000303828

>  <r_epik_Ionization_Penalty_Charging>  (378) 
0

>  <r_epik_Ionization_Penalty_Neutral>  (378) 
0.000303828

>  <r_epik_State_Penalty>  (378) 
0.000182071

>  <r_epik_Charging_Adjusted_Penalty>  (378) 
0.000182071

>  <i_epik_Tot_Q>  (378) 
0

>  <i_epik_Tot_abs_Q>  (378) 
0

>  <s_lp_Force_Field>  (378) 
OPLS3e

>  <r_lp_Energy>  (378) 
75.6307

>  <b_lp_Chiralities_Consistent>  (378) 
1

>  <s_lp_Variant>  (378) 
113:0-1

>  <s_i_glide_gridfile>  (378) 
pfpi4k_grid

>  <i_i_glide_lignum>  (378) 
38

>  <i_i_glide_rotatable_bonds>  (378) 
4

>  <r_i_docking_score>  (378) 
-3.55583

>  <r_i_glide_ligand_efficiency>  (378) 
-0.114704

>  <r_i_glide_ligand_efficiency_sa>  (378) 
-0.36033

>  <r_i_glide_ligand_efficiency_ln>  (378) 
-0.801949

>  <r_i_glide_gscore>  (378) 
-3.55583

>  <r_i_glide_lipo>  (378) 
-0.496196

>  <r_i_glide_hbond>  (378) 
-0.430038

>  <r_i_glide_metal>  (378) 
-0

>  <r_i_glide_rewards>  (378) 
-0.541475

>  <r_i_glide_evdw>  (378) 
-24.529

>  <r_i_glide_ecoul>  (378) 
-7.23647

>  <r_i_glide_erotb>  (378) 
0.223796

>  <r_i_glide_esite>  (378) 
0

>  <r_i_glide_emodel>  (378) 
-37.3109

>  <r_i_glide_energy>  (378) 
-31.7655

>  <r_i_glide_einternal>  (378) 
3.00591

>  <r_i_glide_intrahb_reward>  (378) 
-0

>  <i_i_glide_confnum>  (378) 
3

>  <i_i_glide_posenum>  (378) 
11

>  <r_i_glide_eff_state_penalty>  (378) 
0

>  <ligand_id>  (378) 
113

>  <original_smiles>  (378) 
CC12CCC(O)CC1=CCC1C2C2CC3(CCC4OC4C23C)C1Cc1ccc(O)cc1

>  <smiles>  (378) 
[H]Oc1c([H])c([H])c(C([H])([H])C2([H])C3([H])C([H])([H])C([H])=C4C([H])([H])C([H])(O[H])C([H])([H])C([H])([H])C4(C([H])([H])[H])C3([H])C3([H])C([H])([H])C24C([H])([H])C([H])([H])C2([H])OC2([H])C34C([H])([H])[H])c([H])c1[H]

$$$$
113:0:2
     RDKit          3D

 67 73  0  0  1  0  0  0  0  0999 V2000
    4.7064   -1.8692    1.4145 C   0  0  0  0  0  0  0  0  0  0  0  0
    4.8346   -3.0757    0.4515 C   0  0  2  0  0  0  0  0  0  0  0  0
    6.1230   -2.9519   -0.4023 C   0  0  0  0  0  0  0  0  0  0  0  0
    6.0607   -1.8623   -1.4839 C   0  0  0  0  0  0  0  0  0  0  0  0
    4.8381   -1.9945   -2.4015 C   0  0  1  0  0  0  0  0  0  0  0  0
    4.9365   -3.1498   -3.2110 O   0  0  0  0  0  0  0  0  0  0  0  0
    3.5530   -2.0315   -1.5709 C   0  0  0  0  0  0  0  0  0  0  0  0
    3.6296   -3.1030   -0.5085 C   0  0  0  0  0  0  0  0  0  0  0  0
    2.6876   -4.0574   -0.4533 C   0  0  0  0  0  0  0  0  0  0  0  0
    2.5861   -5.1080    0.6171 C   0  0  0  0  0  0  0  0  0  0  0  0
    3.5074   -4.8257    1.8087 C   0  0  2  0  0  0  0  0  0  0  0  0
    4.8797   -4.4340    1.2327 C   0  0  2  0  0  0  0  0  0  0  0  0
    5.9512   -4.6159    2.3087 C   0  0  1  0  0  0  0  0  0  0  0  0
    5.4695   -4.3755    3.7592 C   0  0  0  0  0  0  0  0  0  0  0  0
    4.9580   -5.8278    3.7103 C   0  0  2  0  0  0  0  0  0  0  0  0
    5.0498   -6.6110    5.0650 C   0  0  0  0  0  0  0  0  0  0  0  0
    6.1769   -7.6724    5.1851 C   0  0  0  0  0  0  0  0  0  0  0  0
    7.5173   -7.2614    4.5917 C   0  0  2  0  0  0  0  0  0  0  0  0
    7.8579   -5.8745    4.6642 O   0  0  0  0  0  0  0  0  0  0  0  0
    7.5225   -6.4036    3.3771 C   0  0  2  0  0  0  0  0  0  0  0  0
    6.1593   -6.0900    2.7433 C   0  0  2  0  0  0  0  0  0  0  0  0
    5.9640   -7.2130    1.7023 C   0  0  0  0  0  0  0  0  0  0  0  0
    3.5295   -5.8710    3.0117 C   0  0  1  0  0  0  0  0  0  0  0  0
    2.3049   -5.6089    3.9662 C   0  0  0  0  0  0  0  0  0  0  0  0
    1.1170   -6.5693    3.8027 C   0  0  0  0  0  0  0  0  0  0  0  0
    0.5736   -7.2339    4.9326 C   0  0  0  0  0  0  0  0  0  0  0  0
   -0.5387   -8.0875    4.7631 C   0  0  0  0  0  0  0  0  0  0  0  0
   -1.1302   -8.2438    3.4938 C   0  0  0  0  0  0  0  0  0  0  0  0
   -2.1703   -9.0498    3.3172 O   0  0  0  0  0  0  0  0  0  0  0  0
   -0.6048   -7.5881    2.3830 C   0  0  0  0  0  0  0  0  0  0  0  0
    0.5238   -6.7716    2.5105 C   0  0  0  0  0  0  0  0  0  0  0  0
    5.5285   -1.8431    2.1320 H   0  0  0  0  0  0  0  0  0  0  0  0
    3.7783   -1.8847    1.9797 H   0  0  0  0  0  0  0  0  0  0  0  0
    4.7163   -0.9274    0.8738 H   0  0  0  0  0  0  0  0  0  0  0  0
    6.9816   -2.7768    0.2426 H   0  0  0  0  0  0  0  0  0  0  0  0
    6.3162   -3.9004   -0.9032 H   0  0  0  0  0  0  0  0  0  0  0  0
    6.0389   -0.8875   -1.0071 H   0  0  0  0  0  0  0  0  0  0  0  0
    6.9682   -1.9068   -2.0827 H   0  0  0  0  0  0  0  0  0  0  0  0
    4.7887   -1.1380   -3.0677 H   0  0  0  0  0  0  0  0  0  0  0  0
    4.7416   -3.9179   -2.6805 H   0  0  0  0  0  0  0  0  0  0  0  0
    3.3904   -1.0784   -1.0662 H   0  0  0  0  0  0  0  0  0  0  0  0
    2.6787   -2.1879   -2.2044 H   0  0  0  0  0  0  0  0  0  0  0  0
    1.8576   -4.0614   -1.1359 H   0  0  0  0  0  0  0  0  0  0  0  0
    1.5842   -4.8987    0.8954 H   0  0  0  0  0  0  0  0  0  0  0  0
    2.7372   -6.1160    0.2143 H   0  0  0  0  0  0  0  0  0  0  0  0
    3.1145   -3.9104    2.2419 H   0  0  0  0  0  0  0  0  0  0  0  0
    5.1031   -5.1731    0.4626 H   0  0  0  0  0  0  0  0  0  0  0  0
    6.8862   -4.1312    2.0730 H   0  0  0  0  0  0  0  0  0  0  0  0
    6.2345   -4.1831    4.5073 H   0  0  0  0  0  0  0  0  0  0  0  0
    4.6919   -3.6292    3.8628 H   0  0  0  0  0  0  0  0  0  0  0  0
    5.2175   -5.8934    5.8704 H   0  0  0  0  0  0  0  0  0  0  0  0
    4.1181   -7.1172    5.3140 H   0  0  0  0  0  0  0  0  0  0  0  0
    6.3316   -7.9552    6.2288 H   0  0  0  0  0  0  0  0  0  0  0  0
    5.8757   -8.5795    4.6619 H   0  0  0  0  0  0  0  0  0  0  0  0
    8.3580   -7.9299    4.7642 H   0  0  0  0  0  0  0  0  0  0  0  0
    8.3652   -6.4874    2.6979 H   0  0  0  0  0  0  0  0  0  0  0  0
    6.0168   -8.2045    2.1504 H   0  0  0  0  0  0  0  0  0  0  0  0
    6.7119   -7.1863    0.9110 H   0  0  0  0  0  0  0  0  0  0  0  0
    5.0047   -7.1955    1.2007 H   0  0  0  0  0  0  0  0  0  0  0  0
    3.4026   -6.8838    2.6266 H   0  0  0  0  0  0  0  0  0  0  0  0
    2.6173   -5.5947    5.0155 H   0  0  0  0  0  0  0  0  0  0  0  0
    1.9106   -4.6000    3.8309 H   0  0  0  0  0  0  0  0  0  0  0  0
    1.0133   -7.0944    5.9213 H   0  0  0  0  0  0  0  0  0  0  0  0
   -0.9548   -8.6276    5.6156 H   0  0  0  0  0  0  0  0  0  0  0  0
   -2.2181   -9.7534    3.9850 H   0  0  0  0  0  0  0  0  0  0  0  0
   -1.0110   -7.7223    1.3879 H   0  0  0  0  0  0  0  0  0  0  0  0
    0.8743   -6.4045    1.6092 H   0  0  0  0  0  0  0  0  0  0  0  0
  2  1  1  1
  1 32  1  0
  1 33  1  0
  1 34  1  0
  2  8  1  0
  2 12  1  0
  2  3  1  0
  3  4  1  0
  3 35  1  0
  3 36  1  0
  4  5  1  0
  4 37  1  0
  4 38  1  0
  5  6  1  0
  5  7  1  0
  5 39  1  6
  6 40  1  0
  7  8  1  0
  7 41  1  0
  7 42  1  0
  8  9  2  0
  9 10  1  0
  9 43  1  0
 10 11  1  0
 10 44  1  0
 10 45  1  0
 11 23  1  0
 11 12  1  0
 11 46  1  1
 12 13  1  0
 12 47  1  6
 13 21  1  0
 13 14  1  0
 13 48  1  6
 15 14  1  1
 14 49  1  0
 14 50  1  0
 15 21  1  0
 15 16  1  0
 15 23  1  0
 16 17  1  0
 16 51  1  0
 16 52  1  0
 17 18  1  0
 17 53  1  0
 17 54  1  0
 18 20  1  0
 18 19  1  0
 18 55  1  6
 19 20  1  0
 20 21  1  0
 20 56  1  6
 21 22  1  6
 22 57  1  0
 22 58  1  0
 22 59  1  0
 23 24  1  0
 23 60  1  6
 24 25  1  0
 24 61  1  0
 24 62  1  0
 25 31  1  0
 25 26  2  0
 26 27  1  0
 26 63  1  0
 27 28  2  0
 27 64  1  0
 28 29  1  0
 28 30  1  0
 29 65  1  0
 30 31  2  0
 30 66  1  0
 31 67  1  0
M  END
>  <i_m_ct_stereo_status>  (379) 
1

>  <s_m_source_file>  (379) 
/var/tmp/pbs.5076255.sched01/tmpb6g28bo8/1236hu3uqnd.sdf

>  <i_m_source_file_index>  (379) 
38

>  <i_lp_mmshare_version>  (379) 
48012

>  <i_f3d_flags>  (379) 
0

>  <s_epik_input>  (379) 
W0NIMl0xW0NIMl1bQ0BIXShPMilbQ0BIXTJbQ0BdKFtDQEBdMTM0KShbQ0gzXSlbQ0BIXShbQ0gyXTMpW0NAQEhdNVtDQF02KFtDSDNdKUMoW0NIMl1bQ0BIXShbT0hdKVtDSDJdW0NIMl02KT1bQ0hdW0NIMl1bQ0BIXTVbQ0BASF00W0NIMl1jN1tjSF1bY0hdYyhbT0hdKVtjSF1bY0hdNw==

>  <s_epik_cmdline>  (379) 
J2VwaWtfcHl0aG9uJywgJy1waHQnLCAnMi4wJywgJy1waCcsICc3LjAnLCAnLXRuJywgJzgnLCAnLW1hJywgJzIwMCcsICctaW1hZScsICc8aW5maWxlLm1hZT4nLCAnLW9tYWUnLCAnPG91dGZpbGUubWFlPic=

>  <r_lp_tautomer_probability>  (379) 
1

>  <r_epik_Ionization_Penalty>  (379) 
0.000303828

>  <r_epik_Ionization_Penalty_Charging>  (379) 
0

>  <r_epik_Ionization_Penalty_Neutral>  (379) 
0.000303828

>  <r_epik_State_Penalty>  (379) 
0.000182071

>  <r_epik_Charging_Adjusted_Penalty>  (379) 
0.000182071

>  <i_epik_Tot_Q>  (379) 
0

>  <i_epik_Tot_abs_Q>  (379) 
0

>  <s_lp_Force_Field>  (379) 
OPLS3e

>  <r_lp_Energy>  (379) 
75.6307

>  <b_lp_Chiralities_Consistent>  (379) 
1

>  <s_lp_Variant>  (379) 
113:0-1

>  <s_i_glide_gridfile>  (379) 
pfpi4k_grid

>  <i_i_glide_lignum>  (379) 
38

>  <i_i_glide_rotatable_bonds>  (379) 
4

>  <r_i_docking_score>  (379) 
-2.85669

>  <r_i_glide_ligand_efficiency>  (379) 
-0.0921514

>  <r_i_glide_ligand_efficiency_sa>  (379) 
-0.289482

>  <r_i_glide_ligand_efficiency_ln>  (379) 
-0.644272

>  <r_i_glide_gscore>  (379) 
-2.85669

>  <r_i_glide_lipo>  (379) 
-0.287884

>  <r_i_glide_hbond>  (379) 
-0.16

>  <r_i_glide_metal>  (379) 
-0

>  <r_i_glide_rewards>  (379) 
-0.541475

>  <r_i_glide_evdw>  (379) 
-25.3562

>  <r_i_glide_ecoul>  (379) 
-5.48881

>  <r_i_glide_erotb>  (379) 
0.223796

>  <r_i_glide_esite>  (379) 
0

>  <r_i_glide_emodel>  (379) 
-32.1761

>  <r_i_glide_energy>  (379) 
-30.845

>  <r_i_glide_einternal>  (379) 
2.64289

>  <r_i_glide_intrahb_reward>  (379) 
-0

>  <i_i_glide_confnum>  (379) 
4

>  <i_i_glide_posenum>  (379) 
12

>  <r_i_glide_eff_state_penalty>  (379) 
0

>  <ligand_id>  (379) 
113

>  <original_smiles>  (379) 
CC12CCC(O)CC1=CCC1C2C2CC3(CCC4OC4C23C)C1Cc1ccc(O)cc1

>  <smiles>  (379) 
[H]Oc1c([H])c([H])c(C([H])([H])C2([H])C3([H])C([H])([H])C([H])=C4C([H])([H])C([H])(O[H])C([H])([H])C([H])([H])C4(C([H])([H])[H])C3([H])C3([H])C([H])([H])C24C([H])([H])C([H])([H])C2([H])OC2([H])C34C([H])([H])[H])c([H])c1[H]

$$$$
