1:0:0
     RDKit          3D

 75 78  0  0  1  0  0  0  0  0999 V2000
    3.6464  -12.2703    4.8957 C   0  0  0  0  0  0  0  0  0  0  0  0
    2.7932  -11.0233    4.5852 C   0  0  0  0  0  0  0  0  0  0  0  0
    1.7577  -11.4606    3.5245 C   0  0  0  0  0  0  0  0  0  0  0  0
    3.6156   -9.7310    4.1772 C   0  0  2  0  0  0  0  0  0  0  0  0
    5.1246   -9.7941    4.5612 C   0  0  0  0  0  0  0  0  0  0  0  0
    5.9650   -8.7928    3.7658 C   0  0  0  0  0  0  0  0  0  0  0  0
    5.4069   -7.3702    3.8532 C   0  0  1  0  0  0  0  0  0  0  0  0
    6.2744   -6.4128    3.0141 C   0  0  0  0  0  0  0  0  0  0  0  0
    3.9003   -7.3640    3.4581 C   0  0  2  0  0  0  0  0  0  0  0  0
    3.5023   -6.0012    3.4067 O   0  0  0  0  0  0  0  0  0  0  0  0
    2.6789   -5.5335    2.3812 C   0  0  1  0  0  0  0  0  0  0  0  0
    3.3127   -5.5251    1.1431 O   0  0  0  0  0  0  0  0  0  0  0  0
    2.7502   -4.6451    0.1778 C   0  0  0  0  0  0  0  0  0  0  0  0
    3.7522   -3.5782   -0.2696 C   0  0  0  0  0  0  0  0  0  0  0  0
    3.6163   -3.2396   -1.7636 C   0  0  0  0  0  0  0  0  0  0  0  0
    2.2157   -3.0336   -2.1823 N   0  0  0  0  0  0  0  0  0  0  0  0
    1.2860   -6.2433    2.3232 C   0  0  1  0  0  0  0  0  0  0  0  0
    1.1332   -7.2265    1.1315 C   0  0  0  0  0  0  0  0  0  0  0  0
    0.8728   -6.8471    3.6878 C   0  0  2  0  0  0  0  0  0  0  0  0
    0.6573   -5.8237    4.8244 C   0  0  0  0  0  0  0  0  0  0  0  0
    1.8607   -5.2961    5.6350 C   0  0  0  0  0  0  0  0  0  0  0  0
    2.9816   -6.2173    6.2218 C   0  0  1  0  0  0  0  0  0  0  0  0
    3.2107   -5.8760    7.7071 C   0  0  0  0  0  0  0  0  0  0  0  0
    3.0659   -7.7629    5.9359 C   0  0  1  0  0  0  0  0  0  0  0  0
    2.1395   -8.5936    6.8496 C   0  0  0  0  0  0  0  0  0  0  0  0
    0.7176   -8.7148    6.3007 C   0  0  0  0  0  0  0  0  0  0  0  0
    0.6760   -8.9645    4.9001 O   0  0  0  0  0  0  0  0  0  0  0  0
    1.5273   -8.2140    4.0234 C   0  0  2  0  0  0  0  0  0  0  0  0
    3.0216   -8.2552    4.4339 C   0  0  2  0  0  0  0  0  0  0  0  0
    4.1728  -12.6347    4.0136 H   0  0  0  0  0  0  0  0  0  0  0  0
    3.0130  -13.0804    5.2478 H   0  0  0  0  0  0  0  0  0  0  0  0
    4.3756  -12.1041    5.6859 H   0  0  0  0  0  0  0  0  0  0  0  0
    2.2256  -10.8556    5.4880 H   0  0  0  0  0  0  0  0  0  0  0  0
    2.2394  -11.7295    2.5865 H   0  0  0  0  0  0  0  0  0  0  0  0
    0.9818  -10.7342    3.3050 H   0  0  0  0  0  0  0  0  0  0  0  0
    1.2307  -12.3471    3.8699 H   0  0  0  0  0  0  0  0  0  0  0  0
    3.6433   -9.8458    3.0912 H   0  0  0  0  0  0  0  0  0  0  0  0
    5.2749   -9.6547    5.6301 H   0  0  0  0  0  0  0  0  0  0  0  0
    5.5622  -10.7611    4.3244 H   0  0  0  0  0  0  0  0  0  0  0  0
    6.9936   -8.8142    4.1299 H   0  0  0  0  0  0  0  0  0  0  0  0
    6.0027   -9.1028    2.7192 H   0  0  0  0  0  0  0  0  0  0  0  0
    5.5152   -7.0384    4.8844 H   0  0  0  0  0  0  0  0  0  0  0  0
    6.1711   -6.6052    1.9472 H   0  0  0  0  0  0  0  0  0  0  0  0
    7.3287   -6.5271    3.2736 H   0  0  0  0  0  0  0  0  0  0  0  0
    6.0120   -5.3717    3.2012 H   0  0  0  0  0  0  0  0  0  0  0  0
    3.8384   -7.7526    2.4430 H   0  0  0  0  0  0  0  0  0  0  0  0
    2.5426   -4.4922    2.6701 H   0  0  0  0  0  0  0  0  0  0  0  0
    2.4640   -5.2607   -0.6733 H   0  0  0  0  0  0  0  0  0  0  0  0
    1.8341   -4.1622    0.5246 H   0  0  0  0  0  0  0  0  0  0  0  0
    3.6245   -2.6878    0.3446 H   0  0  0  0  0  0  0  0  0  0  0  0
    4.7650   -3.9345   -0.1028 H   0  0  0  0  0  0  0  0  0  0  0  0
    4.2019   -2.3441   -1.9907 H   0  0  0  0  0  0  0  0  0  0  0  0
    4.0373   -4.0527   -2.3645 H   0  0  0  0  0  0  0  0  0  0  0  0
    2.1683   -2.7927   -3.1618 H   0  0  0  0  0  0  0  0  0  0  0  0
    1.7791   -2.2788   -1.6450 H   0  0  0  0  0  0  0  0  0  0  0  0
    0.5687   -5.4541    2.1141 H   0  0  0  0  0  0  0  0  0  0  0  0
    1.9247   -7.9777    1.0936 H   0  0  0  0  0  0  0  0  0  0  0  0
    1.1275   -6.7208    0.1695 H   0  0  0  0  0  0  0  0  0  0  0  0
    0.1838   -7.7712    1.1767 H   0  0  0  0  0  0  0  0  0  0  0  0
   -0.1579   -7.1498    3.4832 H   0  0  0  0  0  0  0  0  0  0  0  0
    0.1846   -4.9444    4.3817 H   0  0  0  0  0  0  0  0  0  0  0  0
   -0.1175   -6.1649    5.4998 H   0  0  0  0  0  0  0  0  0  0  0  0
    2.3524   -4.5354    5.0290 H   0  0  0  0  0  0  0  0  0  0  0  0
    1.4354   -4.7082    6.4502 H   0  0  0  0  0  0  0  0  0  0  0  0
    3.8925   -5.8231    5.7755 H   0  0  0  0  0  0  0  0  0  0  0  0
    2.3232   -6.0685    8.3101 H   0  0  0  0  0  0  0  0  0  0  0  0
    3.4548   -4.8200    7.8269 H   0  0  0  0  0  0  0  0  0  0  0  0
    4.0378   -6.4507    8.1249 H   0  0  0  0  0  0  0  0  0  0  0  0
    4.0594   -8.0061    6.3087 H   0  0  0  0  0  0  0  0  0  0  0  0
    2.5812   -9.5721    7.0119 H   0  0  0  0  0  0  0  0  0  0  0  0
    2.0869   -8.1964    7.8571 H   0  0  0  0  0  0  0  0  0  0  0  0
    0.2070   -9.5435    6.7888 H   0  0  0  0  0  0  0  0  0  0  0  0
    0.1400   -7.8450    6.5919 H   0  0  0  0  0  0  0  0  0  0  0  0
    1.4902   -8.7721    3.0986 H   0  0  0  0  0  0  0  0  0  0  0  0
    1.6870   -3.8869   -2.0464 H   0  0  0  0  0  0  0  0  0  0  0  0
  1  2  1  0
  1 30  1  0
  1 31  1  0
  1 32  1  0
  2  3  1  0
  2  4  1  0
  2 33  1  0
  3 34  1  0
  3 35  1  0
  3 36  1  0
 29  4  1  1
  4  5  1  0
  4 37  1  6
  5  6  1  0
  5 38  1  0
  5 39  1  0
  6  7  1  0
  6 40  1  0
  6 41  1  0
  7  8  1  0
  7  9  1  0
  7 42  1  1
  8 43  1  0
  8 44  1  0
  8 45  1  0
  9 29  1  0
  9 10  1  0
  9 46  1  6
 10 11  1  0
 11 12  1  0
 11 17  1  0
 11 47  1  1
 12 13  1  0
 13 14  1  0
 13 48  1  0
 13 49  1  0
 14 15  1  0
 14 50  1  0
 14 51  1  0
 15 16  1  0
 15 52  1  0
 15 53  1  0
 16 54  1  0
 16 55  1  0
 16 75  1  0
 17 18  1  0
 17 19  1  0
 17 56  1  6
 18 57  1  0
 18 58  1  0
 18 59  1  0
 19 28  1  0
 19 20  1  0
 19 60  1  6
 20 21  1  0
 20 61  1  0
 20 62  1  0
 21 22  1  0
 21 63  1  0
 21 64  1  0
 22 23  1  0
 22 24  1  0
 22 65  1  6
 23 66  1  0
 23 67  1  0
 23 68  1  0
 24 29  1  0
 24 25  1  0
 24 69  1  1
 25 26  1  0
 25 70  1  0
 25 71  1  0
 26 27  1  0
 26 72  1  0
 26 73  1  0
 27 28  1  0
 28 29  1  0
 28 74  1  6
M  CHG  1  16   1
M  END
>  <i_m_ct_stereo_status>  (1) 
1

>  <s_m_source_file>  (1) 
/var/tmp/pbs.5076255.sched01/tmp3z6s85wa/08w76y650.sdf

>  <i_m_source_file_index>  (1) 
2

>  <i_lp_mmshare_version>  (1) 
48012

>  <i_f3d_flags>  (1) 
0

>  <s_epik_input>  (1) 
W0NIM11bQ0hdKFtDSDNdKVtDQEBIXTFbQ0gyXVtDSDJdW0NAQEhdKFtDSDNdKVtDQEBIXShbQ0BAXTEyMylPW0NAQEhdKE9bQ0gyXVtDSDJdW0NIMl1bTkgyXSlbQ0BASF0oW0NIM10pW0NASF00W0NAQEhdM09bQ0gyXVtDSDJdW0NAQEhdMltDQEhdKFtDSDNdKVtDSDJdW0NIMl00

>  <s_epik_cmdline>  (1) 
J2VwaWtfcHl0aG9uJywgJy1waHQnLCAnMi4wJywgJy1waCcsICc3LjAnLCAnLXRuJywgJzgnLCAnLW1hJywgJzIwMCcsICctaW1hZScsICc8aW5maWxlLm1hZT4nLCAnLW9tYWUnLCAnPG91dGZpbGUubWFlPic=

>  <r_epik_Ionization_Penalty>  (1) 
0.000692322

>  <r_epik_Ionization_Penalty_Charging>  (1) 
0.000692322

>  <r_epik_Ionization_Penalty_Neutral>  (1) 
5.26326e-11

>  <r_epik_State_Penalty>  (1) 
0.000440264

>  <r_epik_Charging_Adjusted_Penalty>  (1) 
0.00113259

>  <i_epik_Tot_Q>  (1) 
1

>  <i_epik_Tot_abs_Q>  (1) 
1

>  <s_epik_Chemistry_Notes>  (1) 
This compound contains an acetal/aminal-like group ( X-CH(R)-Y where X, Y are N, S, or O) that may be acid/base labile, releasing an aldehyde.

>  <s_lp_Force_Field>  (1) 
OPLS3e

>  <r_lp_Energy>  (1) 
84.5633

>  <b_lp_Chiralities_Consistent>  (1) 
1

>  <s_lp_Variant>  (1) 
1:0-1

>  <s_i_glide_gridfile>  (1) 
pfpi4k_grid

>  <i_i_glide_lignum>  (1) 
2

>  <i_i_glide_rotatable_bonds>  (1) 
5

>  <r_i_docking_score>  (1) 
-2.39626

>  <r_i_glide_ligand_efficiency>  (1) 
-0.0826295

>  <r_i_glide_ligand_efficiency_sa>  (1) 
-0.253864

>  <r_i_glide_ligand_efficiency_ln>  (1) 
-0.548682

>  <r_i_glide_gscore>  (1) 
-2.39626

>  <r_i_glide_lipo>  (1) 
-0.132606

>  <r_i_glide_hbond>  (1) 
-0.2

>  <r_i_glide_metal>  (1) 
-0

>  <r_i_glide_rewards>  (1) 
-0.622925

>  <r_i_glide_evdw>  (1) 
-16.8336

>  <r_i_glide_ecoul>  (1) 
-6.30667

>  <r_i_glide_erotb>  (1) 
0.353623

>  <r_i_glide_esite>  (1) 
-0.00666799

>  <r_i_glide_emodel>  (1) 
-20.0526

>  <r_i_glide_energy>  (1) 
-23.1403

>  <r_i_glide_einternal>  (1) 
13.0954

>  <r_i_glide_intrahb_reward>  (1) 
-0

>  <i_i_glide_confnum>  (1) 
1

>  <i_i_glide_posenum>  (1) 
31

>  <r_i_glide_eff_state_penalty>  (1) 
0

>  <ligand_id>  (1) 
1

>  <original_smiles>  (1) 
CC(C)C1CCC(C)C2OC(OCCCN)C(C)C3CCC(C)C4CCOC3C142

>  <smiles>  (1) 
[H]C([H])([H])C1([H])C([H])([H])C([H])([H])C([H])(C([H])(C([H])([H])[H])C([H])([H])[H])C23C1([H])OC([H])(OC([H])([H])C([H])([H])C([H])([H])[N+]([H])([H])[H])C([H])(C([H])([H])[H])C1([H])C([H])([H])C([H])([H])C([H])(C([H])([H])[H])C2([H])C([H])([H])C([H])([H])OC13[H]

$$$$
2:0:0
     RDKit          3D

 39 42  0  0  1  0  0  0  0  0999 V2000
    3.2595   -3.0571    0.0737 C   0  0  0  0  0  0  0  0  0  0  0  0
    4.7177   -2.9678   -0.2448 C   0  0  0  0  0  0  0  0  0  0  0  0
    5.7964   -3.7765   -0.0069 C   0  0  0  0  0  0  0  0  0  0  0  0
    6.9151   -3.0813   -0.5235 C   0  0  0  0  0  0  0  0  0  0  0  0
    6.5874   -1.9200   -1.0599 N   0  0  0  0  0  0  0  0  0  0  0  0
    5.2417   -1.8556   -0.8898 N   0  0  0  0  0  0  0  0  0  0  0  0
    4.5433   -0.6605   -1.3357 C   0  0  0  0  0  0  0  0  0  0  0  0
    8.3275   -3.5971   -0.4400 C   0  0  0  0  0  0  0  0  0  0  0  0
    8.4888   -4.5256    0.7901 C   0  0  0  0  0  0  0  0  0  0  0  0
    7.3094   -5.4835    1.0042 C   0  0  0  0  0  0  0  0  0  0  0  0
    7.4674   -6.7729    1.5387 C   0  0  0  0  0  0  0  0  0  0  0  0
    6.3983   -7.5933    1.6829 N   0  0  0  0  0  0  0  0  0  0  0  0
    5.1977   -7.1108    1.3525 C   0  0  0  0  0  0  0  0  0  0  0  0
    4.1143   -7.9316    1.5818 N   0  0  0  0  0  0  0  0  0  0  0  0
    2.7208   -7.6029    1.6635 C   0  0  0  0  0  0  0  0  0  0  0  0
    2.0370   -6.4931    1.0701 C   0  0  0  0  0  0  0  0  0  0  0  0
    0.7583   -6.4323    1.3825 N   0  0  0  0  0  0  0  0  0  0  0  0
    0.5473   -7.5415    2.1122 N   0  0  0  0  0  0  0  0  0  0  0  0
   -0.8017   -7.7872    2.5477 C   0  0  0  0  0  0  0  0  0  0  0  0
    1.7099   -8.2802    2.2843 C   0  0  0  0  0  0  0  0  0  0  0  0
    4.9485   -5.8964    0.8573 N   0  0  0  0  0  0  0  0  0  0  0  0
    6.0029   -5.0812    0.6593 C   0  0  0  0  0  0  0  0  0  0  0  0
    4.4114   -8.8486    1.8963 H   0  0  0  0  0  0  0  0  0  0  0  0
    3.1010   -3.8073    0.8399 H   0  0  0  0  0  0  0  0  0  0  0  0
    2.6883   -3.2936   -0.8285 H   0  0  0  0  0  0  0  0  0  0  0  0
    2.8839   -2.1093    0.4703 H   0  0  0  0  0  0  0  0  0  0  0  0
    3.5101   -0.9024   -1.5784 H   0  0  0  0  0  0  0  0  0  0  0  0
    5.0223   -0.2567   -2.2282 H   0  0  0  0  0  0  0  0  0  0  0  0
    4.5512    0.0882   -0.5400 H   0  0  0  0  0  0  0  0  0  0  0  0
    8.5433   -4.1691   -1.3417 H   0  0  0  0  0  0  0  0  0  0  0  0
    9.0413   -2.7710   -0.4242 H   0  0  0  0  0  0  0  0  0  0  0  0
    9.4153   -5.0999    0.7461 H   0  0  0  0  0  0  0  0  0  0  0  0
    8.5246   -3.9031    1.6828 H   0  0  0  0  0  0  0  0  0  0  0  0
    8.4502   -7.1569    1.8371 H   0  0  0  0  0  0  0  0  0  0  0  0
    2.4200   -5.7405    0.3900 H   0  0  0  0  0  0  0  0  0  0  0  0
   -0.8212   -8.6567    3.2004 H   0  0  0  0  0  0  0  0  0  0  0  0
   -1.4245   -7.9617    1.6679 H   0  0  0  0  0  0  0  0  0  0  0  0
   -1.1689   -6.9075    3.0817 H   0  0  0  0  0  0  0  0  0  0  0  0
    1.6961   -9.2215    2.8273 H   0  0  0  0  0  0  0  0  0  0  0  0
  1  2  1  0
  1 24  1  0
  1 25  1  0
  1 26  1  0
  2  6  1  0
  2  3  2  0
  3  4  1  0
  3 22  1  0
  4  5  2  0
  4  8  1  0
  5  6  1  0
  6  7  1  0
  7 27  1  0
  7 28  1  0
  7 29  1  0
  8  9  1  0
  8 30  1  0
  8 31  1  0
  9 32  1  0
  9 33  1  0
  9 10  1  0
 10 22  2  0
 10 11  1  0
 11 34  1  0
 11 12  2  0
 12 13  1  0
 13 14  1  0
 13 21  2  0
 14 15  1  0
 14 23  1  0
 15 20  2  0
 15 16  1  0
 16 17  2  0
 16 35  1  0
 17 18  1  0
 18 19  1  0
 18 20  1  0
 19 36  1  0
 19 37  1  0
 19 38  1  0
 20 39  1  0
 21 22  1  0
M  END
>  <i_m_ct_stereo_status>  (2) 
1

>  <s_m_source_file>  (2) 
/var/tmp/pbs.5076255.sched01/tmp3z6s85wa/08w76y650.sdf

>  <i_m_source_file_index>  (2) 
3

>  <i_lp_mmshare_version>  (2) 
48012

>  <i_f3d_flags>  (2) 
0

>  <s_epik_input>  (2) 
W0NIM11jMW4oW0NIM10pbmMoYzEyKVtDSDJdW0NIMl1jM2MybmMoXFtuSF1bY0hdMyk9Ti9jNFtjSF1ubihbQ0gzXSlbY0hdNA==

>  <s_epik_cmdline>  (2) 
J2VwaWtfcHl0aG9uJywgJy1waHQnLCAnMi4wJywgJy1waCcsICc3LjAnLCAnLXRuJywgJzgnLCAnLW1hJywgJzIwMCcsICctaW1hZScsICc8aW5maWxlLm1hZT4nLCAnLW9tYWUnLCAnPG91dGZpbGUubWFlPic=

>  <r_lp_tautomer_probability>  (2) 
1

>  <r_epik_Ionization_Penalty>  (2) 
0.000521695

>  <r_epik_Ionization_Penalty_Charging>  (2) 
0

>  <r_epik_Ionization_Penalty_Neutral>  (2) 
0.000521695

>  <r_epik_State_Penalty>  (2) 
-0

>  <r_epik_Charging_Adjusted_Penalty>  (2) 
0

>  <i_epik_Tot_Q>  (2) 
0

>  <i_epik_Tot_abs_Q>  (2) 
0

>  <s_lp_Force_Field>  (2) 
OPLS3e

>  <r_lp_Energy>  (2) 
18.2795

>  <b_lp_Chiralities_Consistent>  (2) 
1

>  <s_lp_Variant>  (2) 
2:0-1

>  <s_i_glide_gridfile>  (2) 
pfpi4k_grid

>  <i_i_glide_lignum>  (2) 
3

>  <i_i_glide_rotatable_bonds>  (2) 
2

>  <r_i_docking_score>  (2) 
-4.33989

>  <r_i_glide_ligand_efficiency>  (2) 
-0.197268

>  <r_i_glide_ligand_efficiency_sa>  (2) 
-0.552753

>  <r_i_glide_ligand_efficiency_ln>  (2) 
-1.06083

>  <r_i_glide_gscore>  (2) 
-4.33989

>  <r_i_glide_lipo>  (2) 
-0.489811

>  <r_i_glide_hbond>  (2) 
-0.30341

>  <r_i_glide_metal>  (2) 
-0

>  <r_i_glide_rewards>  (2) 
-1.52013

>  <r_i_glide_evdw>  (2) 
-27.3618

>  <r_i_glide_ecoul>  (2) 
-6.63267

>  <r_i_glide_erotb>  (2) 
0.419659

>  <r_i_glide_esite>  (2) 
-0.0832109

>  <r_i_glide_emodel>  (2) 
-42.7406

>  <r_i_glide_energy>  (2) 
-33.9945

>  <r_i_glide_einternal>  (2) 
1.41218

>  <r_i_glide_intrahb_reward>  (2) 
-0

>  <i_i_glide_confnum>  (2) 
5

>  <i_i_glide_posenum>  (2) 
39

>  <r_i_glide_eff_state_penalty>  (2) 
0

>  <ligand_id>  (2) 
2

>  <original_smiles>  (2) 
Cc1c2c(nn1C)CCc1c[nH]c(=Nc3cnn(C)c3)nc1-2

>  <smiles>  (2) 
[H]c1nn(C([H])([H])[H])c([H])c1N([H])c1nc([H])c2c(n1)-c1c(nn(C([H])([H])[H])c1C([H])([H])[H])C([H])([H])C2([H])[H]

$$$$
2:0:1
     RDKit          3D

 39 42  0  0  1  0  0  0  0  0999 V2000
    2.8477   -5.4725    0.0927 C   0  0  0  0  0  0  0  0  0  0  0  0
    2.3713   -5.0928    1.4570 C   0  0  0  0  0  0  0  0  0  0  0  0
    2.5264   -3.9659    2.2214 C   0  0  0  0  0  0  0  0  0  0  0  0
    1.8261   -4.2102    3.4196 C   0  0  0  0  0  0  0  0  0  0  0  0
    1.2467   -5.3984    3.4262 N   0  0  0  0  0  0  0  0  0  0  0  0
    1.5949   -5.9451    2.2343 N   0  0  0  0  0  0  0  0  0  0  0  0
    1.1443   -7.2961    1.9459 C   0  0  0  0  0  0  0  0  0  0  0  0
    1.7535   -3.2251    4.5523 C   0  0  0  0  0  0  0  0  0  0  0  0
    3.0181   -2.3303    4.5600 C   0  0  0  0  0  0  0  0  0  0  0  0
    3.4328   -1.8623    3.1652 C   0  0  0  0  0  0  0  0  0  0  0  0
    4.0456   -0.6201    2.9273 C   0  0  0  0  0  0  0  0  0  0  0  0
    4.4328   -0.2558    1.6855 N   0  0  0  0  0  0  0  0  0  0  0  0
    4.2065   -1.1190    0.7008 C   0  0  0  0  0  0  0  0  0  0  0  0
    4.6507   -0.7271   -0.5400 N   0  0  0  0  0  0  0  0  0  0  0  0
    4.5428   -1.4076   -1.7680 C   0  0  0  0  0  0  0  0  0  0  0  0
    4.0781   -0.9624   -3.0386 C   0  0  0  0  0  0  0  0  0  0  0  0
    4.1188   -1.9195   -3.9573 N   0  0  0  0  0  0  0  0  0  0  0  0
    4.5810   -2.9997   -3.2955 N   0  0  0  0  0  0  0  0  0  0  0  0
    4.7345   -4.2599   -3.9780 C   0  0  0  0  0  0  0  0  0  0  0  0
    4.8517   -2.7188   -1.9778 C   0  0  0  0  0  0  0  0  0  0  0  0
    3.6195   -2.3166    0.8081 N   0  0  0  0  0  0  0  0  0  0  0  0
    3.2268   -2.6880    2.0379 C   0  0  0  0  0  0  0  0  0  0  0  0
    4.9103    0.2514   -0.5625 H   0  0  0  0  0  0  0  0  0  0  0  0
    3.5793   -4.7646   -0.2848 H   0  0  0  0  0  0  0  0  0  0  0  0
    2.0098   -5.4936   -0.6034 H   0  0  0  0  0  0  0  0  0  0  0  0
    3.3173   -6.4558    0.1047 H   0  0  0  0  0  0  0  0  0  0  0  0
    1.0417   -7.4413    0.8715 H   0  0  0  0  0  0  0  0  0  0  0  0
    0.1762   -7.4782    2.4135 H   0  0  0  0  0  0  0  0  0  0  0  0
    1.8629   -8.0207    2.3339 H   0  0  0  0  0  0  0  0  0  0  0  0
    0.8834   -2.5871    4.4021 H   0  0  0  0  0  0  0  0  0  0  0  0
    1.6217   -3.7216    5.5134 H   0  0  0  0  0  0  0  0  0  0  0  0
    2.9055   -1.4829    5.2378 H   0  0  0  0  0  0  0  0  0  0  0  0
    3.8520   -2.9262    4.9357 H   0  0  0  0  0  0  0  0  0  0  0  0
    4.2365    0.0780    3.7318 H   0  0  0  0  0  0  0  0  0  0  0  0
    3.7119    0.0131   -3.3292 H   0  0  0  0  0  0  0  0  0  0  0  0
    5.0157   -5.0341   -3.2629 H   0  0  0  0  0  0  0  0  0  0  0  0
    5.5103   -4.1860   -4.7346 H   0  0  0  0  0  0  0  0  0  0  0  0
    3.7976   -4.5439   -4.4466 H   0  0  0  0  0  0  0  0  0  0  0  0
    5.2299   -3.4651   -1.2956 H   0  0  0  0  0  0  0  0  0  0  0  0
  1  2  1  0
  1 24  1  0
  1 25  1  0
  1 26  1  0
  2  6  1  0
  2  3  2  0
  3  4  1  0
  3 22  1  0
  4  5  2  0
  4  8  1  0
  5  6  1  0
  6  7  1  0
  7 27  1  0
  7 28  1  0
  7 29  1  0
  8  9  1  0
  8 30  1  0
  8 31  1  0
  9 32  1  0
  9 33  1  0
  9 10  1  0
 10 22  2  0
 10 11  1  0
 11 34  1  0
 11 12  2  0
 12 13  1  0
 13 14  1  0
 13 21  2  0
 14 15  1  0
 14 23  1  0
 15 20  2  0
 15 16  1  0
 16 17  2  0
 16 35  1  0
 17 18  1  0
 18 19  1  0
 18 20  1  0
 19 36  1  0
 19 37  1  0
 19 38  1  0
 20 39  1  0
 21 22  1  0
M  END
>  <i_m_ct_stereo_status>  (3) 
1

>  <s_m_source_file>  (3) 
/var/tmp/pbs.5076255.sched01/tmp3z6s85wa/08w76y650.sdf

>  <i_m_source_file_index>  (3) 
3

>  <i_lp_mmshare_version>  (3) 
48012

>  <i_f3d_flags>  (3) 
0

>  <s_epik_input>  (3) 
W0NIM11jMW4oW0NIM10pbmMoYzEyKVtDSDJdW0NIMl1jM2MybmMoXFtuSF1bY0hdMyk9Ti9jNFtjSF1ubihbQ0gzXSlbY0hdNA==

>  <s_epik_cmdline>  (3) 
J2VwaWtfcHl0aG9uJywgJy1waHQnLCAnMi4wJywgJy1waCcsICc3LjAnLCAnLXRuJywgJzgnLCAnLW1hJywgJzIwMCcsICctaW1hZScsICc8aW5maWxlLm1hZT4nLCAnLW9tYWUnLCAnPG91dGZpbGUubWFlPic=

>  <r_lp_tautomer_probability>  (3) 
1

>  <r_epik_Ionization_Penalty>  (3) 
0.000521695

>  <r_epik_Ionization_Penalty_Charging>  (3) 
0

>  <r_epik_Ionization_Penalty_Neutral>  (3) 
0.000521695

>  <r_epik_State_Penalty>  (3) 
-0

>  <r_epik_Charging_Adjusted_Penalty>  (3) 
0

>  <i_epik_Tot_Q>  (3) 
0

>  <i_epik_Tot_abs_Q>  (3) 
0

>  <s_lp_Force_Field>  (3) 
OPLS3e

>  <r_lp_Energy>  (3) 
18.2795

>  <b_lp_Chiralities_Consistent>  (3) 
1

>  <s_lp_Variant>  (3) 
2:0-1

>  <s_i_glide_gridfile>  (3) 
pfpi4k_grid

>  <i_i_glide_lignum>  (3) 
3

>  <i_i_glide_rotatable_bonds>  (3) 
2

>  <r_i_docking_score>  (3) 
-3.93594

>  <r_i_glide_ligand_efficiency>  (3) 
-0.178906

>  <r_i_glide_ligand_efficiency_sa>  (3) 
-0.501303

>  <r_i_glide_ligand_efficiency_ln>  (3) 
-0.962087

>  <r_i_glide_gscore>  (3) 
-3.93594

>  <r_i_glide_lipo>  (3) 
-0.171447

>  <r_i_glide_hbond>  (3) 
-0.474261

>  <r_i_glide_metal>  (3) 
-0

>  <r_i_glide_rewards>  (3) 
-1.60339

>  <r_i_glide_evdw>  (3) 
-27.7895

>  <r_i_glide_ecoul>  (3) 
-4.28094

>  <r_i_glide_erotb>  (3) 
0.419659

>  <r_i_glide_esite>  (3) 
-0.074881

>  <r_i_glide_emodel>  (3) 
-40.9627

>  <r_i_glide_energy>  (3) 
-32.0705

>  <r_i_glide_einternal>  (3) 
0.646671

>  <r_i_glide_intrahb_reward>  (3) 
-0

>  <i_i_glide_confnum>  (3) 
5

>  <i_i_glide_posenum>  (3) 
15

>  <r_i_glide_eff_state_penalty>  (3) 
0

>  <ligand_id>  (3) 
2

>  <original_smiles>  (3) 
Cc1c2c(nn1C)CCc1c[nH]c(=Nc3cnn(C)c3)nc1-2

>  <smiles>  (3) 
[H]c1nn(C([H])([H])[H])c([H])c1N([H])c1nc([H])c2c(n1)-c1c(nn(C([H])([H])[H])c1C([H])([H])[H])C([H])([H])C2([H])[H]

$$$$
2:0:2
     RDKit          3D

 39 42  0  0  1  0  0  0  0  0999 V2000
    2.7338   -5.5853    0.1881 C   0  0  0  0  0  0  0  0  0  0  0  0
    2.2582   -5.3273    1.5823 C   0  0  0  0  0  0  0  0  0  0  0  0
    2.3880   -4.2662    2.4409 C   0  0  0  0  0  0  0  0  0  0  0  0
    1.7112   -4.6348    3.6201 C   0  0  0  0  0  0  0  0  0  0  0  0
    1.1692   -5.8373    3.5296 N   0  0  0  0  0  0  0  0  0  0  0  0
    1.5218   -6.2704    2.2922 N   0  0  0  0  0  0  0  0  0  0  0  0
    1.1222   -7.6098    1.8964 C   0  0  0  0  0  0  0  0  0  0  0  0
    1.6219   -3.7507    4.8301 C   0  0  0  0  0  0  0  0  0  0  0  0
    2.8505   -2.8052    4.9054 C   0  0  0  0  0  0  0  0  0  0  0  0
    3.2326   -2.2061    3.5555 C   0  0  0  0  0  0  0  0  0  0  0  0
    3.7992   -0.9225    3.4117 C   0  0  0  0  0  0  0  0  0  0  0  0
    4.1502   -0.4471    2.1930 N   0  0  0  0  0  0  0  0  0  0  0  0
    3.9273   -1.2404    1.1465 C   0  0  0  0  0  0  0  0  0  0  0  0
    4.2919   -0.7451   -0.0866 N   0  0  0  0  0  0  0  0  0  0  0  0
    4.0357   -1.2409   -1.3931 C   0  0  0  0  0  0  0  0  0  0  0  0
    4.4196   -0.7249   -2.6606 C   0  0  0  0  0  0  0  0  0  0  0  0
    4.0096   -1.4692   -3.6860 N   0  0  0  0  0  0  0  0  0  0  0  0
    3.3054   -2.4561   -3.0964 N   0  0  0  0  0  0  0  0  0  0  0  0
    2.6688   -3.4894   -3.8703 C   0  0  0  0  0  0  0  0  0  0  0  0
    3.2923   -2.3338   -1.7327 C   0  0  0  0  0  0  0  0  0  0  0  0
    3.4022   -2.4674    1.1790 N   0  0  0  0  0  0  0  0  0  0  0  0
    3.0463   -2.9534    2.3726 C   0  0  0  0  0  0  0  0  0  0  0  0
    4.7338    0.1621   -0.0135 H   0  0  0  0  0  0  0  0  0  0  0  0
    3.4559   -4.8410   -0.1328 H   0  0  0  0  0  0  0  0  0  0  0  0
    1.8935   -5.5812   -0.5072 H   0  0  0  0  0  0  0  0  0  0  0  0
    3.2303   -6.5519    0.1201 H   0  0  0  0  0  0  0  0  0  0  0  0
    1.0078   -7.6707    0.8145 H   0  0  0  0  0  0  0  0  0  0  0  0
    0.1703   -7.8716    2.3587 H   0  0  0  0  0  0  0  0  0  0  0  0
    1.8741   -8.3371    2.2120 H   0  0  0  0  0  0  0  0  0  0  0  0
    0.7253   -3.1359    4.7380 H   0  0  0  0  0  0  0  0  0  0  0  0
    1.5202   -4.3322    5.7476 H   0  0  0  0  0  0  0  0  0  0  0  0
    2.7151   -2.0234    5.6533 H   0  0  0  0  0  0  0  0  0  0  0  0
    3.7126   -3.4010    5.2109 H   0  0  0  0  0  0  0  0  0  0  0  0
    3.9683   -0.2807    4.2689 H   0  0  0  0  0  0  0  0  0  0  0  0
    4.9983    0.1642   -2.8601 H   0  0  0  0  0  0  0  0  0  0  0  0
    2.0647   -4.1099   -3.2104 H   0  0  0  0  0  0  0  0  0  0  0  0
    3.4319   -4.1156   -4.3258 H   0  0  0  0  0  0  0  0  0  0  0  0
    2.0104   -3.0587   -4.6175 H   0  0  0  0  0  0  0  0  0  0  0  0
    2.7347   -3.0321   -1.1314 H   0  0  0  0  0  0  0  0  0  0  0  0
  1  2  1  0
  1 24  1  0
  1 25  1  0
  1 26  1  0
  2  6  1  0
  2  3  2  0
  3  4  1  0
  3 22  1  0
  4  5  2  0
  4  8  1  0
  5  6  1  0
  6  7  1  0
  7 27  1  0
  7 28  1  0
  7 29  1  0
  8  9  1  0
  8 30  1  0
  8 31  1  0
  9 32  1  0
  9 33  1  0
  9 10  1  0
 10 22  2  0
 10 11  1  0
 11 34  1  0
 11 12  2  0
 12 13  1  0
 13 14  1  0
 13 21  2  0
 14 15  1  0
 14 23  1  0
 15 20  2  0
 15 16  1  0
 16 17  2  0
 16 35  1  0
 17 18  1  0
 18 19  1  0
 18 20  1  0
 19 36  1  0
 19 37  1  0
 19 38  1  0
 20 39  1  0
 21 22  1  0
M  END
>  <i_m_ct_stereo_status>  (4) 
1

>  <s_m_source_file>  (4) 
/var/tmp/pbs.5076255.sched01/tmp3z6s85wa/08w76y650.sdf

>  <i_m_source_file_index>  (4) 
3

>  <i_lp_mmshare_version>  (4) 
48012

>  <i_f3d_flags>  (4) 
0

>  <s_epik_input>  (4) 
W0NIM11jMW4oW0NIM10pbmMoYzEyKVtDSDJdW0NIMl1jM2MybmMoXFtuSF1bY0hdMyk9Ti9jNFtjSF1ubihbQ0gzXSlbY0hdNA==

>  <s_epik_cmdline>  (4) 
J2VwaWtfcHl0aG9uJywgJy1waHQnLCAnMi4wJywgJy1waCcsICc3LjAnLCAnLXRuJywgJzgnLCAnLW1hJywgJzIwMCcsICctaW1hZScsICc8aW5maWxlLm1hZT4nLCAnLW9tYWUnLCAnPG91dGZpbGUubWFlPic=

>  <r_lp_tautomer_probability>  (4) 
1

>  <r_epik_Ionization_Penalty>  (4) 
0.000521695

>  <r_epik_Ionization_Penalty_Charging>  (4) 
0

>  <r_epik_Ionization_Penalty_Neutral>  (4) 
0.000521695

>  <r_epik_State_Penalty>  (4) 
-0

>  <r_epik_Charging_Adjusted_Penalty>  (4) 
0

>  <i_epik_Tot_Q>  (4) 
0

>  <i_epik_Tot_abs_Q>  (4) 
0

>  <s_lp_Force_Field>  (4) 
OPLS3e

>  <r_lp_Energy>  (4) 
18.2795

>  <b_lp_Chiralities_Consistent>  (4) 
1

>  <s_lp_Variant>  (4) 
2:0-1

>  <s_i_glide_gridfile>  (4) 
pfpi4k_grid

>  <i_i_glide_lignum>  (4) 
3

>  <i_i_glide_rotatable_bonds>  (4) 
2

>  <r_i_docking_score>  (4) 
-3.23986

>  <r_i_glide_ligand_efficiency>  (4) 
-0.147267

>  <r_i_glide_ligand_efficiency_sa>  (4) 
-0.412647

>  <r_i_glide_ligand_efficiency_ln>  (4) 
-0.791941

>  <r_i_glide_gscore>  (4) 
-3.23986

>  <r_i_glide_lipo>  (4) 
-0.142207

>  <r_i_glide_hbond>  (4) 
-0.121629

>  <r_i_glide_metal>  (4) 
-0

>  <r_i_glide_rewards>  (4) 
-1.48942

>  <r_i_glide_evdw>  (4) 
-25.6595

>  <r_i_glide_ecoul>  (4) 
-3.78364

>  <r_i_glide_erotb>  (4) 
0.419659

>  <r_i_glide_esite>  (4) 
-0.0557514

>  <r_i_glide_emodel>  (4) 
-36.1143

>  <r_i_glide_energy>  (4) 
-29.4431

>  <r_i_glide_einternal>  (4) 
1.12353

>  <r_i_glide_intrahb_reward>  (4) 
-0

>  <i_i_glide_confnum>  (4) 
6

>  <i_i_glide_posenum>  (4) 
34

>  <r_i_glide_eff_state_penalty>  (4) 
0

>  <ligand_id>  (4) 
2

>  <original_smiles>  (4) 
Cc1c2c(nn1C)CCc1c[nH]c(=Nc3cnn(C)c3)nc1-2

>  <smiles>  (4) 
[H]c1nn(C([H])([H])[H])c([H])c1N([H])c1nc([H])c2c(n1)-c1c(nn(C([H])([H])[H])c1C([H])([H])[H])C([H])([H])C2([H])[H]

$$$$
4:0:0
     RDKit          3D

 28 29  0  0  1  0  0  0  0  0999 V2000
    3.2077    0.3028    2.4111 C   0  0  0  0  0  0  0  0  0  0  0  0
    4.0618   -0.6963    1.6400 C   0  0  0  0  0  0  0  0  0  0  0  0
    5.2069   -0.4130    1.2885 O   0  0  0  0  0  0  0  0  0  0  0  0
    3.4203   -1.8651    1.3861 O   0  0  0  0  0  0  0  0  0  0  0  0
    4.0159   -2.8524    0.5427 C   0  0  2  0  0  0  0  0  0  0  0  0
    3.7062   -2.5546   -0.9113 C   0  0  0  0  0  0  0  0  0  0  0  0
    2.7963   -3.2249   -1.6045 C   0  0  0  0  0  0  0  0  0  0  0  0
    2.6578   -2.7616   -3.0190 C   0  0  0  0  0  0  0  0  0  0  0  0
    3.4251   -1.4116   -2.9829 C   0  0  0  0  0  0  0  0  0  0  0  0
    4.3429   -1.4662   -1.7369 C   0  0  0  0  0  0  0  0  0  0  0  0
    1.9665   -4.1977   -1.1224 O   0  0  0  0  0  0  0  0  0  0  0  0
    2.2427   -4.7067    0.1242 C   0  0  0  0  0  0  0  0  0  0  0  0
    1.4328   -5.7186    0.5115 N   0  0  0  0  0  0  0  0  0  0  0  0
    3.4837   -4.2672    0.9069 C   0  0  1  0  0  0  0  0  0  0  0  0
    4.5370   -5.2672    0.6994 C   0  0  0  0  0  0  0  0  0  0  0  0
    5.3759   -6.0436    0.5323 N   0  0  0  0  0  0  0  0  0  0  0  0
    2.3416    0.6013    1.8180 H   0  0  0  0  0  0  0  0  0  0  0  0
    3.7858    1.2012    2.6374 H   0  0  0  0  0  0  0  0  0  0  0  0
    2.8668   -0.1327    3.3498 H   0  0  0  0  0  0  0  0  0  0  0  0
    5.0970   -2.8471    0.6865 H   0  0  0  0  0  0  0  0  0  0  0  0
    3.1525   -3.4724   -3.6883 H   0  0  0  0  0  0  0  0  0  0  0  0
    1.6064   -2.6668   -3.2953 H   0  0  0  0  0  0  0  0  0  0  0  0
    3.9542   -1.1731   -3.9060 H   0  0  0  0  0  0  0  0  0  0  0  0
    2.6910   -0.6177   -2.8272 H   0  0  0  0  0  0  0  0  0  0  0  0
    4.3428   -0.5155   -1.2097 H   0  0  0  0  0  0  0  0  0  0  0  0
    5.3690   -1.7368   -1.9838 H   0  0  0  0  0  0  0  0  0  0  0  0
    1.8253   -6.0933    1.3870 H   0  0  0  0  0  0  0  0  0  0  0  0
    3.2711   -4.2896    1.9757 H   0  0  0  0  0  0  0  0  0  0  0  0
  1  2  1  0
  1 17  1  0
  1 18  1  0
  1 19  1  0
  2  3  2  0
  2  4  1  0
  4  5  1  0
  5 14  1  0
  5  6  1  0
  5 20  1  6
  6 10  1  0
  6  7  2  0
  7  8  1  0
  7 11  1  0
  8  9  1  0
  8 21  1  0
  8 22  1  0
  9 10  1  0
  9 23  1  0
  9 24  1  0
 10 25  1  0
 10 26  1  0
 11 12  1  0
 12 13  1  0
 12 14  1  0
 13 27  1  0
 14 15  1  0
 14 28  1  1
 15 16  3  0
M  CHG  2  12   1  13  -1
M  END
>  <i_m_ct_stereo_status>  (5) 
1

>  <s_m_source_file>  (5) 
/var/tmp/pbs.5076255.sched01/tmp3z6s85wa/08w76y650.sdf

>  <i_m_source_file_index>  (5) 
5

>  <i_lp_mmshare_version>  (5) 
48012

>  <i_f3d_flags>  (5) 
0

>  <s_epik_input>  (5) 
W0NIM11DKD1PKU9bQ0BIXTFbQ0BIXShDI04pQyg9TlxbSF0pXE9DKD1DMTIpW0NIMl1bQ0gyXVtDSDJdMg==

>  <s_epik_cmdline>  (5) 
J2VwaWtfcHl0aG9uJywgJy1waHQnLCAnMi4wJywgJy1waCcsICc3LjAnLCAnLXRuJywgJzgnLCAnLW1hJywgJzIwMCcsICctaW1hZScsICc8aW5maWxlLm1hZT4nLCAnLW9tYWUnLCAnPG91dGZpbGUubWFlPic=

>  <r_epik_Ionization_Penalty>  (5) 
6.28305e-09

>  <r_epik_Ionization_Penalty_Charging>  (5) 
0

>  <r_epik_Ionization_Penalty_Neutral>  (5) 
6.28305e-09

>  <r_epik_State_Penalty>  (5) 
0.420768

>  <r_epik_Charging_Adjusted_Penalty>  (5) 
0.420768

>  <i_epik_Tot_Q>  (5) 
0

>  <i_epik_Tot_abs_Q>  (5) 
2

>  <s_epik_Chemistry_Notes>  (5) 
This compound has an ester and may undergo hydrolysis at high or low pH.

>  <s_lp_Force_Field>  (5) 
OPLS3e

>  <r_lp_Energy>  (5) 
-3.84661

>  <b_lp_Chiralities_Consistent>  (5) 
1

>  <s_lp_Variant>  (5) 
4:0-1

>  <s_i_glide_gridfile>  (5) 
pfpi4k_grid

>  <i_i_glide_lignum>  (5) 
5

>  <i_i_glide_rotatable_bonds>  (5) 
3

>  <r_i_docking_score>  (5) 
-4.84736

>  <r_i_glide_ligand_efficiency>  (5) 
-0.30296

>  <r_i_glide_ligand_efficiency_sa>  (5) 
-0.763412

>  <r_i_glide_ligand_efficiency_ln>  (5) 
-1.28489

>  <r_i_glide_gscore>  (5) 
-4.84736

>  <r_i_glide_lipo>  (5) 
-0.192976

>  <r_i_glide_hbond>  (5) 
-0.177038

>  <r_i_glide_metal>  (5) 
-0

>  <r_i_glide_rewards>  (5) 
-2.05083

>  <r_i_glide_evdw>  (5) 
-17.6673

>  <r_i_glide_ecoul>  (5) 
-12.6038

>  <r_i_glide_erotb>  (5) 
0.347413

>  <r_i_glide_esite>  (5) 
0

>  <r_i_glide_emodel>  (5) 
-38.194

>  <r_i_glide_energy>  (5) 
-30.2711

>  <r_i_glide_einternal>  (5) 
0.888487

>  <r_i_glide_intrahb_reward>  (5) 
-0

>  <i_i_glide_confnum>  (5) 
1

>  <i_i_glide_posenum>  (5) 
30

>  <r_i_glide_eff_state_penalty>  (5) 
0

>  <ligand_id>  (5) 
4

>  <original_smiles>  (5) 
CC(=O)OC1C2=C(CCC2)OC(=N)C1C#N

>  <smiles>  (5) 
[H][N-][C+]1OC2=C(C([H])([H])C([H])([H])C2([H])[H])C([H])(OC(=O)C([H])([H])[H])C1([H])C#N

$$$$
4:0:1
     RDKit          3D

 28 29  0  0  1  0  0  0  0  0999 V2000
    6.0638   -1.1345    1.0954 C   0  0  0  0  0  0  0  0  0  0  0  0
    4.7350   -1.1661    1.9035 C   0  0  0  0  0  0  0  0  0  0  0  0
    4.4007   -0.2612    2.6831 O   0  0  0  0  0  0  0  0  0  0  0  0
    3.9086   -2.2501    1.6739 O   0  0  0  0  0  0  0  0  0  0  0  0
    4.2314   -3.2808    0.7459 C   0  0  2  0  0  0  0  0  0  0  0  0
    3.7866   -2.8917   -0.6622 C   0  0  0  0  0  0  0  0  0  0  0  0
    2.7887   -3.4453   -1.2732 C   0  0  0  0  0  0  0  0  0  0  0  0
    2.5294   -2.9399   -2.6703 C   0  0  0  0  0  0  0  0  0  0  0  0
    3.4352   -1.6824   -2.7046 C   0  0  0  0  0  0  0  0  0  0  0  0
    4.4303   -1.8495   -1.5663 C   0  0  0  0  0  0  0  0  0  0  0  0
    1.9309   -4.3881   -0.7331 O   0  0  0  0  0  0  0  0  0  0  0  0
    2.2347   -4.8835    0.4976 C   0  0  0  0  0  0  0  0  0  0  0  0
    1.3753   -5.8524    0.9004 N   0  0  0  0  0  0  0  0  0  0  0  0
    3.5807   -4.6323    1.1584 C   0  0  1  0  0  0  0  0  0  0  0  0
    4.4798   -5.7465    0.8020 C   0  0  0  0  0  0  0  0  0  0  0  0
    5.1535   -6.6331    0.5137 N   0  0  0  0  0  0  0  0  0  0  0  0
    6.6926   -2.0028    1.3459 H   0  0  0  0  0  0  0  0  0  0  0  0
    6.5904   -0.2129    1.2682 H   0  0  0  0  0  0  0  0  0  0  0  0
    5.9209   -1.1524    0.0507 H   0  0  0  0  0  0  0  0  0  0  0  0
    5.2914   -3.4868    0.7987 H   0  0  0  0  0  0  0  0  0  0  0  0
    2.9022   -3.6693   -3.3978 H   0  0  0  0  0  0  0  0  0  0  0  0
    1.4750   -2.6924   -2.8261 H   0  0  0  0  0  0  0  0  0  0  0  0
    3.9154   -1.4674   -3.6658 H   0  0  0  0  0  0  0  0  0  0  0  0
    2.8144   -0.8198   -2.4396 H   0  0  0  0  0  0  0  0  0  0  0  0
    4.4715   -0.8470   -1.1597 H   0  0  0  0  0  0  0  0  0  0  0  0
    5.4048   -2.1774   -1.9172 H   0  0  0  0  0  0  0  0  0  0  0  0
    1.7481   -6.2721    1.7579 H   0  0  0  0  0  0  0  0  0  0  0  0
    3.4883   -4.6935    2.2517 H   0  0  0  0  0  0  0  0  0  0  0  0
  1  2  1  0
  1 17  1  0
  1 18  1  0
  1 19  1  0
  2  3  2  0
  2  4  1  0
  4  5  1  0
  5 14  1  0
  5  6  1  0
  5 20  1  6
  6 10  1  0
  6  7  2  0
  7  8  1  0
  7 11  1  0
  8  9  1  0
  8 21  1  0
  8 22  1  0
  9 10  1  0
  9 23  1  0
  9 24  1  0
 10 25  1  0
 10 26  1  0
 11 12  1  0
 12 13  1  0
 12 14  1  0
 13 27  1  0
 14 15  1  0
 14 28  1  1
 15 16  3  0
M  CHG  2  12   1  13  -1
M  END
>  <i_m_ct_stereo_status>  (6) 
1

>  <s_m_source_file>  (6) 
/var/tmp/pbs.5076255.sched01/tmp3z6s85wa/08w76y650.sdf

>  <i_m_source_file_index>  (6) 
5

>  <i_lp_mmshare_version>  (6) 
48012

>  <i_f3d_flags>  (6) 
0

>  <s_epik_input>  (6) 
W0NIM11DKD1PKU9bQ0BIXTFbQ0BIXShDI04pQyg9TlxbSF0pXE9DKD1DMTIpW0NIMl1bQ0gyXVtDSDJdMg==

>  <s_epik_cmdline>  (6) 
J2VwaWtfcHl0aG9uJywgJy1waHQnLCAnMi4wJywgJy1waCcsICc3LjAnLCAnLXRuJywgJzgnLCAnLW1hJywgJzIwMCcsICctaW1hZScsICc8aW5maWxlLm1hZT4nLCAnLW9tYWUnLCAnPG91dGZpbGUubWFlPic=

>  <r_epik_Ionization_Penalty>  (6) 
6.28305e-09

>  <r_epik_Ionization_Penalty_Charging>  (6) 
0

>  <r_epik_Ionization_Penalty_Neutral>  (6) 
6.28305e-09

>  <r_epik_State_Penalty>  (6) 
0.420768

>  <r_epik_Charging_Adjusted_Penalty>  (6) 
0.420768

>  <i_epik_Tot_Q>  (6) 
0

>  <i_epik_Tot_abs_Q>  (6) 
2

>  <s_epik_Chemistry_Notes>  (6) 
This compound has an ester and may undergo hydrolysis at high or low pH.

>  <s_lp_Force_Field>  (6) 
OPLS3e

>  <r_lp_Energy>  (6) 
-3.84661

>  <b_lp_Chiralities_Consistent>  (6) 
1

>  <s_lp_Variant>  (6) 
4:0-1

>  <s_i_glide_gridfile>  (6) 
pfpi4k_grid

>  <i_i_glide_lignum>  (6) 
5

>  <i_i_glide_rotatable_bonds>  (6) 
3

>  <r_i_docking_score>  (6) 
-4.76512

>  <r_i_glide_ligand_efficiency>  (6) 
-0.29782

>  <r_i_glide_ligand_efficiency_sa>  (6) 
-0.750459

>  <r_i_glide_ligand_efficiency_ln>  (6) 
-1.26309

>  <r_i_glide_gscore>  (6) 
-4.76512

>  <r_i_glide_lipo>  (6) 
-0.238281

>  <r_i_glide_hbond>  (6) 
-0.156072

>  <r_i_glide_metal>  (6) 
-0

>  <r_i_glide_rewards>  (6) 
-2.11044

>  <r_i_glide_evdw>  (6) 
-16.8237

>  <r_i_glide_ecoul>  (6) 
-11.777

>  <r_i_glide_erotb>  (6) 
0.347413

>  <r_i_glide_esite>  (6) 
0

>  <r_i_glide_emodel>  (6) 
-31.4547

>  <r_i_glide_energy>  (6) 
-28.6007

>  <r_i_glide_einternal>  (6) 
6.26476

>  <r_i_glide_intrahb_reward>  (6) 
-0

>  <i_i_glide_confnum>  (6) 
6

>  <i_i_glide_posenum>  (6) 
27

>  <r_i_glide_eff_state_penalty>  (6) 
0

>  <ligand_id>  (6) 
4

>  <original_smiles>  (6) 
CC(=O)OC1C2=C(CCC2)OC(=N)C1C#N

>  <smiles>  (6) 
[H][N-][C+]1OC2=C(C([H])([H])C([H])([H])C2([H])[H])C([H])(OC(=O)C([H])([H])[H])C1([H])C#N

$$$$
4:0:2
     RDKit          3D

 28 29  0  0  1  0  0  0  0  0999 V2000
   -0.5672   -2.9078    6.0326 C   0  0  0  0  0  0  0  0  0  0  0  0
   -0.0264   -1.4976    6.2147 C   0  0  0  0  0  0  0  0  0  0  0  0
   -0.1873   -0.8965    7.2769 O   0  0  0  0  0  0  0  0  0  0  0  0
    0.5771   -1.0132    5.1098 O   0  0  0  0  0  0  0  0  0  0  0  0
    1.1035    0.3139    5.0995 C   0  0  2  0  0  0  0  0  0  0  0  0
    0.0823    1.2953    4.5716 C   0  0  0  0  0  0  0  0  0  0  0  0
    0.1593    1.8410    3.3667 C   0  0  0  0  0  0  0  0  0  0  0  0
   -0.9717    2.7708    3.0595 C   0  0  0  0  0  0  0  0  0  0  0  0
   -1.9520    2.4832    4.2243 C   0  0  0  0  0  0  0  0  0  0  0  0
   -1.1229    1.7895    5.3307 C   0  0  0  0  0  0  0  0  0  0  0  0
    1.1028    1.5620    2.4175 O   0  0  0  0  0  0  0  0  0  0  0  0
    2.0393    0.6062    2.7245 C   0  0  0  0  0  0  0  0  0  0  0  0
    3.0189    0.5463    1.8137 N   0  0  0  0  0  0  0  0  0  0  0  0
    2.3608    0.3533    4.2031 C   0  0  1  0  0  0  0  0  0  0  0  0
    3.3202    1.3355    4.7424 C   0  0  0  0  0  0  0  0  0  0  0  0
    4.0640    2.0977    5.1909 N   0  0  0  0  0  0  0  0  0  0  0  0
   -1.3561   -2.9069    5.2812 H   0  0  0  0  0  0  0  0  0  0  0  0
   -0.9816   -3.2935    6.9653 H   0  0  0  0  0  0  0  0  0  0  0  0
    0.2312   -3.5733    5.7078 H   0  0  0  0  0  0  0  0  0  0  0  0
    1.3949    0.6113    6.1089 H   0  0  0  0  0  0  0  0  0  0  0  0
   -0.6089    3.7993    3.0880 H   0  0  0  0  0  0  0  0  0  0  0  0
   -1.4017    2.5597    2.0803 H   0  0  0  0  0  0  0  0  0  0  0  0
   -2.4969    3.3643    4.5636 H   0  0  0  0  0  0  0  0  0  0  0  0
   -2.6933    1.7684    3.8640 H   0  0  0  0  0  0  0  0  0  0  0  0
   -1.6677    0.9733    5.8021 H   0  0  0  0  0  0  0  0  0  0  0  0
   -0.8085    2.4984    6.0977 H   0  0  0  0  0  0  0  0  0  0  0  0
    3.8011    0.0145    2.2096 H   0  0  0  0  0  0  0  0  0  0  0  0
    2.8781   -0.5988    4.2802 H   0  0  0  0  0  0  0  0  0  0  0  0
  1  2  1  0
  1 17  1  0
  1 18  1  0
  1 19  1  0
  2  3  2  0
  2  4  1  0
  4  5  1  0
  5 14  1  0
  5  6  1  0
  5 20  1  1
  6 10  1  0
  6  7  2  0
  7  8  1  0
  7 11  1  0
  8  9  1  0
  8 21  1  0
  8 22  1  0
  9 10  1  0
  9 23  1  0
  9 24  1  0
 10 25  1  0
 10 26  1  0
 11 12  1  0
 12 13  1  0
 12 14  1  0
 13 27  1  0
 14 15  1  0
 14 28  1  6
 15 16  3  0
M  CHG  2  12   1  13  -1
M  END
>  <i_m_ct_stereo_status>  (7) 
1

>  <s_m_source_file>  (7) 
/var/tmp/pbs.5076255.sched01/tmp3z6s85wa/08w76y650.sdf

>  <i_m_source_file_index>  (7) 
5

>  <i_lp_mmshare_version>  (7) 
48012

>  <i_f3d_flags>  (7) 
0

>  <s_epik_input>  (7) 
W0NIM11DKD1PKU9bQ0BIXTFbQ0BIXShDI04pQyg9TlxbSF0pXE9DKD1DMTIpW0NIMl1bQ0gyXVtDSDJdMg==

>  <s_epik_cmdline>  (7) 
J2VwaWtfcHl0aG9uJywgJy1waHQnLCAnMi4wJywgJy1waCcsICc3LjAnLCAnLXRuJywgJzgnLCAnLW1hJywgJzIwMCcsICctaW1hZScsICc8aW5maWxlLm1hZT4nLCAnLW9tYWUnLCAnPG91dGZpbGUubWFlPic=

>  <r_epik_Ionization_Penalty>  (7) 
6.28305e-09

>  <r_epik_Ionization_Penalty_Charging>  (7) 
0

>  <r_epik_Ionization_Penalty_Neutral>  (7) 
6.28305e-09

>  <r_epik_State_Penalty>  (7) 
0.420768

>  <r_epik_Charging_Adjusted_Penalty>  (7) 
0.420768

>  <i_epik_Tot_Q>  (7) 
0

>  <i_epik_Tot_abs_Q>  (7) 
2

>  <s_epik_Chemistry_Notes>  (7) 
This compound has an ester and may undergo hydrolysis at high or low pH.

>  <s_lp_Force_Field>  (7) 
OPLS3e

>  <r_lp_Energy>  (7) 
-3.84661

>  <b_lp_Chiralities_Consistent>  (7) 
1

>  <s_lp_Variant>  (7) 
4:0-1

>  <s_i_glide_gridfile>  (7) 
pfpi4k_grid

>  <i_i_glide_lignum>  (7) 
5

>  <i_i_glide_rotatable_bonds>  (7) 
3

>  <r_i_docking_score>  (7) 
-2.49507

>  <r_i_glide_ligand_efficiency>  (7) 
-0.155942

>  <r_i_glide_ligand_efficiency_sa>  (7) 
-0.392948

>  <r_i_glide_ligand_efficiency_ln>  (7) 
-0.661367

>  <r_i_glide_gscore>  (7) 
-2.49507

>  <r_i_glide_lipo>  (7) 
0

>  <r_i_glide_hbond>  (7) 
0

>  <r_i_glide_metal>  (7) 
-0

>  <r_i_glide_rewards>  (7) 
-1.90756

>  <r_i_glide_evdw>  (7) 
-14.4442

>  <r_i_glide_ecoul>  (7) 
-1.20038

>  <r_i_glide_erotb>  (7) 
0.347413

>  <r_i_glide_esite>  (7) 
-0.032653

>  <r_i_glide_emodel>  (7) 
-19.9876

>  <r_i_glide_energy>  (7) 
-15.6446

>  <r_i_glide_einternal>  (7) 
0.834303

>  <r_i_glide_intrahb_reward>  (7) 
-0

>  <i_i_glide_confnum>  (7) 
2

>  <i_i_glide_posenum>  (7) 
7

>  <r_i_glide_eff_state_penalty>  (7) 
0

>  <ligand_id>  (7) 
4

>  <original_smiles>  (7) 
CC(=O)OC1C2=C(CCC2)OC(=N)C1C#N

>  <smiles>  (7) 
[H][N-][C+]1OC2=C(C([H])([H])C([H])([H])C2([H])[H])C([H])(OC(=O)C([H])([H])[H])C1([H])C#N

$$$$
5:0:0
     RDKit          3D

 76 80  0  0  1  0  0  0  0  0999 V2000
    6.5585   -7.0246    4.8502 C   0  0  0  0  0  0  0  0  0  0  0  0
    5.5140   -6.1991    5.0499 C   0  0  0  0  0  0  0  0  0  0  0  0
    5.7195   -5.0782    6.0549 C   0  0  0  0  0  0  0  0  0  0  0  0
    4.8095   -3.9110    5.8284 C   0  0  0  0  0  0  0  0  0  0  0  0
    3.8470   -3.8768    4.9024 C   0  0  0  0  0  0  0  0  0  0  0  0
    3.4658   -4.9836    3.9113 C   0  0  1  0  0  0  0  0  0  0  0  0
    1.9160   -4.9342    4.0178 C   0  0  0  0  0  0  0  0  0  0  0  0
    3.9742   -4.5186    2.4431 C   0  0  2  0  0  0  0  0  0  0  0  0
    3.7213   -3.0077    2.1562 C   0  0  0  0  0  0  0  0  0  0  0  0
    4.5528   -2.3731    1.0166 C   0  0  1  0  0  0  0  0  0  0  0  0
    5.7161   -1.7364    1.5347 O   0  0  0  0  0  0  0  0  0  0  0  0
    5.4876   -0.4689    2.1345 C   0  0  0  0  0  0  0  0  0  0  0  0
    4.9427   -3.3517   -0.1281 C   0  0  2  0  0  0  0  0  0  0  0  0
    6.3380   -3.9900    0.1292 C   0  0  0  0  0  0  0  0  0  0  0  0
    5.1025   -2.5503   -1.4676 C   0  0  0  0  0  0  0  0  0  0  0  0
    6.1902   -2.0448   -1.7580 O   0  0  0  0  0  0  0  0  0  0  0  0
    3.8908   -2.2647   -2.3932 C   0  0  0  0  0  0  0  0  0  0  0  0
    3.2792   -0.9322   -2.0031 C   0  0  0  0  0  0  0  0  0  0  0  0
    4.3413   -2.1263   -3.8624 C   0  0  0  0  0  0  0  0  0  0  0  0
    2.8476   -3.3715   -2.3385 C   0  0  0  0  0  0  0  0  0  0  0  0
    2.5580   -3.8863   -0.9205 C   0  0  0  0  0  0  0  0  0  0  0  0
    3.8413   -4.4611   -0.2352 C   0  0  2  0  0  0  0  0  0  0  0  0
    3.6058   -5.3277    1.1032 C   0  0  2  0  0  0  0  0  0  0  0  0
    2.1458   -5.8472    1.1230 C   0  0  0  0  0  0  0  0  0  0  0  0
    4.4562   -6.6210    0.9275 C   0  0  0  0  0  0  0  0  0  0  0  0
    5.0544   -7.2560    2.1714 C   0  0  0  0  0  0  0  0  0  0  0  0
    4.0939   -7.4601    3.3402 C   0  0  0  0  0  0  0  0  0  0  0  0
    3.3754   -8.6010    3.3877 C   0  0  0  0  0  0  0  0  0  0  0  0
    2.4348   -9.0123    4.5003 C   0  0  0  0  0  0  0  0  0  0  0  0
    2.0797   -7.8540    5.4321 C   0  0  0  0  0  0  0  0  0  0  0  0
    3.2866   -6.9385    5.7011 C   0  0  0  0  0  0  0  0  0  0  0  0
    4.0749   -6.3827    4.4557 C   0  0  1  0  0  0  0  0  0  0  0  0
    6.5141   -7.9108    4.2381 H   0  0  0  0  0  0  0  0  0  0  0  0
    7.4992   -6.8373    5.3474 H   0  0  0  0  0  0  0  0  0  0  0  0
    5.5104   -5.4558    7.0564 H   0  0  0  0  0  0  0  0  0  0  0  0
    6.7540   -4.7309    6.0426 H   0  0  0  0  0  0  0  0  0  0  0  0
    4.9584   -3.0610    6.4769 H   0  0  0  0  0  0  0  0  0  0  0  0
    3.2270   -2.9906    4.8819 H   0  0  0  0  0  0  0  0  0  0  0  0
    1.4020   -5.7829    3.5892 H   0  0  0  0  0  0  0  0  0  0  0  0
    1.5096   -4.0375    3.5516 H   0  0  0  0  0  0  0  0  0  0  0  0
    1.5924   -4.8948    5.0605 H   0  0  0  0  0  0  0  0  0  0  0  0
    5.0483   -4.5707    2.5666 H   0  0  0  0  0  0  0  0  0  0  0  0
    2.6610   -2.8597    1.9444 H   0  0  0  0  0  0  0  0  0  0  0  0
    3.9213   -2.3906    3.0164 H   0  0  0  0  0  0  0  0  0  0  0  0
    3.9323   -1.5823    0.5991 H   0  0  0  0  0  0  0  0  0  0  0  0
    6.4364   -0.1237    2.5311 H   0  0  0  0  0  0  0  0  0  0  0  0
    4.8005   -0.5007    2.9784 H   0  0  0  0  0  0  0  0  0  0  0  0
    5.1085    0.2502    1.4049 H   0  0  0  0  0  0  0  0  0  0  0  0
    6.4205   -4.5707    1.0370 H   0  0  0  0  0  0  0  0  0  0  0  0
    7.1335   -3.2498    0.1967 H   0  0  0  0  0  0  0  0  0  0  0  0
    6.5992   -4.6562   -0.6877 H   0  0  0  0  0  0  0  0  0  0  0  0
    2.5850   -0.5611   -2.7563 H   0  0  0  0  0  0  0  0  0  0  0  0
    4.0777   -0.2045   -1.8801 H   0  0  0  0  0  0  0  0  0  0  0  0
    2.7405   -1.0070   -1.0639 H   0  0  0  0  0  0  0  0  0  0  0  0
    3.4808   -2.0248   -4.5291 H   0  0  0  0  0  0  0  0  0  0  0  0
    4.8905   -3.0144   -4.1757 H   0  0  0  0  0  0  0  0  0  0  0  0
    4.9884   -1.2622   -4.0043 H   0  0  0  0  0  0  0  0  0  0  0  0
    1.9096   -3.0372   -2.7840 H   0  0  0  0  0  0  0  0  0  0  0  0
    3.2115   -4.1725   -2.9770 H   0  0  0  0  0  0  0  0  0  0  0  0
    2.1008   -3.1058   -0.3069 H   0  0  0  0  0  0  0  0  0  0  0  0
    1.7949   -4.6491   -1.0724 H   0  0  0  0  0  0  0  0  0  0  0  0
    4.2113   -5.1553   -0.9932 H   0  0  0  0  0  0  0  0  0  0  0  0
    1.8510   -6.3046    0.1766 H   0  0  0  0  0  0  0  0  0  0  0  0
    1.4433   -5.0448    1.3497 H   0  0  0  0  0  0  0  0  0  0  0  0
    2.0149   -6.6522    1.8447 H   0  0  0  0  0  0  0  0  0  0  0  0
    3.8865   -7.3803    0.3879 H   0  0  0  0  0  0  0  0  0  0  0  0
    5.3117   -6.4434    0.2780 H   0  0  0  0  0  0  0  0  0  0  0  0
    5.4562   -8.2305    1.8956 H   0  0  0  0  0  0  0  0  0  0  0  0
    5.9208   -6.6647    2.4490 H   0  0  0  0  0  0  0  0  0  0  0  0
    3.4743   -9.3283    2.5976 H   0  0  0  0  0  0  0  0  0  0  0  0
    1.5254   -9.4285    4.0610 H   0  0  0  0  0  0  0  0  0  0  0  0
    2.9163   -9.8165    5.0605 H   0  0  0  0  0  0  0  0  0  0  0  0
    1.2319   -7.3095    5.0268 H   0  0  0  0  0  0  0  0  0  0  0  0
    1.7165   -8.2670    6.3746 H   0  0  0  0  0  0  0  0  0  0  0  0
    3.0001   -6.1383    6.3788 H   0  0  0  0  0  0  0  0  0  0  0  0
    3.9650   -7.5610    6.2885 H   0  0  0  0  0  0  0  0  0  0  0  0
  1  2  2  0
  1 33  1  0
  1 34  1  0
  2 32  1  0
  2  3  1  0
  3  4  1  0
  3 35  1  0
  3 36  1  0
  4  5  2  0
  4 37  1  0
  5  6  1  0
  5 38  1  0
  6 32  1  0
  6  7  1  6
  6  8  1  0
  7 39  1  0
  7 40  1  0
  7 41  1  0
  8 23  1  0
  8  9  1  0
  8 42  1  1
  9 10  1  0
  9 43  1  0
  9 44  1  0
 10 11  1  0
 10 13  1  0
 10 45  1  6
 11 12  1  0
 12 46  1  0
 12 47  1  0
 12 48  1  0
 13 22  1  0
 13 14  1  1
 13 15  1  0
 14 49  1  0
 14 50  1  0
 14 51  1  0
 15 16  2  0
 15 17  1  0
 17 18  1  0
 17 19  1  0
 17 20  1  0
 18 52  1  0
 18 53  1  0
 18 54  1  0
 19 55  1  0
 19 56  1  0
 19 57  1  0
 20 21  1  0
 20 58  1  0
 20 59  1  0
 21 22  1  0
 21 60  1  0
 21 61  1  0
 22 23  1  0
 22 62  1  6
 23 24  1  1
 23 25  1  0
 24 63  1  0
 24 64  1  0
 24 65  1  0
 25 26  1  0
 25 66  1  0
 25 67  1  0
 26 27  1  0
 26 68  1  0
 26 69  1  0
 27 32  1  0
 27 28  2  0
 28 29  1  0
 28 70  1  0
 29 30  1  0
 29 71  1  0
 29 72  1  0
 30 31  1  0
 30 73  1  0
 30 74  1  0
 32 31  1  1
 31 75  1  0
 31 76  1  0
M  END
>  <i_m_ct_stereo_status>  (8) 
1

>  <s_m_source_file>  (8) 
/var/tmp/pbs.5076255.sched01/tmp3z6s85wa/08w76y650.sdf

>  <i_m_source_file_index>  (8) 
6

>  <i_lp_mmshare_version>  (8) 
48012

>  <i_f3d_flags>  (8) 
1

>  <s_epik_input>  (8) 
W0NIMl09QzFbQ0gyXVtDSF09W0NIXVtDQEBdKFtDQF0xMjMpKFtDSDNdKVtDQEhdNFtDQEBdKFtDSDNdKShbQ0BASF01W0NAXShbQ0gzXSkoW0NAQEhdKFtDSDJdNClPW0NIM10pQyg9TylDKFtDSDNdKShbQ0gzXSlbQ0gyXVtDSDJdNSlbQ0gyXVtDSDJdQzI9W0NIXVtDSDJdW0NIMl1bQ0gyXTM=

>  <s_epik_cmdline>  (8) 
J2VwaWtfcHl0aG9uJywgJy1waHQnLCAnMi4wJywgJy1waCcsICc3LjAnLCAnLXRuJywgJzgnLCAnLW1hJywgJzIwMCcsICctaW1hZScsICc8aW5maWxlLm1hZT4nLCAnLW9tYWUnLCAnPG91dGZpbGUubWFlPic=

>  <r_lp_tautomer_probability>  (8) 
1

>  <r_epik_Ionization_Penalty>  (8) 
9.94988e-12

>  <r_epik_Ionization_Penalty_Charging>  (8) 
0

>  <r_epik_Ionization_Penalty_Neutral>  (8) 
9.94988e-12

>  <r_epik_State_Penalty>  (8) 
-0

>  <r_epik_Charging_Adjusted_Penalty>  (8) 
0

>  <i_epik_Tot_Q>  (8) 
0

>  <i_epik_Tot_abs_Q>  (8) 
0

>  <s_lp_Force_Field>  (8) 
OPLS3e

>  <r_lp_Energy>  (8) 
97.0836

>  <b_lp_Chiralities_Consistent>  (8) 
1

>  <s_lp_Variant>  (8) 
5:0-1

>  <s_i_glide_gridfile>  (8) 
pfpi4k_grid

>  <i_i_glide_lignum>  (8) 
6

>  <i_i_glide_rotatable_bonds>  (8) 
1

>  <r_i_docking_score>  (8) 
-2.29906

>  <r_i_glide_ligand_efficiency>  (8) 
-0.0718457

>  <r_i_glide_ligand_efficiency_sa>  (8) 
-0.228096

>  <r_i_glide_ligand_efficiency_ln>  (8) 
-0.514823

>  <r_i_glide_gscore>  (8) 
-2.29906

>  <r_i_glide_lipo>  (8) 
-0.430256

>  <r_i_glide_hbond>  (8) 
-0.11491

>  <r_i_glide_metal>  (8) 
-0

>  <r_i_glide_rewards>  (8) 
-0.431801

>  <r_i_glide_evdw>  (8) 
-18.8607

>  <r_i_glide_ecoul>  (8) 
-2.44852

>  <r_i_glide_erotb>  (8) 
0

>  <r_i_glide_esite>  (8) 
-0.0117817

>  <r_i_glide_emodel>  (8) 
-23.6819

>  <r_i_glide_energy>  (8) 
-21.3092

>  <r_i_glide_einternal>  (8) 
0.230503

>  <r_i_glide_intrahb_reward>  (8) 
-0

>  <i_i_glide_confnum>  (8) 
1

>  <i_i_glide_posenum>  (8) 
37

>  <r_i_glide_eff_state_penalty>  (8) 
0

>  <ligand_id>  (8) 
5

>  <original_smiles>  (8) 
C=C1CC=CC2(C)C3CC(OC)C4(C)C(=O)C(C)(C)CCC4C3(C)CCC3=CCCCC132

>  <smiles>  (8) 
[H]C([H])=C1C([H])([H])C([H])=C([H])C2(C([H])([H])[H])C13C(=C([H])C([H])([H])C([H])([H])C3([H])[H])C([H])([H])C([H])([H])C1(C([H])([H])[H])C3([H])C([H])([H])C([H])([H])C(C([H])([H])[H])(C([H])([H])[H])C(=O)C3(C([H])([H])[H])C([H])(OC([H])([H])[H])C([H])([H])C21[H]

$$$$
5:0:1
     RDKit          3D

 76 80  0  0  1  0  0  0  0  0999 V2000
    6.5704   -5.4401    5.6332 C   0  0  0  0  0  0  0  0  0  0  0  0
    5.5113   -4.5933    5.6483 C   0  0  0  0  0  0  0  0  0  0  0  0
    5.7110   -3.2941    6.4227 C   0  0  0  0  0  0  0  0  0  0  0  0
    4.7910   -2.2110    5.9587 C   0  0  0  0  0  0  0  0  0  0  0  0
    3.8265   -2.3668    5.0505 C   0  0  0  0  0  0  0  0  0  0  0  0
    3.4507   -3.6395    4.2817 C   0  0  1  0  0  0  0  0  0  0  0  0
    1.9082   -3.5926    4.3748 C   0  0  0  0  0  0  0  0  0  0  0  0
    3.9411   -3.4562    2.7591 C   0  0  2  0  0  0  0  0  0  0  0  0
    3.6119   -2.0595    2.1420 C   0  0  0  0  0  0  0  0  0  0  0  0
    4.5513   -1.6693    0.9790 C   0  0  1  0  0  0  0  0  0  0  0  0
    5.7238   -0.9815    1.3514 O   0  0  0  0  0  0  0  0  0  0  0  0
    5.7913   -0.4378    2.6570 C   0  0  0  0  0  0  0  0  0  0  0  0
    4.9389   -2.8255    0.0201 C   0  0  2  0  0  0  0  0  0  0  0  0
    6.3548   -3.4072    0.3731 C   0  0  0  0  0  0  0  0  0  0  0  0
    5.0882   -2.1989   -1.4111 C   0  0  0  0  0  0  0  0  0  0  0  0
    6.1530   -1.6442   -1.7520 O   0  0  0  0  0  0  0  0  0  0  0  0
    3.8970   -2.1739   -2.4219 C   0  0  0  0  0  0  0  0  0  0  0  0
    3.2734   -0.7922   -2.3455 C   0  0  0  0  0  0  0  0  0  0  0  0
    4.3522   -2.3482   -3.8910 C   0  0  0  0  0  0  0  0  0  0  0  0
    2.8858   -3.2808   -2.1429 C   0  0  0  0  0  0  0  0  0  0  0  0
    2.5919   -3.5313   -0.6668 C   0  0  0  0  0  0  0  0  0  0  0  0
    3.8674   -3.9683    0.1193 C   0  0  2  0  0  0  0  0  0  0  0  0
    3.6208   -4.5381    1.6082 C   0  0  2  0  0  0  0  0  0  0  0  0
    2.1822   -5.0792    1.7125 C   0  0  0  0  0  0  0  0  0  0  0  0
    4.4896   -5.8327    1.6866 C   0  0  0  0  0  0  0  0  0  0  0  0
    5.0881   -6.1953    3.0393 C   0  0  0  0  0  0  0  0  0  0  0  0
    4.1213   -6.1796    4.2125 C   0  0  0  0  0  0  0  0  0  0  0  0
    3.4087   -7.2951    4.4878 C   0  0  0  0  0  0  0  0  0  0  0  0
    2.4657   -7.4787    5.6447 C   0  0  0  0  0  0  0  0  0  0  0  0
    2.0899   -6.1643    6.3316 C   0  0  0  0  0  0  0  0  0  0  0  0
    3.2879   -5.2061    6.4230 C   0  0  0  0  0  0  0  0  0  0  0  0
    4.0815   -4.8950    5.0976 C   0  0  1  0  0  0  0  0  0  0  0  0
    6.5345   -6.4259    5.1959 H   0  0  0  0  0  0  0  0  0  0  0  0
    7.4980   -5.1371    6.0779 H   0  0  0  0  0  0  0  0  0  0  0  0
    5.4927   -3.4662    7.4781 H   0  0  0  0  0  0  0  0  0  0  0  0
    6.7374   -2.9504    6.3330 H   0  0  0  0  0  0  0  0  0  0  0  0
    4.9302   -1.2559    6.4441 H   0  0  0  0  0  0  0  0  0  0  0  0
    3.1835   -1.5246    4.8855 H   0  0  0  0  0  0  0  0  0  0  0  0
    1.4030   -4.5127    4.1069 H   0  0  0  0  0  0  0  0  0  0  0  0
    1.5148   -2.8067    3.7375 H   0  0  0  0  0  0  0  0  0  0  0  0
    1.5818   -3.3449    5.3873 H   0  0  0  0  0  0  0  0  0  0  0  0
    4.9982   -3.4568    2.8722 H   0  0  0  0  0  0  0  0  0  0  0  0
    2.5767   -2.1564    1.7600 H   0  0  0  0  0  0  0  0  0  0  0  0
    3.6449   -1.1973    2.8289 H   0  0  0  0  0  0  0  0  0  0  0  0
    4.0042   -0.9084    0.4449 H   0  0  0  0  0  0  0  0  0  0  0  0
    6.7902   -0.0964    2.8861 H   0  0  0  0  0  0  0  0  0  0  0  0
    5.6331   -1.2581    3.3597 H   0  0  0  0  0  0  0  0  0  0  0  0
    5.0030    0.3221    2.8349 H   0  0  0  0  0  0  0  0  0  0  0  0
    6.4396   -3.7950    1.3844 H   0  0  0  0  0  0  0  0  0  0  0  0
    7.1523   -2.6612    0.2877 H   0  0  0  0  0  0  0  0  0  0  0  0
    6.6377   -4.2180   -0.3077 H   0  0  0  0  0  0  0  0  0  0  0  0
    2.6130   -0.6162   -3.1892 H   0  0  0  0  0  0  0  0  0  0  0  0
    4.0473   -0.0213   -2.3672 H   0  0  0  0  0  0  0  0  0  0  0  0
    2.7070   -0.7076   -1.4286 H   0  0  0  0  0  0  0  0  0  0  0  0
    3.4850   -2.4151   -4.5619 H   0  0  0  0  0  0  0  0  0  0  0  0
    4.9506   -3.2558   -4.0184 H   0  0  0  0  0  0  0  0  0  0  0  0
    4.9317   -1.4764   -4.1978 H   0  0  0  0  0  0  0  0  0  0  0  0
    1.9515   -3.0662   -2.6673 H   0  0  0  0  0  0  0  0  0  0  0  0
    3.3115   -4.1781   -2.5760 H   0  0  0  0  0  0  0  0  0  0  0  0
    2.1402   -2.6509   -0.2228 H   0  0  0  0  0  0  0  0  0  0  0  0
    1.8376   -4.3150   -0.6821 H   0  0  0  0  0  0  0  0  0  0  0  0
    4.2340   -4.7980   -0.4967 H   0  0  0  0  0  0  0  0  0  0  0  0
    1.8909   -5.7185    0.8630 H   0  0  0  0  0  0  0  0  0  0  0  0
    1.5028   -4.2350    1.7885 H   0  0  0  0  0  0  0  0  0  0  0  0
    2.0596   -5.7220    2.5858 H   0  0  0  0  0  0  0  0  0  0  0  0
    3.9334   -6.7034    1.2992 H   0  0  0  0  0  0  0  0  0  0  0  0
    5.3495   -5.7820    1.0176 H   0  0  0  0  0  0  0  0  0  0  0  0
    5.5039   -7.2013    2.9651 H   0  0  0  0  0  0  0  0  0  0  0  0
    5.9474   -5.5422    3.1896 H   0  0  0  0  0  0  0  0  0  0  0  0
    3.5132   -8.1611    3.8509 H   0  0  0  0  0  0  0  0  0  0  0  0
    1.5666   -7.9772    5.2840 H   0  0  0  0  0  0  0  0  0  0  0  0
    2.9558   -8.1476    6.3536 H   0  0  0  0  0  0  0  0  0  0  0  0
    1.2407   -5.7179    5.8185 H   0  0  0  0  0  0  0  0  0  0  0  0
    1.7245   -6.3863    7.3340 H   0  0  0  0  0  0  0  0  0  0  0  0
    2.9918   -4.2849    6.9242 H   0  0  0  0  0  0  0  0  0  0  0  0
    3.9702   -5.6939    7.1249 H   0  0  0  0  0  0  0  0  0  0  0  0
  1  2  2  0
  1 33  1  0
  1 34  1  0
  2 32  1  0
  2  3  1  0
  3  4  1  0
  3 35  1  0
  3 36  1  0
  4  5  2  0
  4 37  1  0
  5  6  1  0
  5 38  1  0
  6 32  1  0
  6  7  1  6
  6  8  1  0
  7 39  1  0
  7 40  1  0
  7 41  1  0
  8 23  1  0
  8  9  1  0
  8 42  1  1
  9 10  1  0
  9 43  1  0
  9 44  1  0
 10 11  1  0
 10 13  1  0
 10 45  1  6
 11 12  1  0
 12 46  1  0
 12 47  1  0
 12 48  1  0
 13 22  1  0
 13 14  1  1
 13 15  1  0
 14 49  1  0
 14 50  1  0
 14 51  1  0
 15 16  2  0
 15 17  1  0
 17 18  1  0
 17 19  1  0
 17 20  1  0
 18 52  1  0
 18 53  1  0
 18 54  1  0
 19 55  1  0
 19 56  1  0
 19 57  1  0
 20 21  1  0
 20 58  1  0
 20 59  1  0
 21 22  1  0
 21 60  1  0
 21 61  1  0
 22 23  1  0
 22 62  1  6
 23 24  1  6
 23 25  1  0
 24 63  1  0
 24 64  1  0
 24 65  1  0
 25 26  1  0
 25 66  1  0
 25 67  1  0
 26 27  1  0
 26 68  1  0
 26 69  1  0
 27 32  1  0
 27 28  2  0
 28 29  1  0
 28 70  1  0
 29 30  1  0
 29 71  1  0
 29 72  1  0
 30 31  1  0
 30 73  1  0
 30 74  1  0
 32 31  1  1
 31 75  1  0
 31 76  1  0
M  END
>  <i_m_ct_stereo_status>  (9) 
1

>  <s_m_source_file>  (9) 
/var/tmp/pbs.5076255.sched01/tmp3z6s85wa/08w76y650.sdf

>  <i_m_source_file_index>  (9) 
6

>  <i_lp_mmshare_version>  (9) 
48012

>  <i_f3d_flags>  (9) 
1

>  <s_epik_input>  (9) 
W0NIMl09QzFbQ0gyXVtDSF09W0NIXVtDQEBdKFtDQF0xMjMpKFtDSDNdKVtDQEhdNFtDQEBdKFtDSDNdKShbQ0BASF01W0NAXShbQ0gzXSkoW0NAQEhdKFtDSDJdNClPW0NIM10pQyg9TylDKFtDSDNdKShbQ0gzXSlbQ0gyXVtDSDJdNSlbQ0gyXVtDSDJdQzI9W0NIXVtDSDJdW0NIMl1bQ0gyXTM=

>  <s_epik_cmdline>  (9) 
J2VwaWtfcHl0aG9uJywgJy1waHQnLCAnMi4wJywgJy1waCcsICc3LjAnLCAnLXRuJywgJzgnLCAnLW1hJywgJzIwMCcsICctaW1hZScsICc8aW5maWxlLm1hZT4nLCAnLW9tYWUnLCAnPG91dGZpbGUubWFlPic=

>  <r_lp_tautomer_probability>  (9) 
1

>  <r_epik_Ionization_Penalty>  (9) 
9.94988e-12

>  <r_epik_Ionization_Penalty_Charging>  (9) 
0

>  <r_epik_Ionization_Penalty_Neutral>  (9) 
9.94988e-12

>  <r_epik_State_Penalty>  (9) 
-0

>  <r_epik_Charging_Adjusted_Penalty>  (9) 
0

>  <i_epik_Tot_Q>  (9) 
0

>  <i_epik_Tot_abs_Q>  (9) 
0

>  <s_lp_Force_Field>  (9) 
OPLS3e

>  <r_lp_Energy>  (9) 
97.0836

>  <b_lp_Chiralities_Consistent>  (9) 
1

>  <s_lp_Variant>  (9) 
5:0-1

>  <s_i_glide_gridfile>  (9) 
pfpi4k_grid

>  <i_i_glide_lignum>  (9) 
6

>  <i_i_glide_rotatable_bonds>  (9) 
1

>  <r_i_docking_score>  (9) 
-2.22015

>  <r_i_glide_ligand_efficiency>  (9) 
-0.0693796

>  <r_i_glide_ligand_efficiency_sa>  (9) 
-0.220267

>  <r_i_glide_ligand_efficiency_ln>  (9) 
-0.497152

>  <r_i_glide_gscore>  (9) 
-2.22015

>  <r_i_glide_lipo>  (9) 
-0.30816

>  <r_i_glide_hbond>  (9) 
-0.119418

>  <r_i_glide_metal>  (9) 
-0

>  <r_i_glide_rewards>  (9) 
-0.431801

>  <r_i_glide_evdw>  (9) 
-17.1222

>  <r_i_glide_ecoul>  (9) 
-3.20311

>  <r_i_glide_erotb>  (9) 
0

>  <r_i_glide_esite>  (9) 
-0.0241912

>  <r_i_glide_emodel>  (9) 
-8.19962

>  <r_i_glide_energy>  (9) 
-20.3253

>  <r_i_glide_einternal>  (9) 
27.7061

>  <r_i_glide_intrahb_reward>  (9) 
-0

>  <i_i_glide_confnum>  (9) 
1

>  <i_i_glide_posenum>  (9) 
12

>  <r_i_glide_eff_state_penalty>  (9) 
0

>  <ligand_id>  (9) 
5

>  <original_smiles>  (9) 
C=C1CC=CC2(C)C3CC(OC)C4(C)C(=O)C(C)(C)CCC4C3(C)CCC3=CCCCC132

>  <smiles>  (9) 
[H]C([H])=C1C([H])([H])C([H])=C([H])C2(C([H])([H])[H])C13C(=C([H])C([H])([H])C([H])([H])C3([H])[H])C([H])([H])C([H])([H])C1(C([H])([H])[H])C3([H])C([H])([H])C([H])([H])C(C([H])([H])[H])(C([H])([H])[H])C(=O)C3(C([H])([H])[H])C([H])(OC([H])([H])[H])C([H])([H])C21[H]

$$$$
5:0:2
     RDKit          3D

 76 80  0  0  1  0  0  0  0  0999 V2000
    6.0468   -6.1884    4.8401 C   0  0  0  0  0  0  0  0  0  0  0  0
    4.9086   -5.4632    4.8633 C   0  0  0  0  0  0  0  0  0  0  0  0
    4.8923   -4.2626    5.8023 C   0  0  0  0  0  0  0  0  0  0  0  0
    3.9092   -3.2072    5.3905 C   0  0  0  0  0  0  0  0  0  0  0  0
    3.0624   -3.3330    4.3681 C   0  0  0  0  0  0  0  0  0  0  0  0
    2.8976   -4.5399    3.4387 C   0  0  1  0  0  0  0  0  0  0  0  0
    1.3504   -4.6464    3.3825 C   0  0  0  0  0  0  0  0  0  0  0  0
    3.5106   -4.1212    2.0019 C   0  0  2  0  0  0  0  0  0  0  0  0
    3.1633   -2.6495    1.5887 C   0  0  0  0  0  0  0  0  0  0  0  0
    4.0345   -2.0264    0.4821 C   0  0  1  0  0  0  0  0  0  0  0  0
    5.0568   -1.2583    1.1154 O   0  0  0  0  0  0  0  0  0  0  0  0
    5.2843    0.0008    0.5179 C   0  0  0  0  0  0  0  0  0  0  0  0
    4.6311   -3.0465   -0.5258 C   0  0  2  0  0  0  0  0  0  0  0  0
    6.0568   -3.5269   -0.0962 C   0  0  0  0  0  0  0  0  0  0  0  0
    4.8456   -2.3484   -1.8865 C   0  0  0  0  0  0  0  0  0  0  0  0
    5.9577   -1.8791   -2.1356 O   0  0  0  0  0  0  0  0  0  0  0  0
    3.7237   -2.1894   -2.9338 C   0  0  0  0  0  0  0  0  0  0  0  0
    2.9710   -0.8675   -2.7894 C   0  0  0  0  0  0  0  0  0  0  0  0
    4.3565   -2.1252   -4.3130 C   0  0  0  0  0  0  0  0  0  0  0  0
    2.7889   -3.4037   -2.9203 C   0  0  0  0  0  0  0  0  0  0  0  0
    2.3975   -3.8350   -1.5005 C   0  0  0  0  0  0  0  0  0  0  0  0
    3.6518   -4.2569   -0.6610 C   0  0  2  0  0  0  0  0  0  0  0  0
    3.3798   -5.0629    0.6994 C   0  0  2  0  0  0  0  0  0  0  0  0
    2.0086   -5.7766    0.6043 C   0  0  0  0  0  0  0  0  0  0  0  0
    4.3796   -6.2567    0.7012 C   0  0  0  0  0  0  0  0  0  0  0  0
    4.8809   -6.7446    2.0492 C   0  0  0  0  0  0  0  0  0  0  0  0
    3.8191   -6.9708    3.1152 C   0  0  0  0  0  0  0  0  0  0  0  0
    3.2077   -8.1716    3.1764 C   0  0  0  0  0  0  0  0  0  0  0  0
    2.1942   -8.6070    4.2091 C   0  0  0  0  0  0  0  0  0  0  0  0
    1.6312   -7.4378    5.0159 C   0  0  0  0  0  0  0  0  0  0  0  0
    2.7094   -6.3856    5.3346 C   0  0  0  0  0  0  0  0  0  0  0  0
    3.5721   -5.8288    4.1408 C   0  0  1  0  0  0  0  0  0  0  0  0
    6.1577   -7.1089    4.2869 H   0  0  0  0  0  0  0  0  0  0  0  0
    6.9057   -5.8679    5.4105 H   0  0  0  0  0  0  0  0  0  0  0  0
    4.6130   -4.5974    6.8026 H   0  0  0  0  0  0  0  0  0  0  0  0
    5.8831   -3.8128    5.8726 H   0  0  0  0  0  0  0  0  0  0  0  0
    3.9037   -2.3139    5.9948 H   0  0  0  0  0  0  0  0  0  0  0  0
    2.3665   -2.5209    4.2053 H   0  0  0  0  0  0  0  0  0  0  0  0
    0.9677   -5.5633    2.9533 H   0  0  0  0  0  0  0  0  0  0  0  0
    0.9159   -3.8079    2.8470 H   0  0  0  0  0  0  0  0  0  0  0  0
    0.9168   -4.5838    4.3826 H   0  0  0  0  0  0  0  0  0  0  0  0
    4.5680   -4.0466    2.2363 H   0  0  0  0  0  0  0  0  0  0  0  0
    2.1244   -2.6173    1.2572 H   0  0  0  0  0  0  0  0  0  0  0  0
    3.2433   -1.9196    2.3938 H   0  0  0  0  0  0  0  0  0  0  0  0
    3.3736   -1.3337   -0.0404 H   0  0  0  0  0  0  0  0  0  0  0  0
    6.0886    0.5048    1.0364 H   0  0  0  0  0  0  0  0  0  0  0  0
    4.4022    0.6425    0.5421 H   0  0  0  0  0  0  0  0  0  0  0  0
    5.6197   -0.1024   -0.5041 H   0  0  0  0  0  0  0  0  0  0  0  0
    6.1010   -4.0358    0.8570 H   0  0  0  0  0  0  0  0  0  0  0  0
    6.7677   -2.7009   -0.0133 H   0  0  0  0  0  0  0  0  0  0  0  0
    6.4779   -4.2019   -0.8441 H   0  0  0  0  0  0  0  0  0  0  0  0
    2.3864   -0.6318   -3.6794 H   0  0  0  0  0  0  0  0  0  0  0  0
    3.6507   -0.0370   -2.6303 H   0  0  0  0  0  0  0  0  0  0  0  0
    2.3026   -0.9514   -1.9514 H   0  0  0  0  0  0  0  0  0  0  0  0
    3.5662   -2.0950   -5.0748 H   0  0  0  0  0  0  0  0  0  0  0  0
    5.0180   -2.9950   -4.4357 H   0  0  0  0  0  0  0  0  0  0  0  0
    4.9462   -1.2155   -4.4562 H   0  0  0  0  0  0  0  0  0  0  0  0
    1.8944   -3.1864   -3.5109 H   0  0  0  0  0  0  0  0  0  0  0  0
    3.2876   -4.2185   -3.4644 H   0  0  0  0  0  0  0  0  0  0  0  0
    1.8527   -3.0369   -1.0113 H   0  0  0  0  0  0  0  0  0  0  0  0
    1.6776   -4.6468   -1.6398 H   0  0  0  0  0  0  0  0  0  0  0  0
    4.2048   -4.9275   -1.3201 H   0  0  0  0  0  0  0  0  0  0  0  0
    1.8829   -6.2628   -0.3589 H   0  0  0  0  0  0  0  0  0  0  0  0
    1.2139   -5.0674    0.6866 H   0  0  0  0  0  0  0  0  0  0  0  0
    1.8972   -6.5463    1.3679 H   0  0  0  0  0  0  0  0  0  0  0  0
    3.9482   -7.0953    0.1519 H   0  0  0  0  0  0  0  0  0  0  0  0
    5.2800   -6.0329    0.1298 H   0  0  0  0  0  0  0  0  0  0  0  0
    5.3953   -7.6916    1.8826 H   0  0  0  0  0  0  0  0  0  0  0  0
    5.6502   -6.0456    2.3669 H   0  0  0  0  0  0  0  0  0  0  0  0
    3.4580   -8.9372    2.4526 H   0  0  0  0  0  0  0  0  0  0  0  0
    1.3819   -9.1388    3.7124 H   0  0  0  0  0  0  0  0  0  0  0  0
    2.6842   -9.3222    4.8708 H   0  0  0  0  0  0  0  0  0  0  0  0
    0.7837   -7.0078    4.4870 H   0  0  0  0  0  0  0  0  0  0  0  0
    1.2079   -7.8255    5.9443 H   0  0  0  0  0  0  0  0  0  0  0  0
    2.2731   -5.5769    5.9225 H   0  0  0  0  0  0  0  0  0  0  0  0
    3.3758   -6.8949    6.0340 H   0  0  0  0  0  0  0  0  0  0  0  0
  1  2  2  0
  1 33  1  0
  1 34  1  0
  2 32  1  0
  2  3  1  0
  3  4  1  0
  3 35  1  0
  3 36  1  0
  4  5  2  0
  4 37  1  0
  5  6  1  0
  5 38  1  0
  6 32  1  0
  6  7  1  6
  6  8  1  0
  7 39  1  0
  7 40  1  0
  7 41  1  0
  8 23  1  0
  8  9  1  0
  8 42  1  1
  9 10  1  0
  9 43  1  0
  9 44  1  0
 10 11  1  0
 10 13  1  0
 10 45  1  6
 11 12  1  0
 12 46  1  0
 12 47  1  0
 12 48  1  0
 13 22  1  0
 13 14  1  1
 13 15  1  0
 14 49  1  0
 14 50  1  0
 14 51  1  0
 15 16  2  0
 15 17  1  0
 17 18  1  0
 17 19  1  0
 17 20  1  0
 18 52  1  0
 18 53  1  0
 18 54  1  0
 19 55  1  0
 19 56  1  0
 19 57  1  0
 20 21  1  0
 20 58  1  0
 20 59  1  0
 21 22  1  0
 21 60  1  0
 21 61  1  0
 22 23  1  0
 22 62  1  6
 23 24  1  6
 23 25  1  0
 24 63  1  0
 24 64  1  0
 24 65  1  0
 25 26  1  0
 25 66  1  0
 25 67  1  0
 26 27  1  0
 26 68  1  0
 26 69  1  0
 27 32  1  0
 27 28  2  0
 28 29  1  0
 28 70  1  0
 29 30  1  0
 29 71  1  0
 29 72  1  0
 30 31  1  0
 30 73  1  0
 30 74  1  0
 32 31  1  1
 31 75  1  0
 31 76  1  0
M  END
>  <i_m_ct_stereo_status>  (10) 
1

>  <s_m_source_file>  (10) 
/var/tmp/pbs.5076255.sched01/tmp3z6s85wa/08w76y650.sdf

>  <i_m_source_file_index>  (10) 
6

>  <i_lp_mmshare_version>  (10) 
48012

>  <i_f3d_flags>  (10) 
1

>  <s_epik_input>  (10) 
W0NIMl09QzFbQ0gyXVtDSF09W0NIXVtDQEBdKFtDQF0xMjMpKFtDSDNdKVtDQEhdNFtDQEBdKFtDSDNdKShbQ0BASF01W0NAXShbQ0gzXSkoW0NAQEhdKFtDSDJdNClPW0NIM10pQyg9TylDKFtDSDNdKShbQ0gzXSlbQ0gyXVtDSDJdNSlbQ0gyXVtDSDJdQzI9W0NIXVtDSDJdW0NIMl1bQ0gyXTM=

>  <s_epik_cmdline>  (10) 
J2VwaWtfcHl0aG9uJywgJy1waHQnLCAnMi4wJywgJy1waCcsICc3LjAnLCAnLXRuJywgJzgnLCAnLW1hJywgJzIwMCcsICctaW1hZScsICc8aW5maWxlLm1hZT4nLCAnLW9tYWUnLCAnPG91dGZpbGUubWFlPic=

>  <r_lp_tautomer_probability>  (10) 
1

>  <r_epik_Ionization_Penalty>  (10) 
9.94988e-12

>  <r_epik_Ionization_Penalty_Charging>  (10) 
0

>  <r_epik_Ionization_Penalty_Neutral>  (10) 
9.94988e-12

>  <r_epik_State_Penalty>  (10) 
-0

>  <r_epik_Charging_Adjusted_Penalty>  (10) 
0

>  <i_epik_Tot_Q>  (10) 
0

>  <i_epik_Tot_abs_Q>  (10) 
0

>  <s_lp_Force_Field>  (10) 
OPLS3e

>  <r_lp_Energy>  (10) 
97.0836

>  <b_lp_Chiralities_Consistent>  (10) 
1

>  <s_lp_Variant>  (10) 
5:0-1

>  <s_i_glide_gridfile>  (10) 
pfpi4k_grid

>  <i_i_glide_lignum>  (10) 
6

>  <i_i_glide_rotatable_bonds>  (10) 
1

>  <r_i_docking_score>  (10) 
-1.96518

>  <r_i_glide_ligand_efficiency>  (10) 
-0.0614118

>  <r_i_glide_ligand_efficiency_sa>  (10) 
-0.19497

>  <r_i_glide_ligand_efficiency_ln>  (10) 
-0.440057

>  <r_i_glide_gscore>  (10) 
-1.96518

>  <r_i_glide_lipo>  (10) 
-0.482793

>  <r_i_glide_hbond>  (10) 
-0.0559798

>  <r_i_glide_metal>  (10) 
-0

>  <r_i_glide_rewards>  (10) 
-0.431801

>  <r_i_glide_evdw>  (10) 
-12.8997

>  <r_i_glide_ecoul>  (10) 
-2.30487

>  <r_i_glide_erotb>  (10) 
0

>  <r_i_glide_esite>  (10) 
-0.00388825

>  <r_i_glide_emodel>  (10) 
-16.9259

>  <r_i_glide_energy>  (10) 
-15.2046

>  <r_i_glide_einternal>  (10) 
0.523127

>  <r_i_glide_intrahb_reward>  (10) 
-0

>  <i_i_glide_confnum>  (10) 
2

>  <i_i_glide_posenum>  (10) 
17

>  <r_i_glide_eff_state_penalty>  (10) 
0

>  <ligand_id>  (10) 
5

>  <original_smiles>  (10) 
C=C1CC=CC2(C)C3CC(OC)C4(C)C(=O)C(C)(C)CCC4C3(C)CCC3=CCCCC132

>  <smiles>  (10) 
[H]C([H])=C1C([H])([H])C([H])=C([H])C2(C([H])([H])[H])C13C(=C([H])C([H])([H])C([H])([H])C3([H])[H])C([H])([H])C([H])([H])C1(C([H])([H])[H])C3([H])C([H])([H])C([H])([H])C(C([H])([H])[H])(C([H])([H])[H])C(=O)C3(C([H])([H])[H])C([H])(OC([H])([H])[H])C([H])([H])C21[H]

$$$$
6:0:0
     RDKit          3D

 54 58  0  0  1  0  0  0  0  0999 V2000
    3.8489   -1.8905   -3.9947 C   0  0  0  0  0  0  0  0  0  0  0  0
    4.2707   -2.0425   -2.7298 C   0  0  0  0  0  0  0  0  0  0  0  0
    4.0741   -1.2018   -1.5954 C   0  0  0  0  0  0  0  0  0  0  0  0
    4.6724   -1.7981   -0.5390 C   0  0  0  0  0  0  0  0  0  0  0  0
    4.6024   -1.6329    0.9551 C   0  0  1  0  0  0  0  0  0  0  0  0
    5.0528   -0.2629    1.4477 C   0  0  0  0  0  0  0  0  0  0  0  0
    3.2131   -2.0200    1.5034 C   0  0  1  0  0  0  0  0  0  0  0  0
    2.2326   -0.9930    1.4811 O   0  0  0  0  0  0  0  0  0  0  0  0
    2.6587   -3.3104    0.8584 C   0  0  1  0  0  0  0  0  0  0  0  0
    2.1657   -3.0770   -0.4433 O   0  0  0  0  0  0  0  0  0  0  0  0
    3.6912   -4.4541    0.6377 C   0  0  2  0  0  0  0  0  0  0  0  0
    3.5142   -5.6111    1.6995 C   0  0  0  0  0  0  0  0  0  0  0  0
    3.5833   -5.0958    3.1528 C   0  0  0  0  0  0  0  0  0  0  0  0
    2.1295   -6.2859    1.5205 C   0  0  0  0  0  0  0  0  0  0  0  0
    4.5928   -6.7132    1.5616 C   0  0  1  0  0  0  0  0  0  0  0  0
    4.3697   -7.5770    0.4761 O   0  0  0  0  0  0  0  0  0  0  0  0
    6.0015   -6.1439    1.4362 C   0  0  0  0  0  0  0  0  0  0  0  0
    6.0879   -5.1849    0.2637 C   0  0  0  0  0  0  0  0  0  0  0  0
    5.1721   -3.9464    0.3720 C   0  0  2  0  0  0  0  0  0  0  0  0
    5.5922   -2.7921    1.3424 C   0  0  1  0  0  0  0  0  0  0  0  0
    7.0323   -2.4652    0.8675 C   0  0  0  0  0  0  0  0  0  0  0  0
    6.9052   -2.4699   -0.6678 C   0  0  1  0  0  0  0  0  0  0  0  0
    7.9553   -3.1744   -1.2815 O   0  0  0  0  0  0  0  0  0  0  0  0
    5.4738   -3.0150   -0.8527 C   0  0  2  0  0  0  0  0  0  0  0  0
    5.0044   -3.2193   -2.2855 C   0  0  0  0  0  0  0  0  0  0  0  0
    5.3042   -4.1869   -2.9763 O   0  0  0  0  0  0  0  0  0  0  0  0
    4.0891   -2.6847   -4.6876 H   0  0  0  0  0  0  0  0  0  0  0  0
    3.2943   -1.0383   -4.3519 H   0  0  0  0  0  0  0  0  0  0  0  0
    3.3943   -0.3805   -1.6021 H   0  0  0  0  0  0  0  0  0  0  0  0
    5.2080   -0.2666    2.5237 H   0  0  0  0  0  0  0  0  0  0  0  0
    4.3050    0.5018    1.2270 H   0  0  0  0  0  0  0  0  0  0  0  0
    5.9704    0.0753    0.9655 H   0  0  0  0  0  0  0  0  0  0  0  0
    3.3630   -2.2019    2.5656 H   0  0  0  0  0  0  0  0  0  0  0  0
    1.8715   -0.8629    0.6058 H   0  0  0  0  0  0  0  0  0  0  0  0
    1.8377   -3.6200    1.5032 H   0  0  0  0  0  0  0  0  0  0  0  0
    1.6219   -2.3058   -0.4738 H   0  0  0  0  0  0  0  0  0  0  0  0
    3.4054   -4.9336   -0.3010 H   0  0  0  0  0  0  0  0  0  0  0  0
    3.4567   -5.9194    3.8570 H   0  0  0  0  0  0  0  0  0  0  0  0
    2.8124   -4.3616    3.3899 H   0  0  0  0  0  0  0  0  0  0  0  0
    4.5466   -4.6511    3.3815 H   0  0  0  0  0  0  0  0  0  0  0  0
    2.0719   -7.2196    2.0842 H   0  0  0  0  0  0  0  0  0  0  0  0
    1.9369   -6.5415    0.4789 H   0  0  0  0  0  0  0  0  0  0  0  0
    1.2977   -5.6667    1.8555 H   0  0  0  0  0  0  0  0  0  0  0  0
    4.5709   -7.3506    2.4435 H   0  0  0  0  0  0  0  0  0  0  0  0
    4.3681   -7.0630   -0.3239 H   0  0  0  0  0  0  0  0  0  0  0  0
    6.2918   -5.6111    2.3416 H   0  0  0  0  0  0  0  0  0  0  0  0
    6.7267   -6.9544    1.3000 H   0  0  0  0  0  0  0  0  0  0  0  0
    7.1440   -4.9709    0.1179 H   0  0  0  0  0  0  0  0  0  0  0  0
    5.7802   -5.7141   -0.6324 H   0  0  0  0  0  0  0  0  0  0  0  0
    5.5718   -3.0448    2.4049 H   0  0  0  0  0  0  0  0  0  0  0  0
    7.4053   -1.5214    1.2569 H   0  0  0  0  0  0  0  0  0  0  0  0
    7.7352   -3.2251    1.2093 H   0  0  0  0  0  0  0  0  0  0  0  0
    6.9493   -1.4561   -1.0324 H   0  0  0  0  0  0  0  0  0  0  0  0
    7.8814   -3.0980   -2.2271 H   0  0  0  0  0  0  0  0  0  0  0  0
  1  2  2  0
  1 27  1  0
  1 28  1  0
  2 25  1  0
  2  3  1  0
  3  4  2  0
  3 29  1  0
  4 24  1  0
  4  5  1  0
  5 20  1  0
  5  6  1  6
  5  7  1  0
  6 30  1  0
  6 31  1  0
  6 32  1  0
  7  8  1  0
  7  9  1  0
  7 33  1  1
  8 34  1  0
  9 10  1  0
  9 11  1  0
  9 35  1  1
 10 36  1  0
 11 19  1  0
 11 12  1  0
 11 37  1  6
 12 13  1  0
 12 14  1  0
 12 15  1  0
 13 38  1  0
 13 39  1  0
 13 40  1  0
 14 41  1  0
 14 42  1  0
 14 43  1  0
 15 16  1  0
 15 17  1  0
 15 44  1  1
 16 45  1  0
 17 18  1  0
 17 46  1  0
 17 47  1  0
 19 18  1  6
 18 48  1  0
 18 49  1  0
 19 24  1  0
 19 20  1  0
 20 21  1  0
 20 50  1  1
 21 22  1  0
 21 51  1  0
 21 52  1  0
 22 23  1  0
 22 24  1  0
 22 53  1  6
 23 54  1  0
 24 25  1  6
 25 26  2  0
M  END
>  <i_m_ct_stereo_status>  (11) 
1

>  <s_m_source_file>  (11) 
/var/tmp/pbs.5076255.sched01/tmp3z6s85wa/08w76y650.sdf

>  <i_m_source_file_index>  (11) 
7

>  <i_lp_mmshare_version>  (11) 
48012

>  <i_f3d_flags>  (11) 
0

>  <s_epik_input>  (11) 
Tz1DMUMoPVtDSDJdKVtDSF09QyhbQ0BAXTEyW0NAQF0zNDUpW0NAXShbQ0gzXSkoW0NAQEhdNVtDSDJdW0NASF0yW09IXSlbQ0BASF0oW09IXSlbQ0BASF0oW09IXSlbQ0BASF0zQyhbQ0gzXSkoW0NIM10pW0NAQEhdKFtPSF0pW0NIMl1bQ0gyXTQ=

>  <s_epik_cmdline>  (11) 
J2VwaWtfcHl0aG9uJywgJy1waHQnLCAnMi4wJywgJy1waCcsICc3LjAnLCAnLXRuJywgJzgnLCAnLW1hJywgJzIwMCcsICctaW1hZScsICc8aW5maWxlLm1hZT4nLCAnLW9tYWUnLCAnPG91dGZpbGUubWFlPic=

>  <r_lp_tautomer_probability>  (11) 
1

>  <r_epik_Ionization_Penalty>  (11) 
9.19297e-07

>  <r_epik_Ionization_Penalty_Charging>  (11) 
0

>  <r_epik_Ionization_Penalty_Neutral>  (11) 
9.19297e-07

>  <r_epik_State_Penalty>  (11) 
-0

>  <r_epik_Charging_Adjusted_Penalty>  (11) 
0

>  <i_epik_Tot_Q>  (11) 
0

>  <i_epik_Tot_abs_Q>  (11) 
0

>  <s_lp_Force_Field>  (11) 
OPLS3e

>  <r_lp_Energy>  (11) 
76.8716

>  <b_lp_Chiralities_Consistent>  (11) 
1

>  <s_lp_Variant>  (11) 
6:0-1

>  <s_i_glide_gridfile>  (11) 
pfpi4k_grid

>  <i_i_glide_lignum>  (11) 
7

>  <i_i_glide_rotatable_bonds>  (11) 
4

>  <r_i_docking_score>  (11) 
-3.98679

>  <r_i_glide_ligand_efficiency>  (11) 
-0.153338

>  <r_i_glide_ligand_efficiency_sa>  (11) 
-0.454264

>  <r_i_glide_ligand_efficiency_ln>  (11) 
-0.936286

>  <r_i_glide_gscore>  (11) 
-3.98679

>  <r_i_glide_lipo>  (11) 
-0.765169

>  <r_i_glide_hbond>  (11) 
0

>  <r_i_glide_metal>  (11) 
-0

>  <r_i_glide_rewards>  (11) 
-1.13392

>  <r_i_glide_evdw>  (11) 
-23.5338

>  <r_i_glide_ecoul>  (11) 
-6.07344

>  <r_i_glide_erotb>  (11) 
0

>  <r_i_glide_esite>  (11) 
0

>  <r_i_glide_emodel>  (11) 
-33.6044

>  <r_i_glide_energy>  (11) 
-29.6072

>  <r_i_glide_einternal>  (11) 
1.85261

>  <r_i_glide_intrahb_reward>  (11) 
-0

>  <i_i_glide_confnum>  (11) 
2

>  <i_i_glide_posenum>  (11) 
18

>  <r_i_glide_eff_state_penalty>  (11) 
0

>  <ligand_id>  (11) 
6

>  <original_smiles>  (11) 
C=C1C=C2C3(C)C(O)C(O)C4C(C)(C)C(O)CCC45C3CC(O)C25C1=O

>  <smiles>  (11) 
[H]OC1([H])C([H])([H])C2([H])C3(C([H])([H])[H])C4=C([H])C(=C([H])[H])C(=O)C41C21C([H])([H])C([H])([H])C([H])(O[H])C(C([H])([H])[H])(C([H])([H])[H])C1([H])C([H])(O[H])C3([H])O[H]

$$$$
6:0:1
     RDKit          3D

 54 58  0  0  1  0  0  0  0  0999 V2000
    3.8237   -1.8901   -3.9591 C   0  0  0  0  0  0  0  0  0  0  0  0
    4.2657   -2.0614   -2.7070 C   0  0  0  0  0  0  0  0  0  0  0  0
    4.0793   -1.2109   -1.5477 C   0  0  0  0  0  0  0  0  0  0  0  0
    4.6799   -1.7885   -0.4996 C   0  0  0  0  0  0  0  0  0  0  0  0
    4.6370   -1.6516    1.0091 C   0  0  1  0  0  0  0  0  0  0  0  0
    5.1005   -0.2675    1.4912 C   0  0  0  0  0  0  0  0  0  0  0  0
    3.2543   -2.0379    1.5681 C   0  0  1  0  0  0  0  0  0  0  0  0
    2.2789   -0.9999    1.5613 O   0  0  0  0  0  0  0  0  0  0  0  0
    2.6849   -3.3058    0.9019 C   0  0  1  0  0  0  0  0  0  0  0  0
    2.1369   -3.0563   -0.3815 O   0  0  0  0  0  0  0  0  0  0  0  0
    3.7055   -4.4630    0.6776 C   0  0  2  0  0  0  0  0  0  0  0  0
    3.5394   -5.6322    1.7366 C   0  0  0  0  0  0  0  0  0  0  0  0
    3.6393   -5.1273    3.1941 C   0  0  0  0  0  0  0  0  0  0  0  0
    2.1485   -6.3044    1.5673 C   0  0  0  0  0  0  0  0  0  0  0  0
    4.6173   -6.7407    1.5856 C   0  0  1  0  0  0  0  0  0  0  0  0
    4.3561   -7.6089    0.4937 O   0  0  0  0  0  0  0  0  0  0  0  0
    6.0292   -6.1816    1.4407 C   0  0  0  0  0  0  0  0  0  0  0  0
    6.0987   -5.2195    0.2664 C   0  0  0  0  0  0  0  0  0  0  0  0
    5.1900   -3.9563    0.3970 C   0  0  2  0  0  0  0  0  0  0  0  0
    5.6374   -2.8202    1.3682 C   0  0  1  0  0  0  0  0  0  0  0  0
    7.0684   -2.4945    0.8711 C   0  0  0  0  0  0  0  0  0  0  0  0
    6.9204   -2.4736   -0.6557 C   0  0  1  0  0  0  0  0  0  0  0  0
    7.9664   -3.1969   -1.2985 O   0  0  0  0  0  0  0  0  0  0  0  0
    5.4747   -3.0100   -0.8174 C   0  0  2  0  0  0  0  0  0  0  0  0
    4.9929   -3.2516   -2.2699 C   0  0  0  0  0  0  0  0  0  0  0  0
    5.2374   -4.2416   -2.9477 O   0  0  0  0  0  0  0  0  0  0  0  0
    4.0336   -2.6392   -4.7088 H   0  0  0  0  0  0  0  0  0  0  0  0
    3.2677   -1.0184   -4.2681 H   0  0  0  0  0  0  0  0  0  0  0  0
    3.4094   -0.3931   -1.5259 H   0  0  0  0  0  0  0  0  0  0  0  0
    5.2758   -0.2934    2.5690 H   0  0  0  0  0  0  0  0  0  0  0  0
    4.3546    0.4940    1.2903 H   0  0  0  0  0  0  0  0  0  0  0  0
    6.0198    0.0559    1.0004 H   0  0  0  0  0  0  0  0  0  0  0  0
    3.4221   -2.2330    2.6299 H   0  0  0  0  0  0  0  0  0  0  0  0
    1.9645   -0.8402    0.6820 H   0  0  0  0  0  0  0  0  0  0  0  0
    1.8693   -3.6181    1.5335 H   0  0  0  0  0  0  0  0  0  0  0  0
    1.7181   -2.1583   -0.4020 H   0  0  0  0  0  0  0  0  0  0  0  0
    3.4179   -4.9482   -0.2569 H   0  0  0  0  0  0  0  0  0  0  0  0
    3.5158   -5.9583    3.8893 H   0  0  0  0  0  0  0  0  0  0  0  0
    2.8754   -4.3917    3.4407 H   0  0  0  0  0  0  0  0  0  0  0  0
    4.6138   -4.6858    3.4070 H   0  0  0  0  0  0  0  0  0  0  0  0
    2.1012   -7.2379    2.1266 H   0  0  0  0  0  0  0  0  0  0  0  0
    1.9521   -6.5459    0.5181 H   0  0  0  0  0  0  0  0  0  0  0  0
    1.3328   -5.6779    1.9208 H   0  0  0  0  0  0  0  0  0  0  0  0
    4.6015   -7.3816    2.4598 H   0  0  0  0  0  0  0  0  0  0  0  0
    4.8604   -8.3991    0.6108 H   0  0  0  0  0  0  0  0  0  0  0  0
    6.3393   -5.6526    2.3445 H   0  0  0  0  0  0  0  0  0  0  0  0
    6.7516   -6.9873    1.2776 H   0  0  0  0  0  0  0  0  0  0  0  0
    7.1473   -5.0010    0.1030 H   0  0  0  0  0  0  0  0  0  0  0  0
    5.7704   -5.7405   -0.6358 H   0  0  0  0  0  0  0  0  0  0  0  0
    5.6225   -3.0764    2.4217 H   0  0  0  0  0  0  0  0  0  0  0  0
    7.4419   -1.5527    1.2792 H   0  0  0  0  0  0  0  0  0  0  0  0
    7.7706   -3.2647    1.2050 H   0  0  0  0  0  0  0  0  0  0  0  0
    6.9698   -1.4611   -1.0197 H   0  0  0  0  0  0  0  0  0  0  0  0
    7.8662   -3.1130   -2.2369 H   0  0  0  0  0  0  0  0  0  0  0  0
  1  2  2  0
  1 27  1  0
  1 28  1  0
  2 25  1  0
  2  3  1  0
  3  4  2  0
  3 29  1  0
  4 24  1  0
  4  5  1  0
  5 20  1  0
  5  6  1  6
  5  7  1  0
  6 30  1  0
  6 31  1  0
  6 32  1  0
  7  8  1  0
  7  9  1  0
  7 33  1  1
  8 34  1  0
  9 10  1  0
  9 11  1  0
  9 35  1  1
 10 36  1  0
 11 19  1  0
 11 12  1  0
 11 37  1  6
 12 13  1  0
 12 14  1  0
 12 15  1  0
 13 38  1  0
 13 39  1  0
 13 40  1  0
 14 41  1  0
 14 42  1  0
 14 43  1  0
 15 16  1  0
 15 17  1  0
 15 44  1  1
 16 45  1  0
 17 18  1  0
 17 46  1  0
 17 47  1  0
 19 18  1  6
 18 48  1  0
 18 49  1  0
 19 24  1  0
 19 20  1  0
 20 21  1  0
 20 50  1  1
 21 22  1  0
 21 51  1  0
 21 52  1  0
 22 23  1  0
 22 24  1  0
 22 53  1  6
 23 54  1  0
 24 25  1  6
 25 26  2  0
M  END
>  <i_m_ct_stereo_status>  (12) 
1

>  <s_m_source_file>  (12) 
/var/tmp/pbs.5076255.sched01/tmp3z6s85wa/08w76y650.sdf

>  <i_m_source_file_index>  (12) 
7

>  <i_lp_mmshare_version>  (12) 
48012

>  <i_f3d_flags>  (12) 
0

>  <s_epik_input>  (12) 
Tz1DMUMoPVtDSDJdKVtDSF09QyhbQ0BAXTEyW0NAQF0zNDUpW0NAXShbQ0gzXSkoW0NAQEhdNVtDSDJdW0NASF0yW09IXSlbQ0BASF0oW09IXSlbQ0BASF0oW09IXSlbQ0BASF0zQyhbQ0gzXSkoW0NIM10pW0NAQEhdKFtPSF0pW0NIMl1bQ0gyXTQ=

>  <s_epik_cmdline>  (12) 
J2VwaWtfcHl0aG9uJywgJy1waHQnLCAnMi4wJywgJy1waCcsICc3LjAnLCAnLXRuJywgJzgnLCAnLW1hJywgJzIwMCcsICctaW1hZScsICc8aW5maWxlLm1hZT4nLCAnLW9tYWUnLCAnPG91dGZpbGUubWFlPic=

>  <r_lp_tautomer_probability>  (12) 
1

>  <r_epik_Ionization_Penalty>  (12) 
9.19297e-07

>  <r_epik_Ionization_Penalty_Charging>  (12) 
0

>  <r_epik_Ionization_Penalty_Neutral>  (12) 
9.19297e-07

>  <r_epik_State_Penalty>  (12) 
-0

>  <r_epik_Charging_Adjusted_Penalty>  (12) 
0

>  <i_epik_Tot_Q>  (12) 
0

>  <i_epik_Tot_abs_Q>  (12) 
0

>  <s_lp_Force_Field>  (12) 
OPLS3e

>  <r_lp_Energy>  (12) 
76.8716

>  <b_lp_Chiralities_Consistent>  (12) 
1

>  <s_lp_Variant>  (12) 
6:0-1

>  <s_i_glide_gridfile>  (12) 
pfpi4k_grid

>  <i_i_glide_lignum>  (12) 
7

>  <i_i_glide_rotatable_bonds>  (12) 
4

>  <r_i_docking_score>  (12) 
-3.90164

>  <r_i_glide_ligand_efficiency>  (12) 
-0.150063

>  <r_i_glide_ligand_efficiency_sa>  (12) 
-0.444561

>  <r_i_glide_ligand_efficiency_ln>  (12) 
-0.916287

>  <r_i_glide_gscore>  (12) 
-3.90164

>  <r_i_glide_lipo>  (12) 
-0.801079

>  <r_i_glide_hbond>  (12) 
0

>  <r_i_glide_metal>  (12) 
-0

>  <r_i_glide_rewards>  (12) 
-1.12962

>  <r_i_glide_evdw>  (12) 
-22.7512

>  <r_i_glide_ecoul>  (12) 
-5.55588

>  <r_i_glide_erotb>  (12) 
0

>  <r_i_glide_esite>  (12) 
0

>  <r_i_glide_emodel>  (12) 
-32.3539

>  <r_i_glide_energy>  (12) 
-28.3071

>  <r_i_glide_einternal>  (12) 
2.33354

>  <r_i_glide_intrahb_reward>  (12) 
-0

>  <i_i_glide_confnum>  (12) 
1

>  <i_i_glide_posenum>  (12) 
19

>  <r_i_glide_eff_state_penalty>  (12) 
0

>  <ligand_id>  (12) 
6

>  <original_smiles>  (12) 
C=C1C=C2C3(C)C(O)C(O)C4C(C)(C)C(O)CCC45C3CC(O)C25C1=O

>  <smiles>  (12) 
[H]OC1([H])C([H])([H])C2([H])C3(C([H])([H])[H])C4=C([H])C(=C([H])[H])C(=O)C41C21C([H])([H])C([H])([H])C([H])(O[H])C(C([H])([H])[H])(C([H])([H])[H])C1([H])C([H])(O[H])C3([H])O[H]

$$$$
6:0:2
     RDKit          3D

 54 58  0  0  1  0  0  0  0  0999 V2000
    3.8350   -1.8929   -3.9582 C   0  0  0  0  0  0  0  0  0  0  0  0
    4.2719   -2.0478   -2.7065 C   0  0  0  0  0  0  0  0  0  0  0  0
    4.0851   -1.2100   -1.5545 C   0  0  0  0  0  0  0  0  0  0  0  0
    4.6951   -1.8080   -0.5174 C   0  0  0  0  0  0  0  0  0  0  0  0
    4.6315   -1.6447    0.9809 C   0  0  1  0  0  0  0  0  0  0  0  0
    5.0908   -0.2682    1.4789 C   0  0  0  0  0  0  0  0  0  0  0  0
    3.2513   -2.0336    1.5498 C   0  0  1  0  0  0  0  0  0  0  0  0
    2.2644   -1.0070    1.5404 O   0  0  0  0  0  0  0  0  0  0  0  0
    2.6800   -3.3153    0.9013 C   0  0  1  0  0  0  0  0  0  0  0  0
    2.1842   -3.0775   -0.3908 O   0  0  0  0  0  0  0  0  0  0  0  0
    3.7130   -4.4635    0.6643 C   0  0  2  0  0  0  0  0  0  0  0  0
    3.5424   -5.6270    1.7245 C   0  0  0  0  0  0  0  0  0  0  0  0
    3.6285   -5.1178    3.1811 C   0  0  0  0  0  0  0  0  0  0  0  0
    2.1492   -6.3002    1.5584 C   0  0  0  0  0  0  0  0  0  0  0  0
    4.6164   -6.7303    1.5726 C   0  0  1  0  0  0  0  0  0  0  0  0
    4.3729   -7.5885    0.4749 O   0  0  0  0  0  0  0  0  0  0  0  0
    6.0259   -6.1685    1.4307 C   0  0  0  0  0  0  0  0  0  0  0  0
    6.1010   -5.2045    0.2640 C   0  0  0  0  0  0  0  0  0  0  0  0
    5.1920   -3.9463    0.3847 C   0  0  2  0  0  0  0  0  0  0  0  0
    5.6262   -2.8055    1.3646 C   0  0  1  0  0  0  0  0  0  0  0  0
    7.0617   -2.4799    0.8744 C   0  0  0  0  0  0  0  0  0  0  0  0
    6.9254   -2.4686   -0.6548 C   0  0  1  0  0  0  0  0  0  0  0  0
    7.9756   -3.2022   -1.2725 O   0  0  0  0  0  0  0  0  0  0  0  0
    5.5011   -3.0327   -0.8338 C   0  0  2  0  0  0  0  0  0  0  0  0
    5.0003   -3.2328   -2.2750 C   0  0  0  0  0  0  0  0  0  0  0  0
    5.2329   -4.2251   -2.9325 O   0  0  0  0  0  0  0  0  0  0  0  0
    4.0520   -2.6685   -4.6681 H   0  0  0  0  0  0  0  0  0  0  0  0
    3.2651   -1.0317   -4.2920 H   0  0  0  0  0  0  0  0  0  0  0  0
    3.4044   -0.3942   -1.5549 H   0  0  0  0  0  0  0  0  0  0  0  0
    5.2623   -0.2788    2.5561 H   0  0  0  0  0  0  0  0  0  0  0  0
    4.3447    0.5046    1.2745 H   0  0  0  0  0  0  0  0  0  0  0  0
    6.0052    0.0643    0.9909 H   0  0  0  0  0  0  0  0  0  0  0  0
    3.4036   -2.2254    2.6111 H   0  0  0  0  0  0  0  0  0  0  0  0
    1.9309   -0.8505    0.6647 H   0  0  0  0  0  0  0  0  0  0  0  0
    1.8620   -3.6286    1.5412 H   0  0  0  0  0  0  0  0  0  0  0  0
    1.6463   -2.2779   -0.4289 H   0  0  0  0  0  0  0  0  0  0  0  0
    3.4176   -4.9439   -0.2706 H   0  0  0  0  0  0  0  0  0  0  0  0
    3.5113   -5.9465    3.8843 H   0  0  0  0  0  0  0  0  0  0  0  0
    2.8681   -4.3859    3.4313 H   0  0  0  0  0  0  0  0  0  0  0  0
    4.5996   -4.6787    3.4008 H   0  0  0  0  0  0  0  0  0  0  0  0
    2.0987   -7.2335    2.1158 H   0  0  0  0  0  0  0  0  0  0  0  0
    1.9486   -6.5479    0.5109 H   0  0  0  0  0  0  0  0  0  0  0  0
    1.3275   -5.6812    1.9041 H   0  0  0  0  0  0  0  0  0  0  0  0
    4.6039   -7.3766    2.4481 H   0  0  0  0  0  0  0  0  0  0  0  0
    4.3489   -7.0739   -0.3060 H   0  0  0  0  0  0  0  0  0  0  0  0
    6.3292   -5.6393    2.3355 H   0  0  0  0  0  0  0  0  0  0  0  0
    6.7444   -6.9747    1.2821 H   0  0  0  0  0  0  0  0  0  0  0  0
    7.1494   -4.9929    0.1071 H   0  0  0  0  0  0  0  0  0  0  0  0
    5.7816   -5.7275   -0.6362 H   0  0  0  0  0  0  0  0  0  0  0  0
    5.6124   -3.0692    2.4171 H   0  0  0  0  0  0  0  0  0  0  0  0
    7.4403   -1.5384    1.2731 H   0  0  0  0  0  0  0  0  0  0  0  0
    7.7641   -3.2497    1.2160 H   0  0  0  0  0  0  0  0  0  0  0  0
    6.9760   -1.4545   -1.0224 H   0  0  0  0  0  0  0  0  0  0  0  0
    8.7910   -2.7257   -1.2457 H   0  0  0  0  0  0  0  0  0  0  0  0
  1  2  2  0
  1 27  1  0
  1 28  1  0
  2 25  1  0
  2  3  1  0
  3  4  2  0
  3 29  1  0
  4 24  1  0
  4  5  1  0
  5 20  1  0
  5  6  1  6
  5  7  1  0
  6 30  1  0
  6 31  1  0
  6 32  1  0
  7  8  1  0
  7  9  1  0
  7 33  1  1
  8 34  1  0
  9 10  1  0
  9 11  1  0
  9 35  1  1
 10 36  1  0
 11 19  1  0
 11 12  1  0
 11 37  1  6
 12 13  1  0
 12 14  1  0
 12 15  1  0
 13 38  1  0
 13 39  1  0
 13 40  1  0
 14 41  1  0
 14 42  1  0
 14 43  1  0
 15 16  1  0
 15 17  1  0
 15 44  1  1
 16 45  1  0
 17 18  1  0
 17 46  1  0
 17 47  1  0
 19 18  1  6
 18 48  1  0
 18 49  1  0
 19 24  1  0
 19 20  1  0
 20 21  1  0
 20 50  1  1
 21 22  1  0
 21 51  1  0
 21 52  1  0
 22 23  1  0
 22 24  1  0
 22 53  1  6
 23 54  1  0
 24 25  1  6
 25 26  2  0
M  END
>  <i_m_ct_stereo_status>  (13) 
1

>  <s_m_source_file>  (13) 
/var/tmp/pbs.5076255.sched01/tmp3z6s85wa/08w76y650.sdf

>  <i_m_source_file_index>  (13) 
7

>  <i_lp_mmshare_version>  (13) 
48012

>  <i_f3d_flags>  (13) 
0

>  <s_epik_input>  (13) 
Tz1DMUMoPVtDSDJdKVtDSF09QyhbQ0BAXTEyW0NAQF0zNDUpW0NAXShbQ0gzXSkoW0NAQEhdNVtDSDJdW0NASF0yW09IXSlbQ0BASF0oW09IXSlbQ0BASF0oW09IXSlbQ0BASF0zQyhbQ0gzXSkoW0NIM10pW0NAQEhdKFtPSF0pW0NIMl1bQ0gyXTQ=

>  <s_epik_cmdline>  (13) 
J2VwaWtfcHl0aG9uJywgJy1waHQnLCAnMi4wJywgJy1waCcsICc3LjAnLCAnLXRuJywgJzgnLCAnLW1hJywgJzIwMCcsICctaW1hZScsICc8aW5maWxlLm1hZT4nLCAnLW9tYWUnLCAnPG91dGZpbGUubWFlPic=

>  <r_lp_tautomer_probability>  (13) 
1

>  <r_epik_Ionization_Penalty>  (13) 
9.19297e-07

>  <r_epik_Ionization_Penalty_Charging>  (13) 
0

>  <r_epik_Ionization_Penalty_Neutral>  (13) 
9.19297e-07

>  <r_epik_State_Penalty>  (13) 
-0

>  <r_epik_Charging_Adjusted_Penalty>  (13) 
0

>  <i_epik_Tot_Q>  (13) 
0

>  <i_epik_Tot_abs_Q>  (13) 
0

>  <s_lp_Force_Field>  (13) 
OPLS3e

>  <r_lp_Energy>  (13) 
76.8716

>  <b_lp_Chiralities_Consistent>  (13) 
1

>  <s_lp_Variant>  (13) 
6:0-1

>  <s_i_glide_gridfile>  (13) 
pfpi4k_grid

>  <i_i_glide_lignum>  (13) 
7

>  <i_i_glide_rotatable_bonds>  (13) 
4

>  <r_i_docking_score>  (13) 
-3.82306

>  <r_i_glide_ligand_efficiency>  (13) 
-0.147041

>  <r_i_glide_ligand_efficiency_sa>  (13) 
-0.435608

>  <r_i_glide_ligand_efficiency_ln>  (13) 
-0.897833

>  <r_i_glide_gscore>  (13) 
-3.82306

>  <r_i_glide_lipo>  (13) 
-0.799859

>  <r_i_glide_hbond>  (13) 
0

>  <r_i_glide_metal>  (13) 
-0

>  <r_i_glide_rewards>  (13) 
-1.13173

>  <r_i_glide_evdw>  (13) 
-24.2331

>  <r_i_glide_ecoul>  (13) 
-4.53211

>  <r_i_glide_erotb>  (13) 
0

>  <r_i_glide_esite>  (13) 
0

>  <r_i_glide_emodel>  (13) 
-32.314

>  <r_i_glide_energy>  (13) 
-28.7652

>  <r_i_glide_einternal>  (13) 
1.86168

>  <r_i_glide_intrahb_reward>  (13) 
-0

>  <i_i_glide_confnum>  (13) 
2

>  <i_i_glide_posenum>  (13) 
39

>  <r_i_glide_eff_state_penalty>  (13) 
0

>  <ligand_id>  (13) 
6

>  <original_smiles>  (13) 
C=C1C=C2C3(C)C(O)C(O)C4C(C)(C)C(O)CCC45C3CC(O)C25C1=O

>  <smiles>  (13) 
[H]OC1([H])C([H])([H])C2([H])C3(C([H])([H])[H])C4=C([H])C(=C([H])[H])C(=O)C41C21C([H])([H])C([H])([H])C([H])(O[H])C(C([H])([H])[H])(C([H])([H])[H])C1([H])C([H])(O[H])C3([H])O[H]

$$$$
7:0:0
     RDKit          3D

 67 71  0  0  1  0  0  0  0  0999 V2000
    5.5253   -5.8075    4.8108 C   0  0  0  0  0  0  0  0  0  0  0  0
    4.5883   -4.5946    4.8443 C   0  0  2  0  0  0  0  0  0  0  0  0
    3.4439   -4.7143    3.8097 C   0  0  0  0  0  0  0  0  0  0  0  0
    3.4590   -3.6134    2.7362 C   0  0  0  0  0  0  0  0  0  0  0  0
    2.9899   -2.1995    3.1939 C   0  0  2  0  0  0  0  0  0  0  0  0
    3.3531   -1.0679    2.1523 C   0  0  1  0  0  0  0  0  0  0  0  0
    3.6090   -1.5786    0.7084 C   0  0  0  0  0  0  0  0  0  0  0  0
    2.2604    0.0380    2.0595 C   0  0  1  0  0  0  0  0  0  0  0  0
    1.0189   -0.5329    1.7004 O   0  0  0  0  0  0  0  0  0  0  0  0
    2.1555    0.8882    3.3426 C   0  0  1  0  0  0  0  0  0  0  0  0
    1.1542    1.8528    3.1400 O   0  0  0  0  0  0  0  0  0  0  0  0
    0.8330    2.5795    4.2883 C   0  0  2  0  0  0  0  0  0  0  0  0
    0.1019    1.8518    5.2313 O   0  0  0  0  0  0  0  0  0  0  0  0
   -1.1720    1.3225    4.8332 C   0  0  1  0  0  0  0  0  0  0  0  0
   -1.7552    0.4111    5.9450 C   0  0  0  0  0  0  0  0  0  0  0  0
   -2.1868   -0.7189    5.6177 O   0  0  0  0  0  0  0  0  0  0  0  0
   -1.7789    0.8199    7.1330 O   0  0  0  0  0  0  0  0  0  0  0  0
   -2.0983    2.5107    4.4292 C   0  0  1  0  0  0  0  0  0  0  0  0
   -2.5029    3.2672    5.5570 O   0  0  0  0  0  0  0  0  0  0  0  0
   -1.3895    3.4240    3.4105 C   0  0  1  0  0  0  0  0  0  0  0  0
   -2.1887    4.5463    3.0340 O   0  0  0  0  0  0  0  0  0  0  0  0
    0.0239    3.8462    3.8906 C   0  0  1  0  0  0  0  0  0  0  0  0
   -0.0525    4.7959    4.9493 O   0  0  0  0  0  0  0  0  0  0  0  0
    1.9127    0.0200    4.4149 O   0  0  0  0  0  0  0  0  0  0  0  0
    3.0650   -0.4026    5.0715 C   0  0  1  0  0  0  0  0  0  0  0  0
    2.8327   -0.4867    6.4369 O   0  0  0  0  0  0  0  0  0  0  0  0
    2.7657   -1.8435    6.7577 C   0  0  2  0  0  0  0  0  0  0  0  0
    1.5410   -2.1127    7.6449 C   0  0  0  0  0  0  0  0  0  0  0  0
    4.0889   -2.2456    7.4459 C   0  0  0  0  0  0  0  0  0  0  0  0
    5.2565   -1.9248    6.4905 C   0  0  0  0  0  0  0  0  0  0  0  0
    4.9095   -2.1619    4.9950 C   0  0  1  0  0  0  0  0  0  0  0  0
    5.3998   -3.4481    4.5879 O   0  0  0  0  0  0  0  0  0  0  0  0
    3.4062   -1.8612    4.6650 C   0  0  2  0  0  0  0  0  0  0  0  0
    2.6447   -2.5982    5.5998 O   0  0  0  0  0  0  0  0  0  0  0  0
    4.9797   -6.7311    5.0038 H   0  0  0  0  0  0  0  0  0  0  0  0
    6.2990   -5.7202    5.5735 H   0  0  0  0  0  0  0  0  0  0  0  0
    6.0197   -5.9062    3.8445 H   0  0  0  0  0  0  0  0  0  0  0  0
    4.1710   -4.5558    5.8493 H   0  0  0  0  0  0  0  0  0  0  0  0
    3.5178   -5.6785    3.3081 H   0  0  0  0  0  0  0  0  0  0  0  0
    2.4770   -4.7344    4.3133 H   0  0  0  0  0  0  0  0  0  0  0  0
    4.4612   -3.5833    2.3080 H   0  0  0  0  0  0  0  0  0  0  0  0
    2.8024   -3.9332    1.9270 H   0  0  0  0  0  0  0  0  0  0  0  0
    1.9047   -2.2771    3.2244 H   0  0  0  0  0  0  0  0  0  0  0  0
    4.2872   -0.5938    2.4632 H   0  0  0  0  0  0  0  0  0  0  0  0
    2.7622   -2.1466    0.3178 H   0  0  0  0  0  0  0  0  0  0  0  0
    4.4973   -2.2027    0.6352 H   0  0  0  0  0  0  0  0  0  0  0  0
    3.7693   -0.7465    0.0205 H   0  0  0  0  0  0  0  0  0  0  0  0
    2.5152    0.7421    1.2636 H   0  0  0  0  0  0  0  0  0  0  0  0
    1.0056   -0.6491    0.7423 H   0  0  0  0  0  0  0  0  0  0  0  0
    3.0672    1.4715    3.4955 H   0  0  0  0  0  0  0  0  0  0  0  0
    1.7558    2.8973    4.7703 H   0  0  0  0  0  0  0  0  0  0  0  0
   -0.9965    0.6993    3.9557 H   0  0  0  0  0  0  0  0  0  0  0  0
   -3.0020    2.1144    3.9643 H   0  0  0  0  0  0  0  0  0  0  0  0
   -1.6912    3.5419    5.9635 H   0  0  0  0  0  0  0  0  0  0  0  0
   -1.2680    2.8324    2.4983 H   0  0  0  0  0  0  0  0  0  0  0  0
   -1.7898    4.9117    2.2500 H   0  0  0  0  0  0  0  0  0  0  0  0
    0.5522    4.3305    3.0630 H   0  0  0  0  0  0  0  0  0  0  0  0
    0.8243    5.0416    5.2026 H   0  0  0  0  0  0  0  0  0  0  0  0
    3.9039    0.2793    4.9438 H   0  0  0  0  0  0  0  0  0  0  0  0
    0.6243   -1.8277    7.1225 H   0  0  0  0  0  0  0  0  0  0  0  0
    1.6124   -1.5509    8.5786 H   0  0  0  0  0  0  0  0  0  0  0  0
    1.4897   -3.1784    7.8815 H   0  0  0  0  0  0  0  0  0  0  0  0
    4.1958   -1.6886    8.3817 H   0  0  0  0  0  0  0  0  0  0  0  0
    4.0560   -3.3102    7.6902 H   0  0  0  0  0  0  0  0  0  0  0  0
    5.5087   -0.8690    6.6198 H   0  0  0  0  0  0  0  0  0  0  0  0
    6.1567   -2.4767    6.7764 H   0  0  0  0  0  0  0  0  0  0  0  0
    5.5325   -1.4683    4.4295 H   0  0  0  0  0  0  0  0  0  0  0  0
  1  2  1  0
  1 35  1  0
  1 36  1  0
  1 37  1  0
  2 32  1  0
  2  3  1  0
  2 38  1  1
  3  4  1  0
  3 39  1  0
  3 40  1  0
  4  5  1  0
  4 41  1  0
  4 42  1  0
  5 33  1  0
  5  6  1  0
  5 43  1  1
  6  7  1  0
  6  8  1  0
  6 44  1  1
  7 45  1  0
  7 46  1  0
  7 47  1  0
  8  9  1  0
  8 10  1  0
  8 48  1  6
  9 49  1  0
 10 11  1  0
 10 24  1  0
 10 50  1  1
 11 12  1  0
 12 22  1  0
 12 13  1  0
 12 51  1  1
 13 14  1  0
 14 15  1  0
 14 18  1  0
 14 52  1  6
 15 16  2  0
 15 17  1  0
 18 19  1  0
 18 20  1  0
 18 53  1  6
 19 54  1  0
 20 21  1  0
 20 22  1  0
 20 55  1  6
 21 56  1  0
 22 23  1  0
 22 57  1  6
 23 58  1  0
 24 25  1  0
 25 33  1  0
 25 26  1  0
 25 59  1  1
 26 27  1  0
 27 34  1  0
 27 28  1  1
 27 29  1  0
 28 60  1  0
 28 61  1  0
 28 62  1  0
 29 30  1  0
 29 63  1  0
 29 64  1  0
 30 31  1  0
 30 65  1  0
 30 66  1  0
 31 32  1  0
 31 33  1  0
 31 67  1  6
 33 34  1  1
M  CHG  1  17  -1
M  END
>  <i_m_ct_stereo_status>  (14) 
1

>  <s_m_source_file>  (14) 
/var/tmp/pbs.5076255.sched01/tmp3z6s85wa/08w76y650.sdf

>  <i_m_source_file_index>  (14) 
8

>  <i_lp_mmshare_version>  (14) 
48012

>  <i_f3d_flags>  (14) 
0

>  <s_epik_input>  (14) 
W0NAQF0xMjNbQ0BASF00W0NIMl1bQ0gyXVtDQEBIXShbQ0gzXSlPW0NAQEhdMltDSDJdW0NIMl1bQ0BAXShPMykoW0NIM10pT1tDQEBIXTFPW0NAQEhdKFtDQEhdKFtPSF0pW0NAQEhdNFtDSDNdKU9bQ0BASF01T1tDQEBIXShDKD1PKVtPSF0pW0NAQEhdKFtPSF0pW0NAQEhdKFtPSF0pW0NASF01W09IXQ==

>  <s_epik_cmdline>  (14) 
J2VwaWtfcHl0aG9uJywgJy1waHQnLCAnMi4wJywgJy1waCcsICc3LjAnLCAnLXRuJywgJzgnLCAnLW1hJywgJzIwMCcsICctaW1hZScsICc8aW5maWxlLm1hZT4nLCAnLW9tYWUnLCAnPG91dGZpbGUubWFlPic=

>  <r_lp_tautomer_probability>  (14) 
1

>  <r_epik_Ionization_Penalty>  (14) 
8.64628e-05

>  <r_epik_Ionization_Penalty_Charging>  (14) 
8.46089e-05

>  <r_epik_Ionization_Penalty_Neutral>  (14) 
1.8539e-06

>  <r_epik_State_Penalty>  (14) 
-0

>  <r_epik_Charging_Adjusted_Penalty>  (14) 
8.46089e-05

>  <i_epik_Tot_Q>  (14) 
-1

>  <i_epik_Tot_abs_Q>  (14) 
1

>  <s_epik_Chemistry_Notes>  (14) 
This compound contains an acetal/aminal-like group ( X-CH(R)-Y where X, Y are N, S, or O) that may be acid/base labile, releasing an aldehyde.

>  <s_lp_Force_Field>  (14) 
OPLS3e

>  <r_lp_Energy>  (14) 
44.7246

>  <b_lp_Chiralities_Consistent>  (14) 
1

>  <s_lp_Variant>  (14) 
7:0-1

>  <s_i_glide_gridfile>  (14) 
pfpi4k_grid

>  <i_i_glide_lignum>  (14) 
8

>  <i_i_glide_rotatable_bonds>  (14) 
7

>  <r_i_docking_score>  (14) 
-4.21167

>  <r_i_glide_ligand_efficiency>  (14) 
-0.123873

>  <r_i_glide_ligand_efficiency_sa>  (14) 
-0.4013

>  <r_i_glide_ligand_efficiency_ln>  (14) 
-0.930477

>  <r_i_glide_gscore>  (14) 
-4.21167

>  <r_i_glide_lipo>  (14) 
-0.0358487

>  <r_i_glide_hbond>  (14) 
-0.267848

>  <r_i_glide_metal>  (14) 
-0

>  <r_i_glide_rewards>  (14) 
-0.571658

>  <r_i_glide_evdw>  (14) 
-21.8338

>  <r_i_glide_ecoul>  (14) 
-15.4257

>  <r_i_glide_erotb>  (14) 
0.169815

>  <r_i_glide_esite>  (14) 
-0.100598

>  <r_i_glide_emodel>  (14) 
-57.0667

>  <r_i_glide_energy>  (14) 
-37.2594

>  <r_i_glide_einternal>  (14) 
2.88283

>  <r_i_glide_intrahb_reward>  (14) 
-0.5

>  <i_i_glide_confnum>  (14) 
3

>  <i_i_glide_posenum>  (14) 
16

>  <r_i_glide_eff_state_penalty>  (14) 
0

>  <ligand_id>  (14) 
7

>  <original_smiles>  (14) 
CC1CCC2C(C)C(O)C(OC3OC(C(=O)O)C(O)C(O)C3O)OC3OC4(C)CCC(O1)C32O4

>  <smiles>  (14) 
[H]OC1([H])C([H])(OC2([H])OC3([H])OC4(C([H])([H])[H])OC35C([H])(OC([H])(C([H])([H])[H])C([H])([H])C([H])([H])C5([H])C([H])(C([H])([H])[H])C2([H])O[H])C([H])([H])C4([H])[H])OC([H])(C(=O)[O-])C([H])(O[H])C1([H])O[H]

$$$$
7:0:1
     RDKit          3D

 67 71  0  0  1  0  0  0  0  0999 V2000
    3.0777  -11.4880    3.2871 C   0  0  0  0  0  0  0  0  0  0  0  0
    2.4849  -10.0816    3.1683 C   0  0  2  0  0  0  0  0  0  0  0  0
    2.8247   -9.4175    1.8165 C   0  0  0  0  0  0  0  0  0  0  0  0
    3.6710   -8.1393    1.9423 C   0  0  0  0  0  0  0  0  0  0  0  0
    2.9216   -6.8708    2.4518 C   0  0  2  0  0  0  0  0  0  0  0  0
    3.9113   -5.7203    2.8787 C   0  0  1  0  0  0  0  0  0  0  0  0
    5.3332   -5.8168    2.2630 C   0  0  0  0  0  0  0  0  0  0  0  0
    3.3705   -4.3188    2.5194 C   0  0  1  0  0  0  0  0  0  0  0  0
    3.1161   -4.2007    1.1310 O   0  0  0  0  0  0  0  0  0  0  0  0
    2.1304   -3.9158    3.3519 C   0  0  1  0  0  0  0  0  0  0  0  0
    1.7300   -2.6691    2.8651 O   0  0  0  0  0  0  0  0  0  0  0  0
    2.0825   -1.5916    3.6731 C   0  0  2  0  0  0  0  0  0  0  0  0
    1.2316   -1.4674    4.7729 O   0  0  0  0  0  0  0  0  0  0  0  0
   -0.1504   -1.2162    4.5003 C   0  0  1  0  0  0  0  0  0  0  0  0
   -0.9831   -1.2151    5.7984 C   0  0  0  0  0  0  0  0  0  0  0  0
   -2.2141   -1.4852    5.6785 O   0  0  0  0  0  0  0  0  0  0  0  0
   -0.4423   -0.9746    6.8890 O   0  0  0  0  0  0  0  0  0  0  0  0
   -0.3173    0.1018    3.6803 C   0  0  1  0  0  0  0  0  0  0  0  0
   -0.0386    1.2326    4.4784 O   0  0  0  0  0  0  0  0  0  0  0  0
    0.6209    0.0904    2.4516 C   0  0  1  0  0  0  0  0  0  0  0  0
    0.5600    1.2800    1.6819 O   0  0  0  0  0  0  0  0  0  0  0  0
    2.0649   -0.2751    2.8451 C   0  0  1  0  0  0  0  0  0  0  0  0
    2.6875    0.7844    3.5529 O   0  0  0  0  0  0  0  0  0  0  0  0
    1.1365   -4.8860    3.1876 O   0  0  0  0  0  0  0  0  0  0  0  0
    1.1673   -5.9172    4.1347 C   0  0  1  0  0  0  0  0  0  0  0  0
   -0.1216   -6.3257    4.4351 O   0  0  0  0  0  0  0  0  0  0  0  0
   -0.3050   -7.5807    3.8484 C   0  0  2  0  0  0  0  0  0  0  0  0
   -1.6505   -7.6167    3.1188 C   0  0  0  0  0  0  0  0  0  0  0  0
   -0.1950   -8.6584    4.9435 C   0  0  0  0  0  0  0  0  0  0  0  0
    1.1664   -8.5434    5.6410 C   0  0  0  0  0  0  0  0  0  0  0  0
    2.3088   -8.1444    4.6690 C   0  0  1  0  0  0  0  0  0  0  0  0
    3.0132   -9.3233    4.2573 O   0  0  0  0  0  0  0  0  0  0  0  0
    1.8217   -7.1875    3.5179 C   0  0  2  0  0  0  0  0  0  0  0  0
    0.7006   -7.8086    2.9209 O   0  0  0  0  0  0  0  0  0  0  0  0
    2.7250  -12.1369    2.4851 H   0  0  0  0  0  0  0  0  0  0  0  0
    2.7919  -11.9534    4.2317 H   0  0  0  0  0  0  0  0  0  0  0  0
    4.1674  -11.4715    3.2381 H   0  0  0  0  0  0  0  0  0  0  0  0
    1.4056  -10.1934    3.2542 H   0  0  0  0  0  0  0  0  0  0  0  0
    3.3835  -10.1245    1.2109 H   0  0  0  0  0  0  0  0  0  0  0  0
    1.9160   -9.2141    1.2472 H   0  0  0  0  0  0  0  0  0  0  0  0
    4.5298   -8.3734    2.5702 H   0  0  0  0  0  0  0  0  0  0  0  0
    4.0797   -7.9151    0.9538 H   0  0  0  0  0  0  0  0  0  0  0  0
    2.3705   -6.5211    1.5800 H   0  0  0  0  0  0  0  0  0  0  0  0
    4.0540   -5.7672    3.9589 H   0  0  0  0  0  0  0  0  0  0  0  0
    5.3095   -5.8611    1.1728 H   0  0  0  0  0  0  0  0  0  0  0  0
    5.8847   -6.6824    2.6237 H   0  0  0  0  0  0  0  0  0  0  0  0
    5.9382   -4.9489    2.5327 H   0  0  0  0  0  0  0  0  0  0  0  0
    4.1310   -3.5735    2.7556 H   0  0  0  0  0  0  0  0  0  0  0  0
    3.9226   -4.3482    0.6565 H   0  0  0  0  0  0  0  0  0  0  0  0
    2.3671   -3.8274    4.4246 H   0  0  0  0  0  0  0  0  0  0  0  0
    3.0935   -1.7181    4.0502 H   0  0  0  0  0  0  0  0  0  0  0  0
   -0.5147   -2.0573    3.9028 H   0  0  0  0  0  0  0  0  0  0  0  0
   -1.3549    0.1753    3.3514 H   0  0  0  0  0  0  0  0  0  0  0  0
    0.9085    1.2533    4.5468 H   0  0  0  0  0  0  0  0  0  0  0  0
    0.2646   -0.6927    1.7822 H   0  0  0  0  0  0  0  0  0  0  0  0
   -0.0470    1.1705    0.9500 H   0  0  0  0  0  0  0  0  0  0  0  0
    2.6321   -0.4544    1.9232 H   0  0  0  0  0  0  0  0  0  0  0  0
    3.6323    0.6859    3.5097 H   0  0  0  0  0  0  0  0  0  0  0  0
    1.6305   -5.6309    5.0856 H   0  0  0  0  0  0  0  0  0  0  0  0
   -1.6728   -6.8600    2.3362 H   0  0  0  0  0  0  0  0  0  0  0  0
   -2.4735   -7.4429    3.8169 H   0  0  0  0  0  0  0  0  0  0  0  0
   -1.7867   -8.5962    2.6514 H   0  0  0  0  0  0  0  0  0  0  0  0
   -0.9914   -8.5308    5.6802 H   0  0  0  0  0  0  0  0  0  0  0  0
   -0.3318   -9.6449    4.4896 H   0  0  0  0  0  0  0  0  0  0  0  0
    1.0821   -7.7670    6.4087 H   0  0  0  0  0  0  0  0  0  0  0  0
    1.4049   -9.4651    6.1795 H   0  0  0  0  0  0  0  0  0  0  0  0
    3.0461   -7.6188    5.2800 H   0  0  0  0  0  0  0  0  0  0  0  0
  1  2  1  0
  1 35  1  0
  1 36  1  0
  1 37  1  0
  2 32  1  0
  2  3  1  0
  2 38  1  1
  3  4  1  0
  3 39  1  0
  3 40  1  0
  4  5  1  0
  4 41  1  0
  4 42  1  0
  5 33  1  0
  5  6  1  0
  5 43  1  6
  6  7  1  0
  6  8  1  0
  6 44  1  1
  7 45  1  0
  7 46  1  0
  7 47  1  0
  8  9  1  0
  8 10  1  0
  8 48  1  1
  9 49  1  0
 10 11  1  0
 10 24  1  0
 10 50  1  1
 11 12  1  0
 12 22  1  0
 12 13  1  0
 12 51  1  1
 13 14  1  0
 14 15  1  0
 14 18  1  0
 14 52  1  6
 15 16  2  0
 15 17  1  0
 18 19  1  0
 18 20  1  0
 18 53  1  6
 19 54  1  0
 20 21  1  0
 20 22  1  0
 20 55  1  6
 21 56  1  0
 22 23  1  0
 22 57  1  6
 23 58  1  0
 24 25  1  0
 25 33  1  0
 25 26  1  0
 25 59  1  1
 26 27  1  0
 27 34  1  0
 27 28  1  6
 27 29  1  0
 28 60  1  0
 28 61  1  0
 28 62  1  0
 29 30  1  0
 29 63  1  0
 29 64  1  0
 30 31  1  0
 30 65  1  0
 30 66  1  0
 31 32  1  0
 31 33  1  0
 31 67  1  1
 33 34  1  6
M  CHG  1  17  -1
M  END
>  <i_m_ct_stereo_status>  (15) 
1

>  <s_m_source_file>  (15) 
/var/tmp/pbs.5076255.sched01/tmp3z6s85wa/08w76y650.sdf

>  <i_m_source_file_index>  (15) 
8

>  <i_lp_mmshare_version>  (15) 
48012

>  <i_f3d_flags>  (15) 
0

>  <s_epik_input>  (15) 
W0NAQF0xMjNbQ0BASF00W0NIMl1bQ0gyXVtDQEBIXShbQ0gzXSlPW0NAQEhdMltDSDJdW0NIMl1bQ0BAXShPMykoW0NIM10pT1tDQEBIXTFPW0NAQEhdKFtDQEhdKFtPSF0pW0NAQEhdNFtDSDNdKU9bQ0BASF01T1tDQEBIXShDKD1PKVtPSF0pW0NAQEhdKFtPSF0pW0NAQEhdKFtPSF0pW0NASF01W09IXQ==

>  <s_epik_cmdline>  (15) 
J2VwaWtfcHl0aG9uJywgJy1waHQnLCAnMi4wJywgJy1waCcsICc3LjAnLCAnLXRuJywgJzgnLCAnLW1hJywgJzIwMCcsICctaW1hZScsICc8aW5maWxlLm1hZT4nLCAnLW9tYWUnLCAnPG91dGZpbGUubWFlPic=

>  <r_lp_tautomer_probability>  (15) 
1

>  <r_epik_Ionization_Penalty>  (15) 
8.64628e-05

>  <r_epik_Ionization_Penalty_Charging>  (15) 
8.46089e-05

>  <r_epik_Ionization_Penalty_Neutral>  (15) 
1.8539e-06

>  <r_epik_State_Penalty>  (15) 
-0

>  <r_epik_Charging_Adjusted_Penalty>  (15) 
8.46089e-05

>  <i_epik_Tot_Q>  (15) 
-1

>  <i_epik_Tot_abs_Q>  (15) 
1

>  <s_epik_Chemistry_Notes>  (15) 
This compound contains an acetal/aminal-like group ( X-CH(R)-Y where X, Y are N, S, or O) that may be acid/base labile, releasing an aldehyde.

>  <s_lp_Force_Field>  (15) 
OPLS3e

>  <r_lp_Energy>  (15) 
44.7246

>  <b_lp_Chiralities_Consistent>  (15) 
1

>  <s_lp_Variant>  (15) 
7:0-1

>  <s_i_glide_gridfile>  (15) 
pfpi4k_grid

>  <i_i_glide_lignum>  (15) 
8

>  <i_i_glide_rotatable_bonds>  (15) 
7

>  <r_i_docking_score>  (15) 
-2.87699

>  <r_i_glide_ligand_efficiency>  (15) 
-0.0846174

>  <r_i_glide_ligand_efficiency_sa>  (15) 
-0.274128

>  <r_i_glide_ligand_efficiency_ln>  (15) 
-0.635608

>  <r_i_glide_gscore>  (15) 
-2.87699

>  <r_i_glide_lipo>  (15) 
-0.0130016

>  <r_i_glide_hbond>  (15) 
-0.0270399

>  <r_i_glide_metal>  (15) 
-0

>  <r_i_glide_rewards>  (15) 
-0.573017

>  <r_i_glide_evdw>  (15) 
-31.9016

>  <r_i_glide_ecoul>  (15) 
-4.86738

>  <r_i_glide_erotb>  (15) 
0.169815

>  <r_i_glide_esite>  (15) 
-0.108563

>  <r_i_glide_emodel>  (15) 
-49.2893

>  <r_i_glide_energy>  (15) 
-36.769

>  <r_i_glide_einternal>  (15) 
6.27159

>  <r_i_glide_intrahb_reward>  (15) 
-0.5

>  <i_i_glide_confnum>  (15) 
1

>  <i_i_glide_posenum>  (15) 
29

>  <r_i_glide_eff_state_penalty>  (15) 
0

>  <ligand_id>  (15) 
7

>  <original_smiles>  (15) 
CC1CCC2C(C)C(O)C(OC3OC(C(=O)O)C(O)C(O)C3O)OC3OC4(C)CCC(O1)C32O4

>  <smiles>  (15) 
[H]OC1([H])C([H])(OC2([H])OC3([H])OC4(C([H])([H])[H])OC35C([H])(OC([H])(C([H])([H])[H])C([H])([H])C([H])([H])C5([H])C([H])(C([H])([H])[H])C2([H])O[H])C([H])([H])C4([H])[H])OC([H])(C(=O)[O-])C([H])(O[H])C1([H])O[H]

$$$$
7:0:2
     RDKit          3D

 67 71  0  0  1  0  0  0  0  0999 V2000
    3.1799  -11.4290    3.2953 C   0  0  0  0  0  0  0  0  0  0  0  0
    2.5631  -10.0304    3.1779 C   0  0  2  0  0  0  0  0  0  0  0  0
    2.9021   -9.3447    1.8335 C   0  0  0  0  0  0  0  0  0  0  0  0
    3.7216   -8.0494    1.9816 C   0  0  0  0  0  0  0  0  0  0  0  0
    2.9456   -6.8033    2.4997 C   0  0  2  0  0  0  0  0  0  0  0  0
    3.9102   -5.6385    2.9475 C   0  0  1  0  0  0  0  0  0  0  0  0
    5.3382   -5.7010    2.3459 C   0  0  0  0  0  0  0  0  0  0  0  0
    3.3458   -4.2413    2.6049 C   0  0  1  0  0  0  0  0  0  0  0  0
    3.1013   -4.1112    1.2148 O   0  0  0  0  0  0  0  0  0  0  0  0
    2.0894   -3.8739    3.4275 C   0  0  1  0  0  0  0  0  0  0  0  0
    1.6686   -2.6277    2.9620 O   0  0  0  0  0  0  0  0  0  0  0  0
    2.0252   -1.5446    3.7672 C   0  0  2  0  0  0  0  0  0  0  0  0
    1.1289   -1.3646    4.8318 O   0  0  0  0  0  0  0  0  0  0  0  0
   -0.2262   -1.0800    4.4848 C   0  0  1  0  0  0  0  0  0  0  0  0
   -1.1251   -1.0316    5.7373 C   0  0  0  0  0  0  0  0  0  0  0  0
   -0.7165   -0.4270    6.7602 O   0  0  0  0  0  0  0  0  0  0  0  0
   -2.2019   -1.6462    5.6760 O   0  0  0  0  0  0  0  0  0  0  0  0
   -0.3252    0.2094    3.6205 C   0  0  1  0  0  0  0  0  0  0  0  0
   -0.0296    1.3862    4.3456 O   0  0  0  0  0  0  0  0  0  0  0  0
    0.6546    0.1194    2.4352 C   0  0  1  0  0  0  0  0  0  0  0  0
    0.6912    1.3256    1.7046 O   0  0  0  0  0  0  0  0  0  0  0  0
    2.0674   -0.2652    2.8978 C   0  0  1  0  0  0  0  0  0  0  0  0
    2.7260    0.7927    3.5711 O   0  0  0  0  0  0  0  0  0  0  0  0
    1.1160   -4.8586    3.2452 O   0  0  0  0  0  0  0  0  0  0  0  0
    1.1574   -5.9054    4.1748 C   0  0  1  0  0  0  0  0  0  0  0  0
   -0.1293   -6.3341    4.4553 O   0  0  0  0  0  0  0  0  0  0  0  0
   -0.2864   -7.5866    3.8585 C   0  0  2  0  0  0  0  0  0  0  0  0
   -1.6202   -7.6391    3.1156 C   0  0  0  0  0  0  0  0  0  0  0  0
   -0.1703   -8.6728    4.9470 C   0  0  0  0  0  0  0  0  0  0  0  0
    1.1883   -8.5426    5.6548 C   0  0  0  0  0  0  0  0  0  0  0  0
    2.3361   -8.1152    4.6999 C   0  0  1  0  0  0  0  0  0  0  0  0
    3.0683   -9.2738    4.2780 O   0  0  0  0  0  0  0  0  0  0  0  0
    1.8449   -7.1536    3.5555 C   0  0  2  0  0  0  0  0  0  0  0  0
    0.7368   -7.7791    2.9384 O   0  0  0  0  0  0  0  0  0  0  0  0
    2.8434  -12.0778    2.4881 H   0  0  0  0  0  0  0  0  0  0  0  0
    2.8981  -11.9026    4.2359 H   0  0  0  0  0  0  0  0  0  0  0  0
    4.2687  -11.3899    3.2529 H   0  0  0  0  0  0  0  0  0  0  0  0
    1.4847  -10.1615    3.2530 H   0  0  0  0  0  0  0  0  0  0  0  0
    3.4804  -10.0320    1.2230 H   0  0  0  0  0  0  0  0  0  0  0  0
    1.9944   -9.1499    1.2603 H   0  0  0  0  0  0  0  0  0  0  0  0
    4.5785   -8.2743    2.6161 H   0  0  0  0  0  0  0  0  0  0  0  0
    4.1357   -7.8060    1.0004 H   0  0  0  0  0  0  0  0  0  0  0  0
    2.3962   -6.4521    1.6269 H   0  0  0  0  0  0  0  0  0  0  0  0
    4.0427   -5.6960    4.0291 H   0  0  0  0  0  0  0  0  0  0  0  0
    5.3225   -5.7327    1.2546 H   0  0  0  0  0  0  0  0  0  0  0  0
    5.9030   -6.5611    2.7009 H   0  0  0  0  0  0  0  0  0  0  0  0
    5.9240   -4.8245    2.6304 H   0  0  0  0  0  0  0  0  0  0  0  0
    4.0914   -3.4852    2.8542 H   0  0  0  0  0  0  0  0  0  0  0  0
    3.9228   -4.2041    0.7465 H   0  0  0  0  0  0  0  0  0  0  0  0
    2.3151   -3.7885    4.5020 H   0  0  0  0  0  0  0  0  0  0  0  0
    3.0172   -1.6811    4.1889 H   0  0  0  0  0  0  0  0  0  0  0  0
   -0.5886   -1.9253    3.8946 H   0  0  0  0  0  0  0  0  0  0  0  0
   -1.3467    0.3005    3.2466 H   0  0  0  0  0  0  0  0  0  0  0  0
    0.8605    1.2793    4.6632 H   0  0  0  0  0  0  0  0  0  0  0  0
    0.2924   -0.6586    1.7570 H   0  0  0  0  0  0  0  0  0  0  0  0
    0.7590    2.0449    2.3299 H   0  0  0  0  0  0  0  0  0  0  0  0
    2.6687   -0.4893    2.0072 H   0  0  0  0  0  0  0  0  0  0  0  0
    2.7149    1.5568    2.9963 H   0  0  0  0  0  0  0  0  0  0  0  0
    1.6088   -5.6205    5.1323 H   0  0  0  0  0  0  0  0  0  0  0  0
   -1.6455   -6.8735    2.3424 H   0  0  0  0  0  0  0  0  0  0  0  0
   -2.4509   -7.4845    3.8099 H   0  0  0  0  0  0  0  0  0  0  0  0
   -1.7321   -8.6157    2.6386 H   0  0  0  0  0  0  0  0  0  0  0  0
   -0.9869   -8.5693    5.6715 H   0  0  0  0  0  0  0  0  0  0  0  0
   -0.2781   -9.6554    4.4802 H   0  0  0  0  0  0  0  0  0  0  0  0
    1.0872   -7.7767    6.4292 H   0  0  0  0  0  0  0  0  0  0  0  0
    1.4433   -9.4667    6.1816 H   0  0  0  0  0  0  0  0  0  0  0  0
    3.0572   -7.5765    5.3189 H   0  0  0  0  0  0  0  0  0  0  0  0
  1  2  1  0
  1 35  1  0
  1 36  1  0
  1 37  1  0
  2 32  1  0
  2  3  1  0
  2 38  1  1
  3  4  1  0
  3 39  1  0
  3 40  1  0
  4  5  1  0
  4 41  1  0
  4 42  1  0
  5 33  1  0
  5  6  1  0
  5 43  1  6
  6  7  1  0
  6  8  1  0
  6 44  1  1
  7 45  1  0
  7 46  1  0
  7 47  1  0
  8  9  1  0
  8 10  1  0
  8 48  1  1
  9 49  1  0
 10 11  1  0
 10 24  1  0
 10 50  1  1
 11 12  1  0
 12 22  1  0
 12 13  1  0
 12 51  1  1
 13 14  1  0
 14 15  1  0
 14 18  1  0
 14 52  1  6
 15 16  2  0
 15 17  1  0
 18 19  1  0
 18 20  1  0
 18 53  1  6
 19 54  1  0
 20 21  1  0
 20 22  1  0
 20 55  1  6
 21 56  1  0
 22 23  1  0
 22 57  1  6
 23 58  1  0
 24 25  1  0
 25 33  1  0
 25 26  1  0
 25 59  1  1
 26 27  1  0
 27 34  1  0
 27 28  1  6
 27 29  1  0
 28 60  1  0
 28 61  1  0
 28 62  1  0
 29 30  1  0
 29 63  1  0
 29 64  1  0
 30 31  1  0
 30 65  1  0
 30 66  1  0
 31 32  1  0
 31 33  1  0
 31 67  1  1
 33 34  1  6
M  CHG  1  17  -1
M  END
>  <i_m_ct_stereo_status>  (16) 
1

>  <s_m_source_file>  (16) 
/var/tmp/pbs.5076255.sched01/tmp3z6s85wa/08w76y650.sdf

>  <i_m_source_file_index>  (16) 
8

>  <i_lp_mmshare_version>  (16) 
48012

>  <i_f3d_flags>  (16) 
0

>  <s_epik_input>  (16) 
W0NAQF0xMjNbQ0BASF00W0NIMl1bQ0gyXVtDQEBIXShbQ0gzXSlPW0NAQEhdMltDSDJdW0NIMl1bQ0BAXShPMykoW0NIM10pT1tDQEBIXTFPW0NAQEhdKFtDQEhdKFtPSF0pW0NAQEhdNFtDSDNdKU9bQ0BASF01T1tDQEBIXShDKD1PKVtPSF0pW0NAQEhdKFtPSF0pW0NAQEhdKFtPSF0pW0NASF01W09IXQ==

>  <s_epik_cmdline>  (16) 
J2VwaWtfcHl0aG9uJywgJy1waHQnLCAnMi4wJywgJy1waCcsICc3LjAnLCAnLXRuJywgJzgnLCAnLW1hJywgJzIwMCcsICctaW1hZScsICc8aW5maWxlLm1hZT4nLCAnLW9tYWUnLCAnPG91dGZpbGUubWFlPic=

>  <r_lp_tautomer_probability>  (16) 
1

>  <r_epik_Ionization_Penalty>  (16) 
8.64628e-05

>  <r_epik_Ionization_Penalty_Charging>  (16) 
8.46089e-05

>  <r_epik_Ionization_Penalty_Neutral>  (16) 
1.8539e-06

>  <r_epik_State_Penalty>  (16) 
-0

>  <r_epik_Charging_Adjusted_Penalty>  (16) 
8.46089e-05

>  <i_epik_Tot_Q>  (16) 
-1

>  <i_epik_Tot_abs_Q>  (16) 
1

>  <s_epik_Chemistry_Notes>  (16) 
This compound contains an acetal/aminal-like group ( X-CH(R)-Y where X, Y are N, S, or O) that may be acid/base labile, releasing an aldehyde.

>  <s_lp_Force_Field>  (16) 
OPLS3e

>  <r_lp_Energy>  (16) 
44.7246

>  <b_lp_Chiralities_Consistent>  (16) 
1

>  <s_lp_Variant>  (16) 
7:0-1

>  <s_i_glide_gridfile>  (16) 
pfpi4k_grid

>  <i_i_glide_lignum>  (16) 
8

>  <i_i_glide_rotatable_bonds>  (16) 
7

>  <r_i_docking_score>  (16) 
-2.82343

>  <r_i_glide_ligand_efficiency>  (16) 
-0.083042

>  <r_i_glide_ligand_efficiency_sa>  (16) 
-0.269024

>  <r_i_glide_ligand_efficiency_ln>  (16) 
-0.623775

>  <r_i_glide_gscore>  (16) 
-2.82343

>  <r_i_glide_lipo>  (16) 
-0.00826052

>  <r_i_glide_hbond>  (16) 
-0.0791289

>  <r_i_glide_metal>  (16) 
-0

>  <r_i_glide_rewards>  (16) 
-0.574321

>  <r_i_glide_evdw>  (16) 
-31.8767

>  <r_i_glide_ecoul>  (16) 
-4.18626

>  <r_i_glide_erotb>  (16) 
0.169815

>  <r_i_glide_esite>  (16) 
-0.10976

>  <r_i_glide_emodel>  (16) 
-48.5274

>  <r_i_glide_energy>  (16) 
-36.0629

>  <r_i_glide_einternal>  (16) 
5.46734

>  <r_i_glide_intrahb_reward>  (16) 
-0.5

>  <i_i_glide_confnum>  (16) 
1

>  <i_i_glide_posenum>  (16) 
39

>  <r_i_glide_eff_state_penalty>  (16) 
0

>  <ligand_id>  (16) 
7

>  <original_smiles>  (16) 
CC1CCC2C(C)C(O)C(OC3OC(C(=O)O)C(O)C(O)C3O)OC3OC4(C)CCC(O1)C32O4

>  <smiles>  (16) 
[H]OC1([H])C([H])(OC2([H])OC3([H])OC4(C([H])([H])[H])OC35C([H])(OC([H])(C([H])([H])[H])C([H])([H])C([H])([H])C5([H])C([H])(C([H])([H])[H])C2([H])O[H])C([H])([H])C4([H])[H])OC([H])(C(=O)[O-])C([H])(O[H])C1([H])O[H]

$$$$
9:0:0
     RDKit          3D

 56 60  0  0  1  0  0  0  0  0999 V2000
   -2.1990   -7.4400    3.7489 C   0  0  0  0  0  0  0  0  0  0  0  0
   -1.0320   -7.5920    4.5306 O   0  0  0  0  0  0  0  0  0  0  0  0
   -0.1038   -8.5162    4.1239 C   0  0  0  0  0  0  0  0  0  0  0  0
   -0.4087   -9.5675    3.2281 C   0  0  0  0  0  0  0  0  0  0  0  0
    0.5865  -10.4534    2.8118 C   0  0  0  0  0  0  0  0  0  0  0  0
    1.8918  -10.3319    3.3031 C   0  0  0  0  0  0  0  0  0  0  0  0
    2.1572   -9.3365    4.2830 C   0  0  0  0  0  0  0  0  0  0  0  0
    1.1938   -8.3692    4.6640 C   0  0  0  0  0  0  0  0  0  0  0  0
    1.4478   -7.2595    5.4343 O   0  0  0  0  0  0  0  0  0  0  0  0
    2.7001   -7.1453    6.0815 C   0  0  0  0  0  0  0  0  0  0  0  0
    3.8829   -7.8214    5.3578 C   0  0  2  0  0  0  0  0  0  0  0  0
    4.3880   -7.2003    4.0274 C   0  0  1  0  0  0  0  0  0  0  0  0
    5.4841   -6.1145    4.2111 C   0  0  2  0  0  0  0  0  0  0  0  0
    5.0954   -4.9473    5.1327 C   0  0  0  0  0  0  0  0  0  0  0  0
    5.7617   -5.5425    2.9518 O   0  0  0  0  0  0  0  0  0  0  0  0
    4.8118   -8.4270    3.1423 C   0  0  1  0  0  0  0  0  0  0  0  0
    6.1435   -8.3085    2.6448 O   0  0  0  0  0  0  0  0  0  0  0  0
    6.3949   -9.0352    1.4497 C   0  0  0  0  0  0  0  0  0  0  0  0
    4.6731   -9.6505    4.0741 C   0  0  2  0  0  0  0  0  0  0  0  0
    4.3802  -11.0660    3.5336 C   0  0  2  0  0  0  0  0  0  0  0  0
    3.0817  -11.0909    2.7319 C   0  0  0  0  0  0  0  0  0  0  0  0
    4.3230  -12.0678    4.6446 N   0  0  1  0  0  0  0  0  0  0  0  0
    5.6589  -12.4955    5.1312 C   0  0  0  0  0  0  0  0  0  0  0  0
    3.4024  -11.6997    5.7556 C   0  0  0  0  0  0  0  0  0  0  0  0
    3.5758  -10.2352    6.2000 C   0  0  0  0  0  0  0  0  0  0  0  0
    3.5273   -9.2638    4.9925 C   0  0  2  0  0  0  0  0  0  0  0  0
   -2.7961   -6.6756    4.2390 H   0  0  0  0  0  0  0  0  0  0  0  0
   -2.8116   -8.3376    3.6827 H   0  0  0  0  0  0  0  0  0  0  0  0
   -1.9596   -7.0950    2.7440 H   0  0  0  0  0  0  0  0  0  0  0  0
   -1.4030   -9.7255    2.8449 H   0  0  0  0  0  0  0  0  0  0  0  0
    0.3423  -11.2169    2.0839 H   0  0  0  0  0  0  0  0  0  0  0  0
    2.8871   -6.0869    6.2434 H   0  0  0  0  0  0  0  0  0  0  0  0
    2.5726   -7.5860    7.0692 H   0  0  0  0  0  0  0  0  0  0  0  0
    4.7300   -7.8380    6.0449 H   0  0  0  0  0  0  0  0  0  0  0  0
    3.5362   -6.7346    3.5340 H   0  0  0  0  0  0  0  0  0  0  0  0
    6.4015   -6.5672    4.5911 H   0  0  0  0  0  0  0  0  0  0  0  0
    5.0001   -5.2719    6.1678 H   0  0  0  0  0  0  0  0  0  0  0  0
    4.1539   -4.4884    4.8284 H   0  0  0  0  0  0  0  0  0  0  0  0
    5.8560   -4.1658    5.1210 H   0  0  0  0  0  0  0  0  0  0  0  0
    6.0555   -6.2411    2.3827 H   0  0  0  0  0  0  0  0  0  0  0  0
    4.1085   -8.4908    2.3077 H   0  0  0  0  0  0  0  0  0  0  0  0
    7.4271   -8.8831    1.1457 H   0  0  0  0  0  0  0  0  0  0  0  0
    5.7571   -8.6933    0.6354 H   0  0  0  0  0  0  0  0  0  0  0  0
    6.2547  -10.1056    1.5725 H   0  0  0  0  0  0  0  0  0  0  0  0
    5.5980   -9.6871    4.6531 H   0  0  0  0  0  0  0  0  0  0  0  0
    5.1701  -11.4080    2.8688 H   0  0  0  0  0  0  0  0  0  0  0  0
    2.7921  -12.1193    2.5121 H   0  0  0  0  0  0  0  0  0  0  0  0
    3.2852  -10.6323    1.7677 H   0  0  0  0  0  0  0  0  0  0  0  0
    6.1635  -11.6824    5.6529 H   0  0  0  0  0  0  0  0  0  0  0  0
    6.2949  -12.8270    4.3073 H   0  0  0  0  0  0  0  0  0  0  0  0
    5.5580  -13.3289    5.8281 H   0  0  0  0  0  0  0  0  0  0  0  0
    2.3728  -11.8665    5.4375 H   0  0  0  0  0  0  0  0  0  0  0  0
    3.5559  -12.3710    6.6009 H   0  0  0  0  0  0  0  0  0  0  0  0
    2.8146   -9.9912    6.9421 H   0  0  0  0  0  0  0  0  0  0  0  0
    4.5377  -10.1375    6.7115 H   0  0  0  0  0  0  0  0  0  0  0  0
    3.9176  -12.8991    4.2356 H   0  0  0  0  0  0  0  0  0  0  0  0
  1  2  1  0
  1 27  1  0
  1 28  1  0
  1 29  1  0
  2  3  1  0
  3  8  2  0
  3  4  1  0
  4  5  2  0
  4 30  1  0
  5  6  1  0
  5 31  1  0
  6 21  1  0
  6  7  2  0
  7 26  1  0
  7  8  1  0
  8  9  1  0
  9 10  1  0
 10 11  1  0
 10 32  1  0
 10 33  1  0
 11 26  1  0
 11 12  1  0
 11 34  1  1
 12 13  1  0
 12 16  1  0
 12 35  1  6
 13 14  1  0
 13 15  1  0
 13 36  1  1
 14 37  1  0
 14 38  1  0
 14 39  1  0
 15 40  1  0
 16 17  1  0
 16 19  1  0
 16 41  1  6
 17 18  1  0
 18 42  1  0
 18 43  1  0
 18 44  1  0
 19 26  1  0
 19 20  1  0
 19 45  1  1
 20 21  1  0
 20 22  1  0
 20 46  1  6
 21 47  1  0
 21 48  1  0
 22 23  1  0
 22 24  1  0
 22 56  1  6
 23 49  1  0
 23 50  1  0
 23 51  1  0
 24 25  1  0
 24 52  1  0
 24 53  1  0
 26 25  1  1
 25 54  1  0
 25 55  1  0
M  CHG  1  22   1
M  END
>  <i_m_ct_stereo_status>  (17) 
1

>  <s_m_source_file>  (17) 
/var/tmp/pbs.5076255.sched01/tmp3z6s85wa/08w76y650.sdf

>  <i_m_source_file_index>  (17) 
10

>  <i_lp_mmshare_version>  (17) 
48012

>  <i_f3d_flags>  (17) 
0

>  <s_epik_input>  (17) 
W0NAQF0xMjNjNGM1W2NIXVtjSF1jKE9bQ0gzXSljNE9bQ0gyXVtDQEBIXTFbQ0BASF0oW0NASF0oW0NIM10pW09IXSlbQ0BASF0oT1tDSDNdKVtDQEBIXTJbQ0BIXShbQ0gyXTUpTihbQ0gzXSlbQ0gyXVtDSDJdMw==

>  <s_epik_cmdline>  (17) 
J2VwaWtfcHl0aG9uJywgJy1waHQnLCAnMi4wJywgJy1waCcsICc3LjAnLCAnLXRuJywgJzgnLCAnLW1hJywgJzIwMCcsICctaW1hZScsICc8aW5maWxlLm1hZT4nLCAnLW9tYWUnLCAnPG91dGZpbGUubWFlPic=

>  <r_lp_tautomer_probability>  (17) 
1

>  <r_epik_Ionization_Penalty>  (17) 
0.0270431

>  <r_epik_Ionization_Penalty_Charging>  (17) 
0.0270431

>  <r_epik_Ionization_Penalty_Neutral>  (17) 
7.01497e-08

>  <r_epik_State_Penalty>  (17) 
0.0221113

>  <r_epik_Charging_Adjusted_Penalty>  (17) 
0.0491543

>  <i_epik_Tot_Q>  (17) 
1

>  <i_epik_Tot_abs_Q>  (17) 
1

>  <s_lp_Force_Field>  (17) 
OPLS3e

>  <r_lp_Energy>  (17) 
70.8289

>  <b_lp_Chiralities_Consistent>  (17) 
1

>  <s_lp_Variant>  (17) 
9:0-1

>  <s_i_glide_gridfile>  (17) 
pfpi4k_grid

>  <i_i_glide_lignum>  (17) 
10

>  <i_i_glide_rotatable_bonds>  (17) 
4

>  <r_i_docking_score>  (17) 
-3.06737

>  <r_i_glide_ligand_efficiency>  (17) 
-0.117976

>  <r_i_glide_ligand_efficiency_sa>  (17) 
-0.349503

>  <r_i_glide_ligand_efficiency_ln>  (17) 
-0.720363

>  <r_i_glide_gscore>  (17) 
-3.06737

>  <r_i_glide_lipo>  (17) 
-0.291199

>  <r_i_glide_hbond>  (17) 
0

>  <r_i_glide_metal>  (17) 
-0

>  <r_i_glide_rewards>  (17) 
-1.45136

>  <r_i_glide_evdw>  (17) 
-18.4467

>  <r_i_glide_ecoul>  (17) 
-3.53172

>  <r_i_glide_erotb>  (17) 
0.147605

>  <r_i_glide_esite>  (17) 
-0.0203299

>  <r_i_glide_emodel>  (17) 
-33.7905

>  <r_i_glide_energy>  (17) 
-21.9784

>  <r_i_glide_einternal>  (17) 
1.33928

>  <r_i_glide_intrahb_reward>  (17) 
-0.5

>  <i_i_glide_confnum>  (17) 
1

>  <i_i_glide_posenum>  (17) 
10

>  <r_i_glide_eff_state_penalty>  (17) 
0

>  <ligand_id>  (17) 
9

>  <original_smiles>  (17) 
COc1ccc2c3c1OCC1C(C(C)O)C(OC)C4C(C2)N(C)CCC314

>  <smiles>  (17) 
[H]OC([H])(C([H])([H])[H])C1([H])C([H])(OC([H])([H])[H])C2([H])C34c5c(c(OC([H])([H])[H])c([H])c([H])c5C([H])([H])C2([H])[N+]([H])(C([H])([H])[H])C([H])([H])C3([H])[H])OC([H])([H])C14[H]

$$$$
9:0:1
     RDKit          3D

 56 60  0  0  1  0  0  0  0  0999 V2000
    2.8233   -2.7883   -1.5785 C   0  0  0  0  0  0  0  0  0  0  0  0
    2.2793   -3.8537   -0.8098 O   0  0  0  0  0  0  0  0  0  0  0  0
    3.0740   -4.4513    0.1431 C   0  0  0  0  0  0  0  0  0  0  0  0
    4.3638   -3.9742    0.4879 C   0  0  0  0  0  0  0  0  0  0  0  0
    5.0921   -4.5745    1.5261 C   0  0  0  0  0  0  0  0  0  0  0  0
    4.5796   -5.7096    2.1734 C   0  0  0  0  0  0  0  0  0  0  0  0
    3.3330   -6.2450    1.7367 C   0  0  0  0  0  0  0  0  0  0  0  0
    2.5185   -5.5827    0.7875 C   0  0  0  0  0  0  0  0  0  0  0  0
    1.2092   -5.9118    0.5089 O   0  0  0  0  0  0  0  0  0  0  0  0
    0.6820   -7.1310    1.0046 C   0  0  0  0  0  0  0  0  0  0  0  0
    1.2759   -7.6047    2.3462 C   0  0  2  0  0  0  0  0  0  0  0  0
    0.9250   -6.7944    3.6233 C   0  0  1  0  0  0  0  0  0  0  0  0
   -0.3739   -7.2642    4.3427 C   0  0  2  0  0  0  0  0  0  0  0  0
   -1.5824   -7.5132    3.4233 C   0  0  0  0  0  0  0  0  0  0  0  0
   -0.7567   -6.2570    5.2529 O   0  0  0  0  0  0  0  0  0  0  0  0
    2.2244   -6.8370    4.5094 C   0  0  1  0  0  0  0  0  0  0  0  0
    1.9542   -7.2778    5.8416 O   0  0  0  0  0  0  0  0  0  0  0  0
    2.9953   -7.0522    6.7845 C   0  0  0  0  0  0  0  0  0  0  0  0
    3.1719   -7.7984    3.7546 C   0  0  2  0  0  0  0  0  0  0  0  0
    4.7148   -7.6929    3.8540 C   0  0  2  0  0  0  0  0  0  0  0  0
    5.1994   -6.3100    3.4264 C   0  0  0  0  0  0  0  0  0  0  0  0
    5.3795   -8.7690    3.0566 N   0  0  1  0  0  0  0  0  0  0  0  0
    5.3877  -10.0898    3.7329 C   0  0  0  0  0  0  0  0  0  0  0  0
    4.9348   -8.8503    1.6412 C   0  0  0  0  0  0  0  0  0  0  0  0
    3.4050   -8.7952    1.5326 C   0  0  0  0  0  0  0  0  0  0  0  0
    2.8038   -7.5889    2.2974 C   0  0  2  0  0  0  0  0  0  0  0  0
    2.0796   -2.4326   -2.2893 H   0  0  0  0  0  0  0  0  0  0  0  0
    3.6877   -3.1132   -2.1570 H   0  0  0  0  0  0  0  0  0  0  0  0
    3.1036   -1.9386   -0.9556 H   0  0  0  0  0  0  0  0  0  0  0  0
    4.7909   -3.1139    0.0066 H   0  0  0  0  0  0  0  0  0  0  0  0
    6.0341   -4.1458    1.8514 H   0  0  0  0  0  0  0  0  0  0  0  0
   -0.4013   -7.0365    1.0488 H   0  0  0  0  0  0  0  0  0  0  0  0
    0.8867   -7.8686    0.2508 H   0  0  0  0  0  0  0  0  0  0  0  0
    0.9502   -8.6317    2.5189 H   0  0  0  0  0  0  0  0  0  0  0  0
    0.7809   -5.7597    3.3136 H   0  0  0  0  0  0  0  0  0  0  0  0
   -0.1948   -8.1874    4.8961 H   0  0  0  0  0  0  0  0  0  0  0  0
   -1.4219   -8.3753    2.7762 H   0  0  0  0  0  0  0  0  0  0  0  0
   -1.8029   -6.6554    2.7866 H   0  0  0  0  0  0  0  0  0  0  0  0
   -2.4832   -7.7213    4.0001 H   0  0  0  0  0  0  0  0  0  0  0  0
   -0.1204   -6.2439    5.9521 H   0  0  0  0  0  0  0  0  0  0  0  0
    2.6390   -5.8254    4.5408 H   0  0  0  0  0  0  0  0  0  0  0  0
    2.6954   -7.4237    7.7636 H   0  0  0  0  0  0  0  0  0  0  0  0
    3.2311   -5.9906    6.8681 H   0  0  0  0  0  0  0  0  0  0  0  0
    3.9030   -7.5938    6.5400 H   0  0  0  0  0  0  0  0  0  0  0  0
    2.8721   -8.8040    4.0626 H   0  0  0  0  0  0  0  0  0  0  0  0
    5.0890   -7.8456    4.8639 H   0  0  0  0  0  0  0  0  0  0  0  0
    6.2863   -6.3050    3.3327 H   0  0  0  0  0  0  0  0  0  0  0  0
    4.9733   -5.6245    4.2400 H   0  0  0  0  0  0  0  0  0  0  0  0
    4.3819  -10.5143    3.7852 H   0  0  0  0  0  0  0  0  0  0  0  0
    5.7826  -10.0196    4.7519 H   0  0  0  0  0  0  0  0  0  0  0  0
    6.0185  -10.7933    3.1860 H   0  0  0  0  0  0  0  0  0  0  0  0
    5.3783   -8.0285    1.0813 H   0  0  0  0  0  0  0  0  0  0  0  0
    5.3191   -9.7645    1.1861 H   0  0  0  0  0  0  0  0  0  0  0  0
    3.1394   -8.7895    0.4847 H   0  0  0  0  0  0  0  0  0  0  0  0
    2.9892   -9.7315    1.9075 H   0  0  0  0  0  0  0  0  0  0  0  0
    6.3566   -8.5027    3.0212 H   0  0  0  0  0  0  0  0  0  0  0  0
  1  2  1  0
  1 27  1  0
  1 28  1  0
  1 29  1  0
  2  3  1  0
  3  8  2  0
  3  4  1  0
  4  5  2  0
  4 30  1  0
  5  6  1  0
  5 31  1  0
  6 21  1  0
  6  7  2  0
  7 26  1  0
  7  8  1  0
  8  9  1  0
  9 10  1  0
 10 11  1  0
 10 32  1  0
 10 33  1  0
 11 26  1  0
 11 12  1  0
 11 34  1  1
 12 13  1  0
 12 16  1  0
 12 35  1  6
 13 14  1  0
 13 15  1  0
 13 36  1  1
 14 37  1  0
 14 38  1  0
 14 39  1  0
 15 40  1  0
 16 17  1  0
 16 19  1  0
 16 41  1  1
 17 18  1  0
 18 42  1  0
 18 43  1  0
 18 44  1  0
 19 26  1  0
 19 20  1  0
 19 45  1  1
 20 21  1  0
 20 22  1  0
 20 46  1  1
 21 47  1  0
 21 48  1  0
 22 23  1  0
 22 24  1  0
 22 56  1  6
 23 49  1  0
 23 50  1  0
 23 51  1  0
 24 25  1  0
 24 52  1  0
 24 53  1  0
 26 25  1  6
 25 54  1  0
 25 55  1  0
M  CHG  1  22   1
M  END
>  <i_m_ct_stereo_status>  (18) 
1

>  <s_m_source_file>  (18) 
/var/tmp/pbs.5076255.sched01/tmp3z6s85wa/08w76y650.sdf

>  <i_m_source_file_index>  (18) 
10

>  <i_lp_mmshare_version>  (18) 
48012

>  <i_f3d_flags>  (18) 
0

>  <s_epik_input>  (18) 
W0NAQF0xMjNjNGM1W2NIXVtjSF1jKE9bQ0gzXSljNE9bQ0gyXVtDQEBIXTFbQ0BASF0oW0NASF0oW0NIM10pW09IXSlbQ0BASF0oT1tDSDNdKVtDQEBIXTJbQ0BIXShbQ0gyXTUpTihbQ0gzXSlbQ0gyXVtDSDJdMw==

>  <s_epik_cmdline>  (18) 
J2VwaWtfcHl0aG9uJywgJy1waHQnLCAnMi4wJywgJy1waCcsICc3LjAnLCAnLXRuJywgJzgnLCAnLW1hJywgJzIwMCcsICctaW1hZScsICc8aW5maWxlLm1hZT4nLCAnLW9tYWUnLCAnPG91dGZpbGUubWFlPic=

>  <r_lp_tautomer_probability>  (18) 
1

>  <r_epik_Ionization_Penalty>  (18) 
0.0270431

>  <r_epik_Ionization_Penalty_Charging>  (18) 
0.0270431

>  <r_epik_Ionization_Penalty_Neutral>  (18) 
7.01497e-08

>  <r_epik_State_Penalty>  (18) 
0.0221113

>  <r_epik_Charging_Adjusted_Penalty>  (18) 
0.0491543

>  <i_epik_Tot_Q>  (18) 
1

>  <i_epik_Tot_abs_Q>  (18) 
1

>  <s_lp_Force_Field>  (18) 
OPLS3e

>  <r_lp_Energy>  (18) 
70.8289

>  <b_lp_Chiralities_Consistent>  (18) 
1

>  <s_lp_Variant>  (18) 
9:0-1

>  <s_i_glide_gridfile>  (18) 
pfpi4k_grid

>  <i_i_glide_lignum>  (18) 
10

>  <i_i_glide_rotatable_bonds>  (18) 
4

>  <r_i_docking_score>  (18) 
-3.0175

>  <r_i_glide_ligand_efficiency>  (18) 
-0.116058

>  <r_i_glide_ligand_efficiency_sa>  (18) 
-0.34382

>  <r_i_glide_ligand_efficiency_ln>  (18) 
-0.708649

>  <r_i_glide_gscore>  (18) 
-3.0175

>  <r_i_glide_lipo>  (18) 
-0.106273

>  <r_i_glide_hbond>  (18) 
-0.16

>  <r_i_glide_metal>  (18) 
-0

>  <r_i_glide_rewards>  (18) 
-1.45136

>  <r_i_glide_evdw>  (18) 
-19.2099

>  <r_i_glide_ecoul>  (18) 
-3.23062

>  <r_i_glide_erotb>  (18) 
0.147605

>  <r_i_glide_esite>  (18) 
-0.00237979

>  <r_i_glide_emodel>  (18) 
-34.2326

>  <r_i_glide_energy>  (18) 
-22.4405

>  <r_i_glide_einternal>  (18) 
0.931004

>  <r_i_glide_intrahb_reward>  (18) 
-0.5

>  <i_i_glide_confnum>  (18) 
1

>  <i_i_glide_posenum>  (18) 
5

>  <r_i_glide_eff_state_penalty>  (18) 
0

>  <ligand_id>  (18) 
9

>  <original_smiles>  (18) 
COc1ccc2c3c1OCC1C(C(C)O)C(OC)C4C(C2)N(C)CCC314

>  <smiles>  (18) 
[H]OC([H])(C([H])([H])[H])C1([H])C([H])(OC([H])([H])[H])C2([H])C34c5c(c(OC([H])([H])[H])c([H])c([H])c5C([H])([H])C2([H])[N+]([H])(C([H])([H])[H])C([H])([H])C3([H])[H])OC([H])([H])C14[H]

$$$$
9:0:2
     RDKit          3D

 56 60  0  0  1  0  0  0  0  0999 V2000
    2.8695   -3.0157   -1.4936 C   0  0  0  0  0  0  0  0  0  0  0  0
    2.3054   -3.9744   -0.6081 O   0  0  0  0  0  0  0  0  0  0  0  0
    3.1475   -4.6835    0.2180 C   0  0  0  0  0  0  0  0  0  0  0  0
    4.5156   -4.3604    0.3878 C   0  0  0  0  0  0  0  0  0  0  0  0
    5.3078   -5.0652    1.3031 C   0  0  0  0  0  0  0  0  0  0  0  0
    4.7690   -6.1552    2.0025 C   0  0  0  0  0  0  0  0  0  0  0  0
    3.4249   -6.5445    1.7342 C   0  0  0  0  0  0  0  0  0  0  0  0
    2.5641   -5.7744    0.9114 C   0  0  0  0  0  0  0  0  0  0  0  0
    1.2053   -5.9642    0.8005 O   0  0  0  0  0  0  0  0  0  0  0  0
    0.6225   -7.1241    1.3637 C   0  0  0  0  0  0  0  0  0  0  0  0
    1.3313   -7.6929    2.6083 C   0  0  2  0  0  0  0  0  0  0  0  0
    1.2509   -6.8799    3.9338 C   0  0  1  0  0  0  0  0  0  0  0  0
    0.0158   -7.2237    4.8214 C   0  0  2  0  0  0  0  0  0  0  0  0
   -1.3323   -7.2395    4.0841 C   0  0  0  0  0  0  0  0  0  0  0  0
   -0.1159   -6.2549    5.8458 O   0  0  0  0  0  0  0  0  0  0  0  0
    2.6491   -7.0922    4.6272 C   0  0  1  0  0  0  0  0  0  0  0  0
    2.5334   -7.5673    5.9679 O   0  0  0  0  0  0  0  0  0  0  0  0
    3.7042   -7.4628    6.7662 C   0  0  0  0  0  0  0  0  0  0  0  0
    3.3746   -8.1260    3.7337 C   0  0  2  0  0  0  0  0  0  0  0  0
    4.9178   -8.1901    3.6244 C   0  0  2  0  0  0  0  0  0  0  0  0
    5.4881   -6.8552    3.1505 C   0  0  0  0  0  0  0  0  0  0  0  0
    5.3492   -9.3046    2.7262 N   0  0  1  0  0  0  0  0  0  0  0  0
    5.2933  -10.6410    3.3747 C   0  0  0  0  0  0  0  0  0  0  0  0
    4.7102   -9.2973    1.3840 C   0  0  0  0  0  0  0  0  0  0  0  0
    3.1828   -9.0882    1.4736 C   0  0  0  0  0  0  0  0  0  0  0  0
    2.8316   -7.8419    2.3417 C   0  0  2  0  0  0  0  0  0  0  0  0
    2.0763   -2.5606   -2.0816 H   0  0  0  0  0  0  0  0  0  0  0  0
    3.5627   -3.4794   -2.1946 H   0  0  0  0  0  0  0  0  0  0  0  0
    3.3750   -2.2125   -0.9592 H   0  0  0  0  0  0  0  0  0  0  0  0
    4.9699   -3.5382   -0.1362 H   0  0  0  0  0  0  0  0  0  0  0  0
    6.3249   -4.7496    1.5012 H   0  0  0  0  0  0  0  0  0  0  0  0
   -0.4249   -6.9189    1.5594 H   0  0  0  0  0  0  0  0  0  0  0  0
    0.6251   -7.8532    0.5624 H   0  0  0  0  0  0  0  0  0  0  0  0
    0.9212   -8.6840    2.8152 H   0  0  0  0  0  0  0  0  0  0  0  0
    1.1860   -5.8266    3.6597 H   0  0  0  0  0  0  0  0  0  0  0  0
    0.1543   -8.2008    5.2884 H   0  0  0  0  0  0  0  0  0  0  0  0
   -1.3905   -8.0605    3.3696 H   0  0  0  0  0  0  0  0  0  0  0  0
   -1.5089   -6.3066    3.5570 H   0  0  0  0  0  0  0  0  0  0  0  0
   -2.1598   -7.3734    4.7787 H   0  0  0  0  0  0  0  0  0  0  0  0
   -0.1897   -5.3982    5.4538 H   0  0  0  0  0  0  0  0  0  0  0  0
    3.1735   -6.1333    4.6212 H   0  0  0  0  0  0  0  0  0  0  0  0
    3.4941   -7.8206    7.7741 H   0  0  0  0  0  0  0  0  0  0  0  0
    4.0559   -6.4327    6.8318 H   0  0  0  0  0  0  0  0  0  0  0  0
    4.5083   -8.0887    6.3937 H   0  0  0  0  0  0  0  0  0  0  0  0
    3.0079   -9.1015    4.0650 H   0  0  0  0  0  0  0  0  0  0  0  0
    5.3987   -8.4063    4.5740 H   0  0  0  0  0  0  0  0  0  0  0  0
    6.5440   -6.9626    2.9024 H   0  0  0  0  0  0  0  0  0  0  0  0
    5.4510   -6.1686    3.9951 H   0  0  0  0  0  0  0  0  0  0  0  0
    4.2615  -10.9545    3.5599 H   0  0  0  0  0  0  0  0  0  0  0  0
    5.8309  -10.6399    4.3290 H   0  0  0  0  0  0  0  0  0  0  0  0
    5.7622  -11.3927    2.7323 H   0  0  0  0  0  0  0  0  0  0  0  0
    5.1538   -8.5063    0.7764 H   0  0  0  0  0  0  0  0  0  0  0  0
    4.9475  -10.2338    0.8771 H   0  0  0  0  0  0  0  0  0  0  0  0
    2.7705   -9.0441    0.4780 H   0  0  0  0  0  0  0  0  0  0  0  0
    2.7282   -9.9819    1.9154 H   0  0  0  0  0  0  0  0  0  0  0  0
    6.3309   -9.1451    2.5566 H   0  0  0  0  0  0  0  0  0  0  0  0
  1  2  1  0
  1 27  1  0
  1 28  1  0
  1 29  1  0
  2  3  1  0
  3  8  2  0
  3  4  1  0
  4  5  2  0
  4 30  1  0
  5  6  1  0
  5 31  1  0
  6 21  1  0
  6  7  2  0
  7 26  1  0
  7  8  1  0
  8  9  1  0
  9 10  1  0
 10 11  1  0
 10 32  1  0
 10 33  1  0
 11 26  1  0
 11 12  1  0
 11 34  1  1
 12 13  1  0
 12 16  1  0
 12 35  1  6
 13 14  1  0
 13 15  1  0
 13 36  1  1
 14 37  1  0
 14 38  1  0
 14 39  1  0
 15 40  1  0
 16 17  1  0
 16 19  1  0
 16 41  1  1
 17 18  1  0
 18 42  1  0
 18 43  1  0
 18 44  1  0
 19 26  1  0
 19 20  1  0
 19 45  1  1
 20 21  1  0
 20 22  1  0
 20 46  1  1
 21 47  1  0
 21 48  1  0
 22 23  1  0
 22 24  1  0
 22 56  1  6
 23 49  1  0
 23 50  1  0
 23 51  1  0
 24 25  1  0
 24 52  1  0
 24 53  1  0
 26 25  1  6
 25 54  1  0
 25 55  1  0
M  CHG  1  22   1
M  END
>  <i_m_ct_stereo_status>  (19) 
1

>  <s_m_source_file>  (19) 
/var/tmp/pbs.5076255.sched01/tmp3z6s85wa/08w76y650.sdf

>  <i_m_source_file_index>  (19) 
10

>  <i_lp_mmshare_version>  (19) 
48012

>  <i_f3d_flags>  (19) 
0

>  <s_epik_input>  (19) 
W0NAQF0xMjNjNGM1W2NIXVtjSF1jKE9bQ0gzXSljNE9bQ0gyXVtDQEBIXTFbQ0BASF0oW0NASF0oW0NIM10pW09IXSlbQ0BASF0oT1tDSDNdKVtDQEBIXTJbQ0BIXShbQ0gyXTUpTihbQ0gzXSlbQ0gyXVtDSDJdMw==

>  <s_epik_cmdline>  (19) 
J2VwaWtfcHl0aG9uJywgJy1waHQnLCAnMi4wJywgJy1waCcsICc3LjAnLCAnLXRuJywgJzgnLCAnLW1hJywgJzIwMCcsICctaW1hZScsICc8aW5maWxlLm1hZT4nLCAnLW9tYWUnLCAnPG91dGZpbGUubWFlPic=

>  <r_lp_tautomer_probability>  (19) 
1

>  <r_epik_Ionization_Penalty>  (19) 
0.0270431

>  <r_epik_Ionization_Penalty_Charging>  (19) 
0.0270431

>  <r_epik_Ionization_Penalty_Neutral>  (19) 
7.01497e-08

>  <r_epik_State_Penalty>  (19) 
0.0221113

>  <r_epik_Charging_Adjusted_Penalty>  (19) 
0.0491543

>  <i_epik_Tot_Q>  (19) 
1

>  <i_epik_Tot_abs_Q>  (19) 
1

>  <s_lp_Force_Field>  (19) 
OPLS3e

>  <r_lp_Energy>  (19) 
70.8289

>  <b_lp_Chiralities_Consistent>  (19) 
1

>  <s_lp_Variant>  (19) 
9:0-1

>  <s_i_glide_gridfile>  (19) 
pfpi4k_grid

>  <i_i_glide_lignum>  (19) 
10

>  <i_i_glide_rotatable_bonds>  (19) 
4

>  <r_i_docking_score>  (19) 
-2.65983

>  <r_i_glide_ligand_efficiency>  (19) 
-0.102301

>  <r_i_glide_ligand_efficiency_sa>  (19) 
-0.303067

>  <r_i_glide_ligand_efficiency_ln>  (19) 
-0.624652

>  <r_i_glide_gscore>  (19) 
-2.65983

>  <r_i_glide_lipo>  (19) 
-0.159002

>  <r_i_glide_hbond>  (19) 
-0.16

>  <r_i_glide_metal>  (19) 
-0

>  <r_i_glide_rewards>  (19) 
-0.95136

>  <r_i_glide_evdw>  (19) 
-19.4704

>  <r_i_glide_ecoul>  (19) 
-3.6765

>  <r_i_glide_erotb>  (19) 
0.147605

>  <r_i_glide_esite>  (19) 
-0.0120778

>  <r_i_glide_emodel>  (19) 
-29.3483

>  <r_i_glide_energy>  (19) 
-23.1469

>  <r_i_glide_einternal>  (19) 
0.436257

>  <r_i_glide_intrahb_reward>  (19) 
-0

>  <i_i_glide_confnum>  (19) 
3

>  <i_i_glide_posenum>  (19) 
2

>  <r_i_glide_eff_state_penalty>  (19) 
0

>  <ligand_id>  (19) 
9

>  <original_smiles>  (19) 
COc1ccc2c3c1OCC1C(C(C)O)C(OC)C4C(C2)N(C)CCC314

>  <smiles>  (19) 
[H]OC([H])(C([H])([H])[H])C1([H])C([H])(OC([H])([H])[H])C2([H])C34c5c(c(OC([H])([H])[H])c([H])c([H])c5C([H])([H])C2([H])[N+]([H])(C([H])([H])[H])C([H])([H])C3([H])[H])OC([H])([H])C14[H]

$$$$
9:1:0
     RDKit          3D

 55 59  0  0  1  0  0  0  0  0999 V2000
    2.2395   -3.3222   -1.7119 C   0  0  0  0  0  0  0  0  0  0  0  0
    1.8095   -4.2610   -0.7329 O   0  0  0  0  0  0  0  0  0  0  0  0
    2.7532   -4.8173    0.1080 C   0  0  0  0  0  0  0  0  0  0  0  0
    4.1042   -4.3949    0.1328 C   0  0  0  0  0  0  0  0  0  0  0  0
    5.0040   -4.9610    1.0516 C   0  0  0  0  0  0  0  0  0  0  0  0
    4.5978   -5.9997    1.8961 C   0  0  0  0  0  0  0  0  0  0  0  0
    3.2575   -6.4752    1.7967 C   0  0  0  0  0  0  0  0  0  0  0  0
    2.2714   -5.8599    0.9550 C   0  0  0  0  0  0  0  0  0  0  0  0
    0.9392   -6.1551    0.9451 O   0  0  0  0  0  0  0  0  0  0  0  0
    0.4444   -7.1998    1.7698 C   0  0  0  0  0  0  0  0  0  0  0  0
    1.2933   -7.5366    3.0119 C   0  0  2  0  0  0  0  0  0  0  0  0
    1.3256   -6.5230    4.1976 C   0  0  1  0  0  0  0  0  0  0  0  0
    0.1477   -6.6860    5.2013 C   0  0  2  0  0  0  0  0  0  0  0  0
    0.0559   -5.5667    6.2613 C   0  0  0  0  0  0  0  0  0  0  0  0
    0.2515   -7.9193    5.8714 O   0  0  0  0  0  0  0  0  0  0  0  0
    2.7764   -6.6329    4.7993 C   0  0  1  0  0  0  0  0  0  0  0  0
    2.7628   -6.9555    6.1869 O   0  0  0  0  0  0  0  0  0  0  0  0
    3.9889   -6.7828    6.8759 C   0  0  0  0  0  0  0  0  0  0  0  0
    3.4407   -7.7619    3.9856 C   0  0  2  0  0  0  0  0  0  0  0  0
    4.9681   -7.7921    3.7611 C   0  0  2  0  0  0  0  0  0  0  0  0
    5.4528   -6.5673    3.0099 C   0  0  0  0  0  0  0  0  0  0  0  0
    5.3667   -9.0001    3.0177 N   0  0  0  0  0  0  0  0  0  0  0  0
    5.4275  -10.1797    3.8737 C   0  0  0  0  0  0  0  0  0  0  0  0
    4.6192   -9.2288    1.7721 C   0  0  0  0  0  0  0  0  0  0  0  0
    3.0947   -9.0292    1.9236 C   0  0  0  0  0  0  0  0  0  0  0  0
    2.7670   -7.6875    2.6298 C   0  0  2  0  0  0  0  0  0  0  0  0
    1.3832   -3.0109   -2.3057 H   0  0  0  0  0  0  0  0  0  0  0  0
    2.9684   -3.7536   -2.4009 H   0  0  0  0  0  0  0  0  0  0  0  0
    2.6613   -2.4266   -1.2521 H   0  0  0  0  0  0  0  0  0  0  0  0
    4.4586   -3.6212   -0.5213 H   0  0  0  0  0  0  0  0  0  0  0  0
    6.0060   -4.5731    1.1203 H   0  0  0  0  0  0  0  0  0  0  0  0
   -0.5842   -6.9887    2.0606 H   0  0  0  0  0  0  0  0  0  0  0  0
    0.3996   -8.0835    1.1363 H   0  0  0  0  0  0  0  0  0  0  0  0
    0.9369   -8.4910    3.4051 H   0  0  0  0  0  0  0  0  0  0  0  0
    1.2317   -5.5283    3.7662 H   0  0  0  0  0  0  0  0  0  0  0  0
   -0.7948   -6.7093    4.6517 H   0  0  0  0  0  0  0  0  0  0  0  0
   -0.2014   -4.6133    5.8053 H   0  0  0  0  0  0  0  0  0  0  0  0
    0.9866   -5.4195    6.8100 H   0  0  0  0  0  0  0  0  0  0  0  0
   -0.7081   -5.8058    7.0041 H   0  0  0  0  0  0  0  0  0  0  0  0
    1.1176   -7.9598    6.2478 H   0  0  0  0  0  0  0  0  0  0  0  0
    3.2763   -5.6764    4.6328 H   0  0  0  0  0  0  0  0  0  0  0  0
    3.8324   -6.9747    7.9371 H   0  0  0  0  0  0  0  0  0  0  0  0
    4.3701   -5.7683    6.7621 H   0  0  0  0  0  0  0  0  0  0  0  0
    4.7406   -7.4928    6.5529 H   0  0  0  0  0  0  0  0  0  0  0  0
    3.1257   -8.6858    4.4774 H   0  0  0  0  0  0  0  0  0  0  0  0
    5.5368   -7.8271    4.6835 H   0  0  0  0  0  0  0  0  0  0  0  0
    6.4722   -6.7298    2.6428 H   0  0  0  0  0  0  0  0  0  0  0  0
    5.5290   -5.7550    3.7435 H   0  0  0  0  0  0  0  0  0  0  0  0
    5.8662  -11.0122    3.3256 H   0  0  0  0  0  0  0  0  0  0  0  0
    4.4493  -10.4860    4.2460 H   0  0  0  0  0  0  0  0  0  0  0  0
    6.0760   -9.9887    4.7337 H   0  0  0  0  0  0  0  0  0  0  0  0
    4.9943   -8.5398    1.0159 H   0  0  0  0  0  0  0  0  0  0  0  0
    4.8396  -10.2307    1.4079 H   0  0  0  0  0  0  0  0  0  0  0  0
    2.6088   -9.1097    0.9509 H   0  0  0  0  0  0  0  0  0  0  0  0
    2.6985   -9.8589    2.5177 H   0  0  0  0  0  0  0  0  0  0  0  0
  1  2  1  0
  1 27  1  0
  1 28  1  0
  1 29  1  0
  2  3  1  0
  3  8  2  0
  3  4  1  0
  4  5  2  0
  4 30  1  0
  5  6  1  0
  5 31  1  0
  6 21  1  0
  6  7  2  0
  7 26  1  0
  7  8  1  0
  8  9  1  0
  9 10  1  0
 10 11  1  0
 10 32  1  0
 10 33  1  0
 11 26  1  0
 11 12  1  0
 11 34  1  1
 12 13  1  0
 12 16  1  0
 12 35  1  6
 13 14  1  0
 13 15  1  0
 13 36  1  6
 14 37  1  0
 14 38  1  0
 14 39  1  0
 15 40  1  0
 16 17  1  0
 16 19  1  0
 16 41  1  1
 17 18  1  0
 18 42  1  0
 18 43  1  0
 18 44  1  0
 19 26  1  0
 19 20  1  0
 19 45  1  1
 20 21  1  0
 20 22  1  0
 20 46  1  1
 21 47  1  0
 21 48  1  0
 22 23  1  0
 22 24  1  0
 23 49  1  0
 23 50  1  0
 23 51  1  0
 24 25  1  0
 24 52  1  0
 24 53  1  0
 26 25  1  6
 25 54  1  0
 25 55  1  0
M  END
>  <i_m_ct_stereo_status>  (20) 
1

>  <s_m_source_file>  (20) 
/var/tmp/pbs.5076255.sched01/tmp3z6s85wa/08w76y650.sdf

>  <i_m_source_file_index>  (20) 
11

>  <i_lp_mmshare_version>  (20) 
48012

>  <i_f3d_flags>  (20) 
0

>  <s_epik_input>  (20) 
W0NAQF0xMjNjNGM1W2NIXVtjSF1jKE9bQ0gzXSljNE9bQ0gyXVtDQEBIXTFbQ0BASF0oW0NASF0oW0NIM10pW09IXSlbQ0BASF0oT1tDSDNdKVtDQEBIXTJbQ0BIXShbQ0gyXTUpTihbQ0gzXSlbQ0gyXVtDSDJdMw==

>  <s_epik_cmdline>  (20) 
J2VwaWtfcHl0aG9uJywgJy1waHQnLCAnMi4wJywgJy1waCcsICc3LjAnLCAnLXRuJywgJzgnLCAnLW1hJywgJzIwMCcsICctaW1hZScsICc8aW5maWxlLm1hZT4nLCAnLW9tYWUnLCAnPG91dGZpbGUubWFlPic=

>  <r_lp_tautomer_probability>  (20) 
1

>  <r_epik_Ionization_Penalty>  (20) 
1.84241

>  <r_epik_Ionization_Penalty_Charging>  (20) 
0

>  <r_epik_Ionization_Penalty_Neutral>  (20) 
1.84241

>  <r_epik_State_Penalty>  (20) 
1.95926

>  <r_epik_Charging_Adjusted_Penalty>  (20) 
1.95926

>  <i_epik_Tot_Q>  (20) 
0

>  <i_epik_Tot_abs_Q>  (20) 
0

>  <s_lp_Force_Field>  (20) 
OPLS3e

>  <r_lp_Energy>  (20) 
65.3471

>  <b_lp_Chiralities_Consistent>  (20) 
1

>  <s_lp_Variant>  (20) 
9:0-2

>  <s_i_glide_gridfile>  (20) 
pfpi4k_grid

>  <i_i_glide_lignum>  (20) 
11

>  <i_i_glide_rotatable_bonds>  (20) 
4

>  <r_i_docking_score>  (20) 
-3.11171

>  <r_i_glide_ligand_efficiency>  (20) 
-0.119681

>  <r_i_glide_ligand_efficiency_sa>  (20) 
-0.354555

>  <r_i_glide_ligand_efficiency_ln>  (20) 
-0.730775

>  <r_i_glide_gscore>  (20) 
-3.11171

>  <r_i_glide_lipo>  (20) 
-0.27775

>  <r_i_glide_hbond>  (20) 
-0.16

>  <r_i_glide_metal>  (20) 
-0

>  <r_i_glide_rewards>  (20) 
-1.45823

>  <r_i_glide_evdw>  (20) 
-18.3385

>  <r_i_glide_ecoul>  (20) 
-2.98097

>  <r_i_glide_erotb>  (20) 
0.148344

>  <r_i_glide_esite>  (20) 
0

>  <r_i_glide_emodel>  (20) 
-30.4765

>  <r_i_glide_energy>  (20) 
-21.3195

>  <r_i_glide_einternal>  (20) 
2.03833

>  <r_i_glide_intrahb_reward>  (20) 
-0.5

>  <i_i_glide_confnum>  (20) 
2

>  <i_i_glide_posenum>  (20) 
30

>  <r_i_glide_eff_state_penalty>  (20) 
0

>  <ligand_id>  (20) 
9

>  <original_smiles>  (20) 
COc1ccc2c3c1OCC1C(C(C)O)C(OC)C4C(C2)N(C)CCC314

>  <smiles>  (20) 
[H]OC([H])(C([H])([H])[H])C1([H])C([H])(OC([H])([H])[H])C2([H])C3([H])N(C([H])([H])[H])C([H])([H])C([H])([H])C24c2c(c(OC([H])([H])[H])c([H])c([H])c2C3([H])[H])OC([H])([H])C14[H]

$$$$
9:1:1
     RDKit          3D

 55 59  0  0  1  0  0  0  0  0999 V2000
    2.2154   -3.3896   -1.6537 C   0  0  0  0  0  0  0  0  0  0  0  0
    1.8220   -4.3793   -0.7150 O   0  0  0  0  0  0  0  0  0  0  0  0
    2.7721   -4.9227    0.1181 C   0  0  0  0  0  0  0  0  0  0  0  0
    4.1059   -4.4654    0.1551 C   0  0  0  0  0  0  0  0  0  0  0  0
    5.0246   -5.0274    1.0623 C   0  0  0  0  0  0  0  0  0  0  0  0
    4.6497   -6.0955    1.8838 C   0  0  0  0  0  0  0  0  0  0  0  0
    3.3239   -6.5991    1.7770 C   0  0  0  0  0  0  0  0  0  0  0  0
    2.3191   -5.9870    0.9556 C   0  0  0  0  0  0  0  0  0  0  0  0
    0.9873   -6.2898    0.9669 O   0  0  0  0  0  0  0  0  0  0  0  0
    0.5336   -7.3850    1.7513 C   0  0  0  0  0  0  0  0  0  0  0  0
    1.3961   -7.7404    2.9793 C   0  0  2  0  0  0  0  0  0  0  0  0
    1.4067   -6.7680    4.1975 C   0  0  1  0  0  0  0  0  0  0  0  0
    0.2290   -6.9875    5.1992 C   0  0  2  0  0  0  0  0  0  0  0  0
    0.1232   -5.8820    6.2734 C   0  0  0  0  0  0  0  0  0  0  0  0
    0.2587   -8.2473    5.8488 O   0  0  0  0  0  0  0  0  0  0  0  0
    2.8656   -6.8405    4.7801 C   0  0  1  0  0  0  0  0  0  0  0  0
    2.8774   -7.1755    6.1616 O   0  0  0  0  0  0  0  0  0  0  0  0
    4.1043   -7.0057    6.8443 C   0  0  0  0  0  0  0  0  0  0  0  0
    3.5533   -7.9348    3.9379 C   0  0  2  0  0  0  0  0  0  0  0  0
    5.0800   -7.9208    3.7047 C   0  0  2  0  0  0  0  0  0  0  0  0
    5.5294   -6.6631    2.9839 C   0  0  0  0  0  0  0  0  0  0  0  0
    5.5089   -9.0990    2.9303 N   0  0  0  0  0  0  0  0  0  0  0  0
    5.6039  -10.2984    3.7556 C   0  0  0  0  0  0  0  0  0  0  0  0
    4.7591   -9.3171    1.6844 C   0  0  0  0  0  0  0  0  0  0  0  0
    3.2300   -9.1634    1.8479 C   0  0  0  0  0  0  0  0  0  0  0  0
    2.8710   -7.8454    2.5857 C   0  0  2  0  0  0  0  0  0  0  0  0
    1.3437   -3.0733   -2.2236 H   0  0  0  0  0  0  0  0  0  0  0  0
    2.9465   -3.7787   -2.3608 H   0  0  0  0  0  0  0  0  0  0  0  0
    2.6185   -2.5050   -1.1633 H   0  0  0  0  0  0  0  0  0  0  0  0
    4.4482   -3.6657   -0.4740 H   0  0  0  0  0  0  0  0  0  0  0  0
    6.0195   -4.6166    1.1421 H   0  0  0  0  0  0  0  0  0  0  0  0
   -0.5018   -7.2171    2.0459 H   0  0  0  0  0  0  0  0  0  0  0  0
    0.5196   -8.2527    1.0947 H   0  0  0  0  0  0  0  0  0  0  0  0
    1.0658   -8.7142    3.3420 H   0  0  0  0  0  0  0  0  0  0  0  0
    1.2880   -5.7659    3.7900 H   0  0  0  0  0  0  0  0  0  0  0  0
   -0.7032   -6.9852    4.6336 H   0  0  0  0  0  0  0  0  0  0  0  0
   -0.1675   -4.9276    5.8390 H   0  0  0  0  0  0  0  0  0  0  0  0
    1.0571   -5.7201    6.8126 H   0  0  0  0  0  0  0  0  0  0  0  0
   -0.6183   -6.1522    7.0258 H   0  0  0  0  0  0  0  0  0  0  0  0
    0.3254   -8.9372    5.2168 H   0  0  0  0  0  0  0  0  0  0  0  0
    3.3414   -5.8681    4.6231 H   0  0  0  0  0  0  0  0  0  0  0  0
    3.9558   -7.2354    7.8978 H   0  0  0  0  0  0  0  0  0  0  0  0
    4.4678   -5.9820    6.7639 H   0  0  0  0  0  0  0  0  0  0  0  0
    4.8673   -7.6917    6.4969 H   0  0  0  0  0  0  0  0  0  0  0  0
    3.2681   -8.8774    4.4121 H   0  0  0  0  0  0  0  0  0  0  0  0
    5.6517   -7.9658    4.6253 H   0  0  0  0  0  0  0  0  0  0  0  0
    6.5477   -6.7907    2.6029 H   0  0  0  0  0  0  0  0  0  0  0  0
    5.5938   -5.8691    3.7360 H   0  0  0  0  0  0  0  0  0  0  0  0
    6.0592  -11.1066    3.1853 H   0  0  0  0  0  0  0  0  0  0  0  0
    4.6356  -10.6377    4.1244 H   0  0  0  0  0  0  0  0  0  0  0  0
    6.2518  -10.1132    4.6171 H   0  0  0  0  0  0  0  0  0  0  0  0
    5.1096   -8.6008    0.9418 H   0  0  0  0  0  0  0  0  0  0  0  0
    5.0138  -10.3004    1.2962 H   0  0  0  0  0  0  0  0  0  0  0  0
    2.7431   -9.2319    0.8755 H   0  0  0  0  0  0  0  0  0  0  0  0
    2.8577  -10.0193    2.4202 H   0  0  0  0  0  0  0  0  0  0  0  0
  1  2  1  0
  1 27  1  0
  1 28  1  0
  1 29  1  0
  2  3  1  0
  3  8  2  0
  3  4  1  0
  4  5  2  0
  4 30  1  0
  5  6  1  0
  5 31  1  0
  6 21  1  0
  6  7  2  0
  7 26  1  0
  7  8  1  0
  8  9  1  0
  9 10  1  0
 10 11  1  0
 10 32  1  0
 10 33  1  0
 11 26  1  0
 11 12  1  0
 11 34  1  1
 12 13  1  0
 12 16  1  0
 12 35  1  6
 13 14  1  0
 13 15  1  0
 13 36  1  6
 14 37  1  0
 14 38  1  0
 14 39  1  0
 15 40  1  0
 16 17  1  0
 16 19  1  0
 16 41  1  1
 17 18  1  0
 18 42  1  0
 18 43  1  0
 18 44  1  0
 19 26  1  0
 19 20  1  0
 19 45  1  1
 20 21  1  0
 20 22  1  0
 20 46  1  1
 21 47  1  0
 21 48  1  0
 22 23  1  0
 22 24  1  0
 23 49  1  0
 23 50  1  0
 23 51  1  0
 24 25  1  0
 24 52  1  0
 24 53  1  0
 26 25  1  6
 25 54  1  0
 25 55  1  0
M  END
>  <i_m_ct_stereo_status>  (21) 
1

>  <s_m_source_file>  (21) 
/var/tmp/pbs.5076255.sched01/tmp3z6s85wa/08w76y650.sdf

>  <i_m_source_file_index>  (21) 
11

>  <i_lp_mmshare_version>  (21) 
48012

>  <i_f3d_flags>  (21) 
0

>  <s_epik_input>  (21) 
W0NAQF0xMjNjNGM1W2NIXVtjSF1jKE9bQ0gzXSljNE9bQ0gyXVtDQEBIXTFbQ0BASF0oW0NASF0oW0NIM10pW09IXSlbQ0BASF0oT1tDSDNdKVtDQEBIXTJbQ0BIXShbQ0gyXTUpTihbQ0gzXSlbQ0gyXVtDSDJdMw==

>  <s_epik_cmdline>  (21) 
J2VwaWtfcHl0aG9uJywgJy1waHQnLCAnMi4wJywgJy1waCcsICc3LjAnLCAnLXRuJywgJzgnLCAnLW1hJywgJzIwMCcsICctaW1hZScsICc8aW5maWxlLm1hZT4nLCAnLW9tYWUnLCAnPG91dGZpbGUubWFlPic=

>  <r_lp_tautomer_probability>  (21) 
1

>  <r_epik_Ionization_Penalty>  (21) 
1.84241

>  <r_epik_Ionization_Penalty_Charging>  (21) 
0

>  <r_epik_Ionization_Penalty_Neutral>  (21) 
1.84241

>  <r_epik_State_Penalty>  (21) 
1.95926

>  <r_epik_Charging_Adjusted_Penalty>  (21) 
1.95926

>  <i_epik_Tot_Q>  (21) 
0

>  <i_epik_Tot_abs_Q>  (21) 
0

>  <s_lp_Force_Field>  (21) 
OPLS3e

>  <r_lp_Energy>  (21) 
65.3471

>  <b_lp_Chiralities_Consistent>  (21) 
1

>  <s_lp_Variant>  (21) 
9:0-2

>  <s_i_glide_gridfile>  (21) 
pfpi4k_grid

>  <i_i_glide_lignum>  (21) 
11

>  <i_i_glide_rotatable_bonds>  (21) 
4

>  <r_i_docking_score>  (21) 
-2.69257

>  <r_i_glide_ligand_efficiency>  (21) 
-0.10356

>  <r_i_glide_ligand_efficiency_sa>  (21) 
-0.306797

>  <r_i_glide_ligand_efficiency_ln>  (21) 
-0.632341

>  <r_i_glide_gscore>  (21) 
-2.69257

>  <r_i_glide_lipo>  (21) 
-0.288875

>  <r_i_glide_hbond>  (21) 
-0.16111

>  <r_i_glide_metal>  (21) 
-0

>  <r_i_glide_rewards>  (21) 
-0.958232

>  <r_i_glide_evdw>  (21) 
-18.7805

>  <r_i_glide_ecoul>  (21) 
-3.29112

>  <r_i_glide_erotb>  (21) 
0.148344

>  <r_i_glide_esite>  (21) 
0

>  <r_i_glide_emodel>  (21) 
-25.3052

>  <r_i_glide_energy>  (21) 
-22.0716

>  <r_i_glide_einternal>  (21) 
2.33783

>  <r_i_glide_intrahb_reward>  (21) 
-0

>  <i_i_glide_confnum>  (21) 
2

>  <i_i_glide_posenum>  (21) 
14

>  <r_i_glide_eff_state_penalty>  (21) 
0

>  <ligand_id>  (21) 
9

>  <original_smiles>  (21) 
COc1ccc2c3c1OCC1C(C(C)O)C(OC)C4C(C2)N(C)CCC314

>  <smiles>  (21) 
[H]OC([H])(C([H])([H])[H])C1([H])C([H])(OC([H])([H])[H])C2([H])C3([H])N(C([H])([H])[H])C([H])([H])C([H])([H])C24c2c(c(OC([H])([H])[H])c([H])c([H])c2C3([H])[H])OC([H])([H])C14[H]

$$$$
9:1:2
     RDKit          3D

 55 59  0  0  1  0  0  0  0  0999 V2000
    4.4210   -2.0006    3.0374 C   0  0  0  0  0  0  0  0  0  0  0  0
    3.7590   -3.1525    2.5376 O   0  0  0  0  0  0  0  0  0  0  0  0
    3.9910   -4.3685    3.1453 C   0  0  0  0  0  0  0  0  0  0  0  0
    4.8351   -4.5129    4.2687 C   0  0  0  0  0  0  0  0  0  0  0  0
    4.9887   -5.7651    4.8853 C   0  0  0  0  0  0  0  0  0  0  0  0
    4.3710   -6.9003    4.3459 C   0  0  0  0  0  0  0  0  0  0  0  0
    3.5884   -6.7558    3.1688 C   0  0  0  0  0  0  0  0  0  0  0  0
    3.3178   -5.4852    2.5916 C   0  0  0  0  0  0  0  0  0  0  0  0
    2.3826   -5.2482    1.6016 O   0  0  0  0  0  0  0  0  0  0  0  0
    1.7620   -6.3548    0.9633 C   0  0  0  0  0  0  0  0  0  0  0  0
    1.6213   -7.6275    1.8292 C   0  0  2  0  0  0  0  0  0  0  0  0
    0.6297   -7.6110    3.0316 C   0  0  1  0  0  0  0  0  0  0  0  0
   -0.8493   -7.9380    2.6547 C   0  0  2  0  0  0  0  0  0  0  0  0
   -1.8453   -7.6991    3.8115 C   0  0  0  0  0  0  0  0  0  0  0  0
   -1.0426   -9.2559    2.1713 O   0  0  0  0  0  0  0  0  0  0  0  0
    1.2960   -8.5051    4.1390 C   0  0  1  0  0  0  0  0  0  0  0  0
    0.4377   -9.5559    4.5660 O   0  0  0  0  0  0  0  0  0  0  0  0
    0.8541  -10.2905    5.7036 C   0  0  0  0  0  0  0  0  0  0  0  0
    2.5586   -9.0729    3.4601 C   0  0  2  0  0  0  0  0  0  0  0  0
    3.8122   -9.4547    4.2839 C   0  0  2  0  0  0  0  0  0  0  0  0
    4.3725   -8.2561    5.0437 C   0  0  0  0  0  0  0  0  0  0  0  0
    4.8582  -10.0253    3.4216 N   0  0  0  0  0  0  0  0  0  0  0  0
    4.5939  -11.4237    3.1004 C   0  0  0  0  0  0  0  0  0  0  0  0
    5.1909   -9.2156    2.2384 C   0  0  0  0  0  0  0  0  0  0  0  0
    3.9532   -8.6688    1.4951 C   0  0  0  0  0  0  0  0  0  0  0  0
    2.9625   -7.9902    2.4743 C   0  0  2  0  0  0  0  0  0  0  0  0
    4.1298   -1.1354    2.4443 H   0  0  0  0  0  0  0  0  0  0  0  0
    5.5041   -2.0974    2.9654 H   0  0  0  0  0  0  0  0  0  0  0  0
    4.1446   -1.7962    4.0709 H   0  0  0  0  0  0  0  0  0  0  0  0
    5.3500   -3.6731    4.7042 H   0  0  0  0  0  0  0  0  0  0  0  0
    5.5710   -5.8487    5.7926 H   0  0  0  0  0  0  0  0  0  0  0  0
    0.7876   -6.0506    0.5864 H   0  0  0  0  0  0  0  0  0  0  0  0
    2.3681   -6.5688    0.0843 H   0  0  0  0  0  0  0  0  0  0  0  0
    1.3214   -8.4467    1.1773 H   0  0  0  0  0  0  0  0  0  0  0  0
    0.6336   -6.5919    3.4232 H   0  0  0  0  0  0  0  0  0  0  0  0
   -1.1384   -7.2855    1.8302 H   0  0  0  0  0  0  0  0  0  0  0  0
   -1.9292   -6.6441    4.0675 H   0  0  0  0  0  0  0  0  0  0  0  0
   -1.5735   -8.2295    4.7241 H   0  0  0  0  0  0  0  0  0  0  0  0
   -2.8379   -8.0540    3.5349 H   0  0  0  0  0  0  0  0  0  0  0  0
   -0.4793   -9.4232    1.4223 H   0  0  0  0  0  0  0  0  0  0  0  0
    1.5562   -7.8673    4.9895 H   0  0  0  0  0  0  0  0  0  0  0  0
    0.0819  -11.0107    5.9660 H   0  0  0  0  0  0  0  0  0  0  0  0
    1.0172   -9.6402    6.5625 H   0  0  0  0  0  0  0  0  0  0  0  0
    1.7503  -10.8724    5.5106 H   0  0  0  0  0  0  0  0  0  0  0  0
    2.2133   -9.9441    2.8997 H   0  0  0  0  0  0  0  0  0  0  0  0
    3.5983  -10.2125    5.0356 H   0  0  0  0  0  0  0  0  0  0  0  0
    5.3819   -8.4829    5.3914 H   0  0  0  0  0  0  0  0  0  0  0  0
    3.7606   -8.1299    5.9362 H   0  0  0  0  0  0  0  0  0  0  0  0
    5.4460  -11.8553    2.5780 H   0  0  0  0  0  0  0  0  0  0  0  0
    3.7051  -11.5482    2.4813 H   0  0  0  0  0  0  0  0  0  0  0  0
    4.4437  -12.0045    4.0121 H   0  0  0  0  0  0  0  0  0  0  0  0
    5.8088   -8.3777    2.5691 H   0  0  0  0  0  0  0  0  0  0  0  0
    5.8105   -9.8082    1.5681 H   0  0  0  0  0  0  0  0  0  0  0  0
    4.2719   -7.9826    0.7073 H   0  0  0  0  0  0  0  0  0  0  0  0
    3.4635   -9.5006    0.9860 H   0  0  0  0  0  0  0  0  0  0  0  0
  1  2  1  0
  1 27  1  0
  1 28  1  0
  1 29  1  0
  2  3  1  0
  3  8  2  0
  3  4  1  0
  4  5  2  0
  4 30  1  0
  5  6  1  0
  5 31  1  0
  6 21  1  0
  6  7  2  0
  7 26  1  0
  7  8  1  0
  8  9  1  0
  9 10  1  0
 10 11  1  0
 10 32  1  0
 10 33  1  0
 11 26  1  0
 11 12  1  0
 11 34  1  6
 12 13  1  0
 12 16  1  0
 12 35  1  1
 13 14  1  0
 13 15  1  0
 13 36  1  6
 14 37  1  0
 14 38  1  0
 14 39  1  0
 15 40  1  0
 16 17  1  0
 16 19  1  0
 16 41  1  1
 17 18  1  0
 18 42  1  0
 18 43  1  0
 18 44  1  0
 19 26  1  0
 19 20  1  0
 19 45  1  6
 20 21  1  0
 20 22  1  0
 20 46  1  1
 21 47  1  0
 21 48  1  0
 22 23  1  0
 22 24  1  0
 23 49  1  0
 23 50  1  0
 23 51  1  0
 24 25  1  0
 24 52  1  0
 24 53  1  0
 26 25  1  6
 25 54  1  0
 25 55  1  0
M  END
>  <i_m_ct_stereo_status>  (22) 
1

>  <s_m_source_file>  (22) 
/var/tmp/pbs.5076255.sched01/tmp3z6s85wa/08w76y650.sdf

>  <i_m_source_file_index>  (22) 
11

>  <i_lp_mmshare_version>  (22) 
48012

>  <i_f3d_flags>  (22) 
0

>  <s_epik_input>  (22) 
W0NAQF0xMjNjNGM1W2NIXVtjSF1jKE9bQ0gzXSljNE9bQ0gyXVtDQEBIXTFbQ0BASF0oW0NASF0oW0NIM10pW09IXSlbQ0BASF0oT1tDSDNdKVtDQEBIXTJbQ0BIXShbQ0gyXTUpTihbQ0gzXSlbQ0gyXVtDSDJdMw==

>  <s_epik_cmdline>  (22) 
J2VwaWtfcHl0aG9uJywgJy1waHQnLCAnMi4wJywgJy1waCcsICc3LjAnLCAnLXRuJywgJzgnLCAnLW1hJywgJzIwMCcsICctaW1hZScsICc8aW5maWxlLm1hZT4nLCAnLW9tYWUnLCAnPG91dGZpbGUubWFlPic=

>  <r_lp_tautomer_probability>  (22) 
1

>  <r_epik_Ionization_Penalty>  (22) 
1.84241

>  <r_epik_Ionization_Penalty_Charging>  (22) 
0

>  <r_epik_Ionization_Penalty_Neutral>  (22) 
1.84241

>  <r_epik_State_Penalty>  (22) 
1.95926

>  <r_epik_Charging_Adjusted_Penalty>  (22) 
1.95926

>  <i_epik_Tot_Q>  (22) 
0

>  <i_epik_Tot_abs_Q>  (22) 
0

>  <s_lp_Force_Field>  (22) 
OPLS3e

>  <r_lp_Energy>  (22) 
65.3471

>  <b_lp_Chiralities_Consistent>  (22) 
1

>  <s_lp_Variant>  (22) 
9:0-2

>  <s_i_glide_gridfile>  (22) 
pfpi4k_grid

>  <i_i_glide_lignum>  (22) 
11

>  <i_i_glide_rotatable_bonds>  (22) 
4

>  <r_i_docking_score>  (22) 
-2.11801

>  <r_i_glide_ligand_efficiency>  (22) 
-0.0814619

>  <r_i_glide_ligand_efficiency_sa>  (22) 
-0.241331

>  <r_i_glide_ligand_efficiency_ln>  (22) 
-0.497408

>  <r_i_glide_gscore>  (22) 
-2.11801

>  <r_i_glide_lipo>  (22) 
-0.0248335

>  <r_i_glide_hbond>  (22) 
0

>  <r_i_glide_metal>  (22) 
-0

>  <r_i_glide_rewards>  (22) 
-0.958232

>  <r_i_glide_evdw>  (22) 
-19.2905

>  <r_i_glide_ecoul>  (22) 
-2.12507

>  <r_i_glide_erotb>  (22) 
0.148344

>  <r_i_glide_esite>  (22) 
0

>  <r_i_glide_emodel>  (22) 
-23.7005

>  <r_i_glide_energy>  (22) 
-21.4156

>  <r_i_glide_einternal>  (22) 
2.16465

>  <r_i_glide_intrahb_reward>  (22) 
-0

>  <i_i_glide_confnum>  (22) 
4

>  <i_i_glide_posenum>  (22) 
22

>  <r_i_glide_eff_state_penalty>  (22) 
0

>  <ligand_id>  (22) 
9

>  <original_smiles>  (22) 
COc1ccc2c3c1OCC1C(C(C)O)C(OC)C4C(C2)N(C)CCC314

>  <smiles>  (22) 
[H]OC([H])(C([H])([H])[H])C1([H])C([H])(OC([H])([H])[H])C2([H])C3([H])N(C([H])([H])[H])C([H])([H])C([H])([H])C24c2c(c(OC([H])([H])[H])c([H])c([H])c2C3([H])[H])OC([H])([H])C14[H]

$$$$
10:1:0
     RDKit          3D

 53 58  0  0  1  0  0  0  0  0999 V2000
    5.8955   -0.6434    1.4537 O   0  0  0  0  0  0  0  0  0  0  0  0
    5.4251   -0.6120    2.5875 C   0  0  0  0  0  0  0  0  0  0  0  0
    5.7986    0.1408    3.6276 N   0  0  0  0  0  0  0  0  0  0  0  0
    5.0179   -0.1306    4.7248 C   0  0  0  0  0  0  0  0  0  0  0  0
    5.3827    0.6065    5.6679 O   0  0  0  0  0  0  0  0  0  0  0  0
    4.1448   -1.1160    4.3435 C   0  0  0  0  0  0  0  0  0  0  0  0
    3.1164   -1.7601    5.1574 C   0  0  0  0  0  0  0  0  0  0  0  0
    2.4207   -2.8831    4.8296 C   0  0  0  0  0  0  0  0  0  0  0  0
    1.4184   -3.5279    5.6402 C   0  0  0  0  0  0  0  0  0  0  0  0
    0.9304   -4.6019    5.1076 N   0  0  0  0  0  0  0  0  0  0  0  0
    1.5589   -4.7589    3.9319 N   0  0  0  0  0  0  0  0  0  0  0  0
    1.3655   -5.7712    2.9646 C   0  0  0  0  0  0  0  0  0  0  0  0
    0.4245   -6.7733    3.1644 N   0  0  0  0  0  0  0  0  0  0  0  0
    0.3242   -7.8785    2.2141 C   0  0  0  0  0  0  0  0  0  0  0  0
   -0.4943   -9.0956    2.5311 C   0  0  0  0  0  0  0  0  0  0  0  0
    1.0146   -9.1933    2.5120 C   0  0  0  0  0  0  0  0  0  0  0  0
    2.0594   -5.7284    1.8488 N   0  0  0  0  0  0  0  0  0  0  0  0
    2.9256   -4.6912    1.6672 C   0  0  0  0  0  0  0  0  0  0  0  0
    3.5318   -4.6536    0.5183 N   0  0  0  0  0  0  0  0  0  0  0  0
    4.5466   -3.6768    0.0504 C   0  0  2  0  0  0  0  0  0  0  0  0
    4.1961   -3.1208   -1.3235 C   0  0  0  0  0  0  0  0  0  0  0  0
    3.4697   -1.9149   -1.4323 C   0  0  0  0  0  0  0  0  0  0  0  0
    3.1869   -1.4063   -2.7135 C   0  0  0  0  0  0  0  0  0  0  0  0
    3.6254   -2.1221   -3.8379 C   0  0  0  0  0  0  0  0  0  0  0  0
    4.3367   -3.2614   -3.7547 N   0  0  0  0  0  0  0  0  0  0  0  0
    4.6155   -3.7432   -2.5234 C   0  0  0  0  0  0  0  0  0  0  0  0
    5.9237   -4.3093    0.0929 C   0  0  0  0  0  0  0  0  0  0  0  0
    6.8320   -4.0997    1.2808 C   0  0  0  0  0  0  0  0  0  0  0  0
    7.1573   -3.4496   -0.0434 C   0  0  0  0  0  0  0  0  0  0  0  0
    3.1551   -3.7043    2.5721 N   0  0  0  0  0  0  0  0  0  0  0  0
    2.4756   -3.7442    3.6850 C   0  0  0  0  0  0  0  0  0  0  0  0
    4.4166   -1.3487    3.0188 N   0  0  0  0  0  0  0  0  0  0  0  0
    6.5427    0.8188    3.6379 H   0  0  0  0  0  0  0  0  0  0  0  0
    3.9363   -2.0462    2.4687 H   0  0  0  0  0  0  0  0  0  0  0  0
    2.8996   -1.2627    6.1065 H   0  0  0  0  0  0  0  0  0  0  0  0
    1.1544   -3.0858    6.6027 H   0  0  0  0  0  0  0  0  0  0  0  0
    0.3573   -7.5354    1.1824 H   0  0  0  0  0  0  0  0  0  0  0  0
   -0.9996   -9.1365    3.4940 H   0  0  0  0  0  0  0  0  0  0  0  0
   -1.0285   -9.5495    1.6983 H   0  0  0  0  0  0  0  0  0  0  0  0
    1.4523   -9.7449    1.6770 H   0  0  0  0  0  0  0  0  0  0  0  0
    1.5300   -9.3236    3.4616 H   0  0  0  0  0  0  0  0  0  0  0  0
    4.5539   -2.8271    0.7347 H   0  0  0  0  0  0  0  0  0  0  0  0
    3.1469   -1.3811   -0.5520 H   0  0  0  0  0  0  0  0  0  0  0  0
    2.6263   -0.4912   -2.8242 H   0  0  0  0  0  0  0  0  0  0  0  0
    3.4098   -1.7669   -4.8314 H   0  0  0  0  0  0  0  0  0  0  0  0
    5.1804   -4.6610   -2.5084 H   0  0  0  0  0  0  0  0  0  0  0  0
    5.9798   -5.2921   -0.3752 H   0  0  0  0  0  0  0  0  0  0  0  0
    6.4642   -3.4619    2.0835 H   0  0  0  0  0  0  0  0  0  0  0  0
    7.4481   -4.9401    1.5920 H   0  0  0  0  0  0  0  0  0  0  0  0
    7.9925   -3.8544   -0.6060 H   0  0  0  0  0  0  0  0  0  0  0  0
    7.0147   -2.3739   -0.1290 H   0  0  0  0  0  0  0  0  0  0  0  0
   -0.1804   -6.8126    3.9713 H   0  0  0  0  0  0  0  0  0  0  0  0
    3.3239   -5.4131   -0.1218 H   0  0  0  0  0  0  0  0  0  0  0  0
  1  2  2  0
  2 32  1  0
  2  3  1  0
  3 33  1  0
  3  4  1  0
  4  5  1  0
  4  6  2  0
  6  7  1  0
  6 32  1  0
  7  8  2  3
  7 35  1  0
  8 31  1  0
  8  9  1  0
  9 10  2  0
  9 36  1  0
 10 11  1  0
 11 31  1  0
 11 12  1  0
 12 13  1  0
 12 17  2  0
 13 14  1  0
 13 52  1  0
 14 16  1  0
 14 15  1  0
 14 37  1  0
 15 16  1  0
 15 38  1  0
 15 39  1  0
 16 40  1  0
 16 41  1  0
 17 18  1  0
 18 19  2  3
 18 30  1  0
 19 20  1  0
 19 53  1  0
 20 21  1  0
 20 27  1  0
 20 42  1  1
 21 26  1  0
 21 22  2  0
 22 23  1  0
 22 43  1  0
 23 24  2  0
 23 44  1  0
 24 25  1  0
 24 45  1  0
 25 26  2  0
 26 46  1  0
 27 29  1  0
 27 28  1  0
 27 47  1  0
 28 29  1  0
 28 48  1  0
 28 49  1  0
 29 50  1  0
 29 51  1  0
 30 31  2  0
 32 34  1  0
M  CHG  2   5  -1  19   1
M  END
>  <i_m_ct_stereo_status>  (23) 
1

>  <s_m_source_file>  (23) 
/var/tmp/pbs.5076255.sched01/tmp3z6s85wa/08w76y650.sdf

>  <i_m_source_file_index>  (23) 
13

>  <i_lp_mmshare_version>  (23) 
48012

>  <i_f3d_flags>  (23) 
0

>  <s_epik_input>  (23) 
Tz1jMVtuSF1jKFtPSF0pYyhbbkhdMSkvW0NIXT1jKFxbY0hdbjIpYyhuMjMpbmMoXFtuSF1jXDM9TlxbQ0hdNFtDSDJdW0NIMl00KT1OL1tDQEBIXShbQ0hdNVtDSDJdW0NIMl01KWM2W2NIXVtjSF1bY0hdbltjSF02

>  <s_epik_cmdline>  (23) 
J2VwaWtfcHl0aG9uJywgJy1waHQnLCAnMi4wJywgJy1waCcsICc3LjAnLCAnLXRuJywgJzgnLCAnLW1hJywgJzIwMCcsICctaW1hZScsICc8aW5maWxlLm1hZT4nLCAnLW9tYWUnLCAnPG91dGZpbGUubWFlPic=

>  <r_epik_Ionization_Penalty>  (23) 
0.0120256

>  <r_epik_Ionization_Penalty_Charging>  (23) 
0.000762824

>  <r_epik_Ionization_Penalty_Neutral>  (23) 
0.0112628

>  <r_epik_State_Penalty>  (23) 
0.411367

>  <r_epik_Charging_Adjusted_Penalty>  (23) 
0.41213

>  <i_epik_Tot_Q>  (23) 
0

>  <i_epik_Tot_abs_Q>  (23) 
2

>  <s_epik_Chemistry_Notes>  (23) 
This compound has an imine and may undergo hydrolysis.

>  <s_lp_Force_Field>  (23) 
OPLS3e

>  <r_lp_Energy>  (23) 
35.3052

>  <b_lp_Chiralities_Consistent>  (23) 
1

>  <s_lp_Variant>  (23) 
10:0-2

>  <s_i_glide_gridfile>  (23) 
pfpi4k_grid

>  <i_i_glide_lignum>  (23) 
13

>  <i_i_glide_rotatable_bonds>  (23) 
6

>  <r_i_docking_score>  (23) 
-2.96768

>  <r_i_glide_ligand_efficiency>  (23) 
-0.0927399

>  <r_i_glide_ligand_efficiency_sa>  (23) 
-0.294431

>  <r_i_glide_ligand_efficiency_ln>  (23) 
-0.664544

>  <r_i_glide_gscore>  (23) 
-2.96768

>  <r_i_glide_lipo>  (23) 
-0.566276

>  <r_i_glide_hbond>  (23) 
-0.0363392

>  <r_i_glide_metal>  (23) 
-0

>  <r_i_glide_rewards>  (23) 
-1.10979

>  <r_i_glide_evdw>  (23) 
-33.2201

>  <r_i_glide_ecoul>  (23) 
-0.209585

>  <r_i_glide_erotb>  (23) 
0.534247

>  <r_i_glide_esite>  (23) 
-0.0970717

>  <r_i_glide_emodel>  (23) 
-42.5219

>  <r_i_glide_energy>  (23) 
-33.4297

>  <r_i_glide_einternal>  (23) 
1.93492

>  <r_i_glide_intrahb_reward>  (23) 
-0.5

>  <i_i_glide_confnum>  (23) 
1

>  <i_i_glide_posenum>  (23) 
3

>  <r_i_glide_eff_state_penalty>  (23) 
0

>  <ligand_id>  (23) 
10

>  <original_smiles>  (23) 
O=c1[nH]c(O)c(C=c2cnn3c(=NC4CC4)[nH]c(=NC(c4cccnc4)C4CC4)nc23)[nH]1

>  <smiles>  (23) 
[H]C(c1c([O-])n([H])c(=O)n1[H])=c1c([H])nn2c(N([H])C3([H])C([H])([H])C3([H])[H])nc(=[N+]([H])C([H])(c3c([H])nc([H])c([H])c3[H])C3([H])C([H])([H])C3([H])[H])nc12

$$$$
10:1:1
     RDKit          3D

 53 58  0  0  1  0  0  0  0  0999 V2000
    7.4330   -9.3236    3.1791 O   0  0  0  0  0  0  0  0  0  0  0  0
    7.0196   -8.4326    2.4415 C   0  0  0  0  0  0  0  0  0  0  0  0
    5.8108   -8.4133    1.8545 N   0  0  0  0  0  0  0  0  0  0  0  0
    5.6830   -7.2793    1.1022 C   0  0  0  0  0  0  0  0  0  0  0  0
    4.5426   -7.3006    0.5584 O   0  0  0  0  0  0  0  0  0  0  0  0
    6.8248   -6.5632    1.2462 C   0  0  0  0  0  0  0  0  0  0  0  0
    7.1586   -5.2506    0.6712 C   0  0  0  0  0  0  0  0  0  0  0  0
    6.4204   -4.1198    0.7437 C   0  0  0  0  0  0  0  0  0  0  0  0
    6.8169   -2.8397    0.2315 C   0  0  0  0  0  0  0  0  0  0  0  0
    5.9413   -1.9064    0.4409 N   0  0  0  0  0  0  0  0  0  0  0  0
    4.9270   -2.4919    1.0927 N   0  0  0  0  0  0  0  0  0  0  0  0
    3.7108   -1.8997    1.5126 C   0  0  0  0  0  0  0  0  0  0  0  0
    3.4739   -0.5371    1.3235 N   0  0  0  0  0  0  0  0  0  0  0  0
    2.2111    0.0521    1.7541 C   0  0  0  0  0  0  0  0  0  0  0  0
    2.1154    1.5010    2.1438 C   0  0  0  0  0  0  0  0  0  0  0  0
    2.0245    0.4360    3.2071 C   0  0  0  0  0  0  0  0  0  0  0  0
    2.8130   -2.6553    2.0859 N   0  0  0  0  0  0  0  0  0  0  0  0
    3.0871   -3.9850    2.2547 C   0  0  0  0  0  0  0  0  0  0  0  0
    2.1385   -4.6711    2.8059 N   0  0  0  0  0  0  0  0  0  0  0  0
    2.1609   -6.1180    3.1350 C   0  0  2  0  0  0  0  0  0  0  0  0
    0.7544   -6.7071    3.1438 C   0  0  0  0  0  0  0  0  0  0  0  0
    0.3271   -7.5375    2.0879 C   0  0  0  0  0  0  0  0  0  0  0  0
   -0.9593   -8.1055    2.1435 C   0  0  0  0  0  0  0  0  0  0  0  0
   -1.7646   -7.8443    3.2658 C   0  0  0  0  0  0  0  0  0  0  0  0
   -1.3744   -7.0516    4.2790 N   0  0  0  0  0  0  0  0  0  0  0  0
   -0.1347   -6.5117    4.2248 C   0  0  0  0  0  0  0  0  0  0  0  0
    2.8984   -6.3492    4.4499 C   0  0  0  0  0  0  0  0  0  0  0  0
    4.4037   -6.4832    4.4731 C   0  0  0  0  0  0  0  0  0  0  0  0
    3.5344   -7.6893    4.7302 C   0  0  0  0  0  0  0  0  0  0  0  0
    4.2493   -4.6042    1.8837 N   0  0  0  0  0  0  0  0  0  0  0  0
    5.1402   -3.8586    1.3098 C   0  0  0  0  0  0  0  0  0  0  0  0
    7.6535   -7.3115    2.0662 N   0  0  0  0  0  0  0  0  0  0  0  0
    5.0903   -9.0866    1.9504 H   0  0  0  0  0  0  0  0  0  0  0  0
    8.6089   -7.0811    2.3073 H   0  0  0  0  0  0  0  0  0  0  0  0
    8.1244   -5.2141    0.1775 H   0  0  0  0  0  0  0  0  0  0  0  0
    7.7761   -2.7394   -0.2710 H   0  0  0  0  0  0  0  0  0  0  0  0
    1.3599   -0.4117    1.2738 H   0  0  0  0  0  0  0  0  0  0  0  0
    3.0195    2.0989    2.0903 H   0  0  0  0  0  0  0  0  0  0  0  0
    1.1926    2.0246    1.8875 H   0  0  0  0  0  0  0  0  0  0  0  0
    1.0413    0.2773    3.6586 H   0  0  0  0  0  0  0  0  0  0  0  0
    2.8656    0.3153    3.8896 H   0  0  0  0  0  0  0  0  0  0  0  0
    2.7206   -6.6125    2.3391 H   0  0  0  0  0  0  0  0  0  0  0  0
    0.9792   -7.7619    1.2539 H   0  0  0  0  0  0  0  0  0  0  0  0
   -1.3191   -8.7454    1.3535 H   0  0  0  0  0  0  0  0  0  0  0  0
   -2.7622   -8.2498    3.3326 H   0  0  0  0  0  0  0  0  0  0  0  0
    0.1367   -5.9070    5.0764 H   0  0  0  0  0  0  0  0  0  0  0  0
    2.4635   -5.8388    5.3083 H   0  0  0  0  0  0  0  0  0  0  0  0
    4.9334   -6.4535    3.5264 H   0  0  0  0  0  0  0  0  0  0  0  0
    4.9320   -6.0350    5.3109 H   0  0  0  0  0  0  0  0  0  0  0  0
    3.5081   -8.0602    5.7492 H   0  0  0  0  0  0  0  0  0  0  0  0
    3.4842   -8.4463    3.9479 H   0  0  0  0  0  0  0  0  0  0  0  0
    4.0837    0.0581    0.7848 H   0  0  0  0  0  0  0  0  0  0  0  0
    1.3211   -4.1447    3.0934 H   0  0  0  0  0  0  0  0  0  0  0  0
  1  2  2  0
  2 32  1  0
  2  3  1  0
  3 33  1  0
  3  4  1  0
  4  5  1  0
  4  6  2  0
  6  7  1  0
  6 32  1  0
  7  8  2  3
  7 35  1  0
  8 31  1  0
  8  9  1  0
  9 10  2  0
  9 36  1  0
 10 11  1  0
 11 31  1  0
 11 12  1  0
 12 13  1  0
 12 17  2  0
 13 14  1  0
 13 52  1  0
 14 16  1  0
 14 15  1  0
 14 37  1  0
 15 16  1  0
 15 38  1  0
 15 39  1  0
 16 40  1  0
 16 41  1  0
 17 18  1  0
 18 19  2  3
 18 30  1  0
 19 20  1  0
 19 53  1  0
 20 21  1  0
 20 27  1  0
 20 42  1  6
 21 26  1  0
 21 22  2  0
 22 23  1  0
 22 43  1  0
 23 24  2  0
 23 44  1  0
 24 25  1  0
 24 45  1  0
 25 26  2  0
 26 46  1  0
 27 29  1  0
 27 28  1  0
 27 47  1  0
 28 29  1  0
 28 48  1  0
 28 49  1  0
 29 50  1  0
 29 51  1  0
 30 31  2  0
 32 34  1  0
M  CHG  2   5  -1  19   1
M  END
>  <i_m_ct_stereo_status>  (24) 
1

>  <s_m_source_file>  (24) 
/var/tmp/pbs.5076255.sched01/tmp3z6s85wa/08w76y650.sdf

>  <i_m_source_file_index>  (24) 
13

>  <i_lp_mmshare_version>  (24) 
48012

>  <i_f3d_flags>  (24) 
0

>  <s_epik_input>  (24) 
Tz1jMVtuSF1jKFtPSF0pYyhbbkhdMSkvW0NIXT1jKFxbY0hdbjIpYyhuMjMpbmMoXFtuSF1jXDM9TlxbQ0hdNFtDSDJdW0NIMl00KT1OL1tDQEBIXShbQ0hdNVtDSDJdW0NIMl01KWM2W2NIXVtjSF1bY0hdbltjSF02

>  <s_epik_cmdline>  (24) 
J2VwaWtfcHl0aG9uJywgJy1waHQnLCAnMi4wJywgJy1waCcsICc3LjAnLCAnLXRuJywgJzgnLCAnLW1hJywgJzIwMCcsICctaW1hZScsICc8aW5maWxlLm1hZT4nLCAnLW9tYWUnLCAnPG91dGZpbGUubWFlPic=

>  <r_epik_Ionization_Penalty>  (24) 
0.0120256

>  <r_epik_Ionization_Penalty_Charging>  (24) 
0.000762824

>  <r_epik_Ionization_Penalty_Neutral>  (24) 
0.0112628

>  <r_epik_State_Penalty>  (24) 
0.411367

>  <r_epik_Charging_Adjusted_Penalty>  (24) 
0.41213

>  <i_epik_Tot_Q>  (24) 
0

>  <i_epik_Tot_abs_Q>  (24) 
2

>  <s_epik_Chemistry_Notes>  (24) 
This compound has an imine and may undergo hydrolysis.

>  <s_lp_Force_Field>  (24) 
OPLS3e

>  <r_lp_Energy>  (24) 
35.3052

>  <b_lp_Chiralities_Consistent>  (24) 
1

>  <s_lp_Variant>  (24) 
10:0-2

>  <s_i_glide_gridfile>  (24) 
pfpi4k_grid

>  <i_i_glide_lignum>  (24) 
13

>  <i_i_glide_rotatable_bonds>  (24) 
6

>  <r_i_docking_score>  (24) 
-2.57697

>  <r_i_glide_ligand_efficiency>  (24) 
-0.0805303

>  <r_i_glide_ligand_efficiency_sa>  (24) 
-0.255668

>  <r_i_glide_ligand_efficiency_ln>  (24) 
-0.577054

>  <r_i_glide_gscore>  (24) 
-2.57697

>  <r_i_glide_lipo>  (24) 
-0.501501

>  <r_i_glide_hbond>  (24) 
0

>  <r_i_glide_metal>  (24) 
-0

>  <r_i_glide_rewards>  (24) 
-0.663503

>  <r_i_glide_evdw>  (24) 
-32.4021

>  <r_i_glide_ecoul>  (24) 
-1.77197

>  <r_i_glide_erotb>  (24) 
0.534247

>  <r_i_glide_esite>  (24) 
-0.0603133

>  <r_i_glide_emodel>  (24) 
-37.3032

>  <r_i_glide_energy>  (24) 
-34.174

>  <r_i_glide_einternal>  (24) 
3.54307

>  <r_i_glide_intrahb_reward>  (24) 
-0

>  <i_i_glide_confnum>  (24) 
1

>  <i_i_glide_posenum>  (24) 
12

>  <r_i_glide_eff_state_penalty>  (24) 
0

>  <ligand_id>  (24) 
10

>  <original_smiles>  (24) 
O=c1[nH]c(O)c(C=c2cnn3c(=NC4CC4)[nH]c(=NC(c4cccnc4)C4CC4)nc23)[nH]1

>  <smiles>  (24) 
[H]C(c1c([O-])n([H])c(=O)n1[H])=c1c([H])nn2c(N([H])C3([H])C([H])([H])C3([H])[H])nc(=[N+]([H])C([H])(c3c([H])nc([H])c([H])c3[H])C3([H])C([H])([H])C3([H])[H])nc12

$$$$
10:1:2
     RDKit          3D

 53 58  0  0  1  0  0  0  0  0999 V2000
    4.3042    0.2020    1.4194 O   0  0  0  0  0  0  0  0  0  0  0  0
    3.4961    0.0381    2.3379 C   0  0  0  0  0  0  0  0  0  0  0  0
    3.0001    0.9708    3.1496 N   0  0  0  0  0  0  0  0  0  0  0  0
    2.1330    0.4027    4.0492 C   0  0  0  0  0  0  0  0  0  0  0  0
    1.6817    1.2915    4.8057 O   0  0  0  0  0  0  0  0  0  0  0  0
    2.0991   -0.9363    3.7716 C   0  0  0  0  0  0  0  0  0  0  0  0
    1.3362   -2.0054    4.4461 C   0  0  0  0  0  0  0  0  0  0  0  0
    1.3865   -3.3426    4.1725 C   0  0  0  0  0  0  0  0  0  0  0  0
    0.6509   -4.3717    4.8587 C   0  0  0  0  0  0  0  0  0  0  0  0
    0.8757   -5.5699    4.4142 N   0  0  0  0  0  0  0  0  0  0  0  0
    1.7713   -5.4219    3.4180 N   0  0  0  0  0  0  0  0  0  0  0  0
    2.3194   -6.4309    2.5850 C   0  0  0  0  0  0  0  0  0  0  0  0
    2.0058   -7.7666    2.7847 N   0  0  0  0  0  0  0  0  0  0  0  0
    2.5987   -8.7780    1.9271 C   0  0  0  0  0  0  0  0  0  0  0  0
    3.1141  -10.0575    2.5108 C   0  0  0  0  0  0  0  0  0  0  0  0
    4.0944   -9.0315    1.9956 C   0  0  0  0  0  0  0  0  0  0  0  0
    3.1413   -6.0795    1.6226 N   0  0  0  0  0  0  0  0  0  0  0  0
    3.4338   -4.7545    1.4694 C   0  0  0  0  0  0  0  0  0  0  0  0
    4.2282   -4.4612    0.4969 N   0  0  0  0  0  0  0  0  0  0  0  0
    4.7391   -3.1294    0.0792 C   0  0  2  0  0  0  0  0  0  0  0  0
    4.2867   -2.8017   -1.3344 C   0  0  0  0  0  0  0  0  0  0  0  0
    3.5392   -1.6355   -1.5833 C   0  0  0  0  0  0  0  0  0  0  0  0
    3.2255   -1.3043   -2.9105 C   0  0  0  0  0  0  0  0  0  0  0  0
    3.6625   -2.1552   -3.9338 C   0  0  0  0  0  0  0  0  0  0  0  0
    4.3842   -3.2704   -3.7180 N   0  0  0  0  0  0  0  0  0  0  0  0
    4.6732   -3.5905   -2.4414 C   0  0  0  0  0  0  0  0  0  0  0  0
    6.2571   -3.0648    0.2643 C   0  0  0  0  0  0  0  0  0  0  0  0
    6.9471   -1.7191    0.3286 C   0  0  0  0  0  0  0  0  0  0  0  0
    7.2252   -2.6477   -0.8284 C   0  0  0  0  0  0  0  0  0  0  0  0
    2.9417   -3.7522    2.2467 N   0  0  0  0  0  0  0  0  0  0  0  0
    2.1177   -4.0919    3.2050 C   0  0  0  0  0  0  0  0  0  0  0  0
    2.9596   -1.1015    2.7184 N   0  0  0  0  0  0  0  0  0  0  0  0
    3.2000    1.9478    3.1500 H   0  0  0  0  0  0  0  0  0  0  0  0
    3.1622   -1.9908    2.2665 H   0  0  0  0  0  0  0  0  0  0  0  0
    0.6862   -1.6495    5.2388 H   0  0  0  0  0  0  0  0  0  0  0  0
   -0.0212   -4.0829    5.6631 H   0  0  0  0  0  0  0  0  0  0  0  0
    2.1327   -8.7824    0.9477 H   0  0  0  0  0  0  0  0  0  0  0  0
    3.0504  -10.1995    3.5913 H   0  0  0  0  0  0  0  0  0  0  0  0
    3.0154  -10.9553    1.9167 H   0  0  0  0  0  0  0  0  0  0  0  0
    4.6110   -9.2640    1.0644 H   0  0  0  0  0  0  0  0  0  0  0  0
    4.6924   -8.4810    2.7225 H   0  0  0  0  0  0  0  0  0  0  0  0
    4.3065   -2.3780    0.7410 H   0  0  0  0  0  0  0  0  0  0  0  0
    3.2450   -0.9776   -0.7788 H   0  0  0  0  0  0  0  0  0  0  0  0
    2.6465   -0.4251   -3.1394 H   0  0  0  0  0  0  0  0  0  0  0  0
    3.4180   -1.9400   -4.9631 H   0  0  0  0  0  0  0  0  0  0  0  0
    5.3075   -4.4557   -2.3132 H   0  0  0  0  0  0  0  0  0  0  0  0
    6.6363   -3.7618    1.0148 H   0  0  0  0  0  0  0  0  0  0  0  0
    6.3532   -0.8267    0.1257 H   0  0  0  0  0  0  0  0  0  0  0  0
    7.7688   -1.5710    1.0249 H   0  0  0  0  0  0  0  0  0  0  0  0
    8.1787   -3.1740   -0.8535 H   0  0  0  0  0  0  0  0  0  0  0  0
    6.8622   -2.2951   -1.7959 H   0  0  0  0  0  0  0  0  0  0  0  0
    1.3136   -8.0719    3.4548 H   0  0  0  0  0  0  0  0  0  0  0  0
    4.5649   -5.2550   -0.0402 H   0  0  0  0  0  0  0  0  0  0  0  0
  1  2  2  0
  2 32  1  0
  2  3  1  0
  3 33  1  0
  3  4  1  0
  4  5  1  0
  4  6  2  0
  6  7  1  0
  6 32  1  0
  7  8  2  3
  7 35  1  0
  8 31  1  0
  8  9  1  0
  9 10  2  0
  9 36  1  0
 10 11  1  0
 11 31  1  0
 11 12  1  0
 12 13  1  0
 12 17  2  0
 13 14  1  0
 13 52  1  0
 14 16  1  0
 14 15  1  0
 14 37  1  0
 15 16  1  0
 15 38  1  0
 15 39  1  0
 16 40  1  0
 16 41  1  0
 17 18  1  0
 18 19  2  3
 18 30  1  0
 19 20  1  0
 19 53  1  0
 20 21  1  0
 20 27  1  0
 20 42  1  1
 21 26  1  0
 21 22  2  0
 22 23  1  0
 22 43  1  0
 23 24  2  0
 23 44  1  0
 24 25  1  0
 24 45  1  0
 25 26  2  0
 26 46  1  0
 27 29  1  0
 27 28  1  0
 27 47  1  0
 28 29  1  0
 28 48  1  0
 28 49  1  0
 29 50  1  0
 29 51  1  0
 30 31  2  0
 32 34  1  0
M  CHG  2   5  -1  19   1
M  END
>  <i_m_ct_stereo_status>  (25) 
1

>  <s_m_source_file>  (25) 
/var/tmp/pbs.5076255.sched01/tmp3z6s85wa/08w76y650.sdf

>  <i_m_source_file_index>  (25) 
13

>  <i_lp_mmshare_version>  (25) 
48012

>  <i_f3d_flags>  (25) 
0

>  <s_epik_input>  (25) 
Tz1jMVtuSF1jKFtPSF0pYyhbbkhdMSkvW0NIXT1jKFxbY0hdbjIpYyhuMjMpbmMoXFtuSF1jXDM9TlxbQ0hdNFtDSDJdW0NIMl00KT1OL1tDQEBIXShbQ0hdNVtDSDJdW0NIMl01KWM2W2NIXVtjSF1bY0hdbltjSF02

>  <s_epik_cmdline>  (25) 
J2VwaWtfcHl0aG9uJywgJy1waHQnLCAnMi4wJywgJy1waCcsICc3LjAnLCAnLXRuJywgJzgnLCAnLW1hJywgJzIwMCcsICctaW1hZScsICc8aW5maWxlLm1hZT4nLCAnLW9tYWUnLCAnPG91dGZpbGUubWFlPic=

>  <r_epik_Ionization_Penalty>  (25) 
0.0120256

>  <r_epik_Ionization_Penalty_Charging>  (25) 
0.000762824

>  <r_epik_Ionization_Penalty_Neutral>  (25) 
0.0112628

>  <r_epik_State_Penalty>  (25) 
0.411367

>  <r_epik_Charging_Adjusted_Penalty>  (25) 
0.41213

>  <i_epik_Tot_Q>  (25) 
0

>  <i_epik_Tot_abs_Q>  (25) 
2

>  <s_epik_Chemistry_Notes>  (25) 
This compound has an imine and may undergo hydrolysis.

>  <s_lp_Force_Field>  (25) 
OPLS3e

>  <r_lp_Energy>  (25) 
35.3052

>  <b_lp_Chiralities_Consistent>  (25) 
1

>  <s_lp_Variant>  (25) 
10:0-2

>  <s_i_glide_gridfile>  (25) 
pfpi4k_grid

>  <i_i_glide_lignum>  (25) 
13

>  <i_i_glide_rotatable_bonds>  (25) 
6

>  <r_i_docking_score>  (25) 
-2.23196

>  <r_i_glide_ligand_efficiency>  (25) 
-0.0697486

>  <r_i_glide_ligand_efficiency_sa>  (25) 
-0.221438

>  <r_i_glide_ligand_efficiency_ln>  (25) 
-0.499796

>  <r_i_glide_gscore>  (25) 
-2.23196

>  <r_i_glide_lipo>  (25) 
-0.182055

>  <r_i_glide_hbond>  (25) 
-0.0230726

>  <r_i_glide_metal>  (25) 
-0

>  <r_i_glide_rewards>  (25) 
-1.00733

>  <r_i_glide_evdw>  (25) 
-33.5364

>  <r_i_glide_ecoul>  (25) 
1.06014

>  <r_i_glide_erotb>  (25) 
0.534247

>  <r_i_glide_esite>  (25) 
-0.0359463

>  <r_i_glide_emodel>  (25) 
-38.7975

>  <r_i_glide_energy>  (25) 
-32.4762

>  <r_i_glide_einternal>  (25) 
3.54743

>  <r_i_glide_intrahb_reward>  (25) 
-0.5

>  <i_i_glide_confnum>  (25) 
2

>  <i_i_glide_posenum>  (25) 
9

>  <r_i_glide_eff_state_penalty>  (25) 
0

>  <ligand_id>  (25) 
10

>  <original_smiles>  (25) 
O=c1[nH]c(O)c(C=c2cnn3c(=NC4CC4)[nH]c(=NC(c4cccnc4)C4CC4)nc23)[nH]1

>  <smiles>  (25) 
[H]C(c1c([O-])n([H])c(=O)n1[H])=c1c([H])nn2c(N([H])C3([H])C([H])([H])C3([H])[H])nc(=[N+]([H])C([H])(c3c([H])nc([H])c([H])c3[H])C3([H])C([H])([H])C3([H])[H])nc12

$$$$
10:2:0
     RDKit          3D

 53 58  0  0  1  0  0  0  0  0999 V2000
   -2.1302    4.5450    3.6785 O   0  0  0  0  0  0  0  0  0  0  0  0
   -1.1614    3.8018    3.8105 C   0  0  0  0  0  0  0  0  0  0  0  0
    0.1000    4.1749    4.0872 N   0  0  0  0  0  0  0  0  0  0  0  0
    0.9230    3.0813    4.1248 C   0  0  0  0  0  0  0  0  0  0  0  0
    2.0986    3.4525    4.3578 O   0  0  0  0  0  0  0  0  0  0  0  0
    0.1104    1.9963    3.9117 C   0  0  0  0  0  0  0  0  0  0  0  0
    0.4905    0.6015    3.8903 C   0  0  0  0  0  0  0  0  0  0  0  0
    1.3623    0.0049    3.0590 C   0  0  0  0  0  0  0  0  0  0  0  0
    2.1604    0.5936    2.0245 C   0  0  0  0  0  0  0  0  0  0  0  0
    2.8684   -0.2891    1.4206 N   0  0  0  0  0  0  0  0  0  0  0  0
    2.5895   -1.4819    1.9679 N   0  0  0  0  0  0  0  0  0  0  0  0
    3.0872   -2.7412    1.5813 C   0  0  0  0  0  0  0  0  0  0  0  0
    3.9454   -2.8722    0.4903 N   0  0  0  0  0  0  0  0  0  0  0  0
    4.5622   -1.7985   -0.2740 C   0  0  0  0  0  0  0  0  0  0  0  0
    5.8086   -2.0279   -1.0857 C   0  0  0  0  0  0  0  0  0  0  0  0
    5.8722   -1.1931    0.1780 C   0  0  0  0  0  0  0  0  0  0  0  0
    2.6993   -3.8015    2.2470 N   0  0  0  0  0  0  0  0  0  0  0  0
    1.7992   -3.6256    3.2781 C   0  0  0  0  0  0  0  0  0  0  0  0
    1.3834   -4.6629    3.9373 N   0  0  0  0  0  0  0  0  0  0  0  0
    1.8018   -6.0810    3.7789 C   0  0  2  0  0  0  0  0  0  0  0  0
    0.6053   -7.0057    3.6011 C   0  0  0  0  0  0  0  0  0  0  0  0
    0.7209   -8.1710    2.8119 C   0  0  0  0  0  0  0  0  0  0  0  0
   -0.4001   -9.0079    2.6680 C   0  0  0  0  0  0  0  0  0  0  0  0
   -1.6006   -8.6480    3.3023 C   0  0  0  0  0  0  0  0  0  0  0  0
   -1.7295   -7.5318    4.0499 N   0  0  0  0  0  0  0  0  0  0  0  0
   -0.6391   -6.7573    4.2194 C   0  0  0  0  0  0  0  0  0  0  0  0
    2.6862   -6.5251    4.9284 C   0  0  0  0  0  0  0  0  0  0  0  0
    4.1774   -6.2887    4.8558 C   0  0  0  0  0  0  0  0  0  0  0  0
    3.6344   -7.6899    4.7409 C   0  0  0  0  0  0  0  0  0  0  0  0
    1.2576   -2.4268    3.6725 N   0  0  0  0  0  0  0  0  0  0  0  0
    1.6679   -1.3828    2.9994 C   0  0  0  0  0  0  0  0  0  0  0  0
   -1.1688    2.4683    3.7265 N   0  0  0  0  0  0  0  0  0  0  0  0
    0.4452    5.1189    4.1895 H   0  0  0  0  0  0  0  0  0  0  0  0
   -1.9650    1.8942    3.5085 H   0  0  0  0  0  0  0  0  0  0  0  0
   -0.0080   -0.0327    4.6052 H   0  0  0  0  0  0  0  0  0  0  0  0
    2.1439    1.6598    1.8088 H   0  0  0  0  0  0  0  0  0  0  0  0
    3.8083   -1.1520   -0.7217 H   0  0  0  0  0  0  0  0  0  0  0  0
    6.2583   -3.0194   -1.0728 H   0  0  0  0  0  0  0  0  0  0  0  0
    5.8494   -1.5035   -2.0389 H   0  0  0  0  0  0  0  0  0  0  0  0
    5.9807   -0.1153    0.0708 H   0  0  0  0  0  0  0  0  0  0  0  0
    6.3816   -1.6232    1.0392 H   0  0  0  0  0  0  0  0  0  0  0  0
    2.3932   -6.1598    2.8669 H   0  0  0  0  0  0  0  0  0  0  0  0
    1.6529   -8.4317    2.3294 H   0  0  0  0  0  0  0  0  0  0  0  0
   -0.3454   -9.9120    2.0824 H   0  0  0  0  0  0  0  0  0  0  0  0
   -2.4793   -9.2679    3.2057 H   0  0  0  0  0  0  0  0  0  0  0  0
   -0.7842   -5.8856    4.8404 H   0  0  0  0  0  0  0  0  0  0  0  0
    2.2282   -6.4519    5.9132 H   0  0  0  0  0  0  0  0  0  0  0  0
    4.5571   -5.8141    3.9529 H   0  0  0  0  0  0  0  0  0  0  0  0
    4.6949   -6.0249    5.7764 H   0  0  0  0  0  0  0  0  0  0  0  0
    3.7992   -8.3591    5.5836 H   0  0  0  0  0  0  0  0  0  0  0  0
    3.6599   -8.1659    3.7627 H   0  0  0  0  0  0  0  0  0  0  0  0
    4.0843   -3.7786    0.0658 H   0  0  0  0  0  0  0  0  0  0  0  0
    0.7472   -4.4690    4.7036 H   0  0  0  0  0  0  0  0  0  0  0  0
  1  2  2  0
  2 32  1  0
  2  3  1  0
  3 33  1  0
  3  4  1  0
  4  5  1  0
  4  6  2  0
  6  7  1  0
  6 32  1  0
  7  8  2  3
  7 35  1  0
  8 31  1  0
  8  9  1  0
  9 10  2  0
  9 36  1  0
 10 11  1  0
 11 31  1  0
 11 12  1  0
 12 13  1  0
 12 17  2  0
 13 14  1  0
 13 52  1  0
 14 16  1  0
 14 15  1  0
 14 37  1  0
 15 16  1  0
 15 38  1  0
 15 39  1  0
 16 40  1  0
 16 41  1  0
 17 18  1  0
 18 19  2  3
 18 30  1  0
 19 20  1  0
 19 53  1  0
 20 21  1  0
 20 27  1  0
 20 42  1  6
 21 26  1  0
 21 22  2  0
 22 23  1  0
 22 43  1  0
 23 24  2  0
 23 44  1  0
 24 25  1  0
 24 45  1  0
 25 26  2  0
 26 46  1  0
 27 29  1  0
 27 28  1  0
 27 47  1  0
 28 29  1  0
 28 48  1  0
 28 49  1  0
 29 50  1  0
 29 51  1  0
 30 31  2  0
 32 34  1  0
M  CHG  2   5  -1  19   1
M  END
>  <i_m_ct_stereo_status>  (26) 
1

>  <s_m_source_file>  (26) 
/var/tmp/pbs.5076255.sched01/tmp3z6s85wa/08w76y650.sdf

>  <i_m_source_file_index>  (26) 
14

>  <i_lp_mmshare_version>  (26) 
48012

>  <i_f3d_flags>  (26) 
0

>  <s_epik_input>  (26) 
Tz1jMVtuSF1jKFtPSF0pYyhbbkhdMSkvW0NIXT1jKFxbY0hdbjIpYyhuMjMpbmMoXFtuSF1jXDM9TlxbQ0hdNFtDSDJdW0NIMl00KT1OL1tDQEBIXShbQ0hdNVtDSDJdW0NIMl01KWM2W2NIXVtjSF1bY0hdbltjSF02

>  <s_epik_cmdline>  (26) 
J2VwaWtfcHl0aG9uJywgJy1waHQnLCAnMi4wJywgJy1waCcsICc3LjAnLCAnLXRuJywgJzgnLCAnLW1hJywgJzIwMCcsICctaW1hZScsICc8aW5maWxlLm1hZT4nLCAnLW9tYWUnLCAnPG91dGZpbGUubWFlPic=

>  <r_epik_Ionization_Penalty>  (26) 
0.0120256

>  <r_epik_Ionization_Penalty_Charging>  (26) 
0.000762824

>  <r_epik_Ionization_Penalty_Neutral>  (26) 
0.0112628

>  <r_epik_State_Penalty>  (26) 
0.411367

>  <r_epik_Charging_Adjusted_Penalty>  (26) 
0.41213

>  <i_epik_Tot_Q>  (26) 
0

>  <i_epik_Tot_abs_Q>  (26) 
2

>  <s_epik_Chemistry_Notes>  (26) 
This compound has an imine and may undergo hydrolysis.

>  <s_lp_Force_Field>  (26) 
OPLS3e

>  <r_lp_Energy>  (26) 
40.1553

>  <b_lp_Chiralities_Consistent>  (26) 
1

>  <s_lp_Variant>  (26) 
10:0-3

>  <s_i_glide_gridfile>  (26) 
pfpi4k_grid

>  <i_i_glide_lignum>  (26) 
14

>  <i_i_glide_rotatable_bonds>  (26) 
6

>  <r_i_docking_score>  (26) 
-2.77359

>  <r_i_glide_ligand_efficiency>  (26) 
-0.0866746

>  <r_i_glide_ligand_efficiency_sa>  (26) 
-0.275175

>  <r_i_glide_ligand_efficiency_ln>  (26) 
-0.621082

>  <r_i_glide_gscore>  (26) 
-2.77359

>  <r_i_glide_lipo>  (26) 
-0.0399892

>  <r_i_glide_hbond>  (26) 
-0.16

>  <r_i_glide_metal>  (26) 
-0

>  <r_i_glide_rewards>  (26) 
-0.478612

>  <r_i_glide_evdw>  (26) 
-32.3601

>  <r_i_glide_ecoul>  (26) 
-5.01992

>  <r_i_glide_erotb>  (26) 
0.534247

>  <r_i_glide_esite>  (26) 
-0.258238

>  <r_i_glide_emodel>  (26) 
-40.1389

>  <r_i_glide_energy>  (26) 
-37.3801

>  <r_i_glide_einternal>  (26) 
10.6343

>  <r_i_glide_intrahb_reward>  (26) 
-0

>  <i_i_glide_confnum>  (26) 
2

>  <i_i_glide_posenum>  (26) 
38

>  <r_i_glide_eff_state_penalty>  (26) 
0

>  <ligand_id>  (26) 
10

>  <original_smiles>  (26) 
O=c1[nH]c(O)c(C=c2cnn3c(=NC4CC4)[nH]c(=NC(c4cccnc4)C4CC4)nc23)[nH]1

>  <smiles>  (26) 
[H]C(c1c([O-])n([H])c(=O)n1[H])=c1c([H])nn2c(N([H])C3([H])C([H])([H])C3([H])[H])nc(=[N+]([H])C([H])(c3c([H])nc([H])c([H])c3[H])C3([H])C([H])([H])C3([H])[H])nc12

$$$$
10:2:1
     RDKit          3D

 53 58  0  0  1  0  0  0  0  0999 V2000
    4.6519    3.5774    6.3662 O   0  0  0  0  0  0  0  0  0  0  0  0
    4.1057    2.8988    5.5004 C   0  0  0  0  0  0  0  0  0  0  0  0
    3.3781    3.3580    4.4736 N   0  0  0  0  0  0  0  0  0  0  0  0
    2.9415    2.3166    3.6868 C   0  0  0  0  0  0  0  0  0  0  0  0
    2.2392    2.7458    2.7484 O   0  0  0  0  0  0  0  0  0  0  0  0
    3.4264    1.1755    4.2663 C   0  0  0  0  0  0  0  0  0  0  0  0
    3.1937   -0.1969    3.8471 C   0  0  0  0  0  0  0  0  0  0  0  0
    3.3484   -0.7408    2.6233 C   0  0  0  0  0  0  0  0  0  0  0  0
    3.8033   -0.1316    1.4047 C   0  0  0  0  0  0  0  0  0  0  0  0
    3.8474   -0.9691    0.4270 N   0  0  0  0  0  0  0  0  0  0  0  0
    3.4131   -2.1430    0.9039 N   0  0  0  0  0  0  0  0  0  0  0  0
    3.3031   -3.3580    0.2005 C   0  0  0  0  0  0  0  0  0  0  0  0
    3.6367   -3.4133   -1.1499 N   0  0  0  0  0  0  0  0  0  0  0  0
    2.9479   -2.6452   -2.1750 C   0  0  0  0  0  0  0  0  0  0  0  0
    3.5191   -2.6055   -3.5734 C   0  0  0  0  0  0  0  0  0  0  0  0
    3.5790   -1.3784   -2.6977 C   0  0  0  0  0  0  0  0  0  0  0  0
    2.9111   -4.4289    0.8440 N   0  0  0  0  0  0  0  0  0  0  0  0
    2.6133   -4.3037    2.1862 C   0  0  0  0  0  0  0  0  0  0  0  0
    2.1937   -5.3457    2.8380 N   0  0  0  0  0  0  0  0  0  0  0  0
    2.0230   -6.7263    2.3192 C   0  0  2  0  0  0  0  0  0  0  0  0
    0.7073   -7.3216    2.7917 C   0  0  0  0  0  0  0  0  0  0  0  0
   -0.2051   -7.8522    1.8589 C   0  0  0  0  0  0  0  0  0  0  0  0
   -1.4057   -8.4178    2.3204 C   0  0  0  0  0  0  0  0  0  0  0  0
   -1.6490   -8.4409    3.7016 C   0  0  0  0  0  0  0  0  0  0  0  0
   -0.7864   -7.9358    4.6072 N   0  0  0  0  0  0  0  0  0  0  0  0
    0.3727   -7.4125    4.1601 C   0  0  0  0  0  0  0  0  0  0  0  0
    3.2114   -7.6041    2.6677 C   0  0  0  0  0  0  0  0  0  0  0  0
    4.3831   -7.6812    1.7149 C   0  0  0  0  0  0  0  0  0  0  0  0
    3.4676   -8.8685    1.8766 C   0  0  0  0  0  0  0  0  0  0  0  0
    2.7029   -3.1466    2.9197 N   0  0  0  0  0  0  0  0  0  0  0  0
    3.1045   -2.0945    2.2596 C   0  0  0  0  0  0  0  0  0  0  0  0
    4.1337    1.5643    5.3854 N   0  0  0  0  0  0  0  0  0  0  0  0
    3.1896    4.3201    4.2478 H   0  0  0  0  0  0  0  0  0  0  0  0
    4.5787    0.9245    6.0218 H   0  0  0  0  0  0  0  0  0  0  0  0
    2.8502   -0.8528    4.6323 H   0  0  0  0  0  0  0  0  0  0  0  0
    4.0748    0.9220    1.3582 H   0  0  0  0  0  0  0  0  0  0  0  0
    1.8608   -2.6890   -2.0841 H   0  0  0  0  0  0  0  0  0  0  0  0
    4.4494   -3.1393   -3.7602 H   0  0  0  0  0  0  0  0  0  0  0  0
    2.8248   -2.5695   -4.4105 H   0  0  0  0  0  0  0  0  0  0  0  0
    2.9113   -0.5500   -2.9312 H   0  0  0  0  0  0  0  0  0  0  0  0
    4.5412   -1.1004   -2.2729 H   0  0  0  0  0  0  0  0  0  0  0  0
    1.9709   -6.6684    1.2311 H   0  0  0  0  0  0  0  0  0  0  0  0
    0.0099   -7.8376    0.8016 H   0  0  0  0  0  0  0  0  0  0  0  0
   -2.1207   -8.8454    1.6377 H   0  0  0  0  0  0  0  0  0  0  0  0
   -2.5638   -8.8703    4.0797 H   0  0  0  0  0  0  0  0  0  0  0  0
    1.0493   -7.0473    4.9193 H   0  0  0  0  0  0  0  0  0  0  0  0
    3.4415   -7.6623    3.7314 H   0  0  0  0  0  0  0  0  0  0  0  0
    4.3108   -7.1042    0.7942 H   0  0  0  0  0  0  0  0  0  0  0  0
    5.3802   -7.7502    2.1458 H   0  0  0  0  0  0  0  0  0  0  0  0
    3.8633   -9.7335    2.4056 H   0  0  0  0  0  0  0  0  0  0  0  0
    2.7824   -9.1003    1.0625 H   0  0  0  0  0  0  0  0  0  0  0  0
    3.8895   -4.3157   -1.5332 H   0  0  0  0  0  0  0  0  0  0  0  0
    2.0290   -5.2176    3.8323 H   0  0  0  0  0  0  0  0  0  0  0  0
  1  2  2  0
  2 32  1  0
  2  3  1  0
  3 33  1  0
  3  4  1  0
  4  5  1  0
  4  6  2  0
  6  7  1  0
  6 32  1  0
  7  8  2  3
  7 35  1  0
  8 31  1  0
  8  9  1  0
  9 10  2  0
  9 36  1  0
 10 11  1  0
 11 31  1  0
 11 12  1  0
 12 13  1  0
 12 17  2  0
 13 14  1  0
 13 52  1  0
 14 16  1  0
 14 15  1  0
 14 37  1  0
 15 16  1  0
 15 38  1  0
 15 39  1  0
 16 40  1  0
 16 41  1  0
 17 18  1  0
 18 19  2  3
 18 30  1  0
 19 20  1  0
 19 53  1  0
 20 21  1  0
 20 27  1  0
 20 42  1  6
 21 26  1  0
 21 22  2  0
 22 23  1  0
 22 43  1  0
 23 24  2  0
 23 44  1  0
 24 25  1  0
 24 45  1  0
 25 26  2  0
 26 46  1  0
 27 29  1  0
 27 28  1  0
 27 47  1  0
 28 29  1  0
 28 48  1  0
 28 49  1  0
 29 50  1  0
 29 51  1  0
 30 31  2  0
 32 34  1  0
M  CHG  2   5  -1  19   1
M  END
>  <i_m_ct_stereo_status>  (27) 
1

>  <s_m_source_file>  (27) 
/var/tmp/pbs.5076255.sched01/tmp3z6s85wa/08w76y650.sdf

>  <i_m_source_file_index>  (27) 
14

>  <i_lp_mmshare_version>  (27) 
48012

>  <i_f3d_flags>  (27) 
0

>  <s_epik_input>  (27) 
Tz1jMVtuSF1jKFtPSF0pYyhbbkhdMSkvW0NIXT1jKFxbY0hdbjIpYyhuMjMpbmMoXFtuSF1jXDM9TlxbQ0hdNFtDSDJdW0NIMl00KT1OL1tDQEBIXShbQ0hdNVtDSDJdW0NIMl01KWM2W2NIXVtjSF1bY0hdbltjSF02

>  <s_epik_cmdline>  (27) 
J2VwaWtfcHl0aG9uJywgJy1waHQnLCAnMi4wJywgJy1waCcsICc3LjAnLCAnLXRuJywgJzgnLCAnLW1hJywgJzIwMCcsICctaW1hZScsICc8aW5maWxlLm1hZT4nLCAnLW9tYWUnLCAnPG91dGZpbGUubWFlPic=

>  <r_epik_Ionization_Penalty>  (27) 
0.0120256

>  <r_epik_Ionization_Penalty_Charging>  (27) 
0.000762824

>  <r_epik_Ionization_Penalty_Neutral>  (27) 
0.0112628

>  <r_epik_State_Penalty>  (27) 
0.411367

>  <r_epik_Charging_Adjusted_Penalty>  (27) 
0.41213

>  <i_epik_Tot_Q>  (27) 
0

>  <i_epik_Tot_abs_Q>  (27) 
2

>  <s_epik_Chemistry_Notes>  (27) 
This compound has an imine and may undergo hydrolysis.

>  <s_lp_Force_Field>  (27) 
OPLS3e

>  <r_lp_Energy>  (27) 
40.1553

>  <b_lp_Chiralities_Consistent>  (27) 
1

>  <s_lp_Variant>  (27) 
10:0-3

>  <s_i_glide_gridfile>  (27) 
pfpi4k_grid

>  <i_i_glide_lignum>  (27) 
14

>  <i_i_glide_rotatable_bonds>  (27) 
6

>  <r_i_docking_score>  (27) 
-2.68034

>  <r_i_glide_ligand_efficiency>  (27) 
-0.0837606

>  <r_i_glide_ligand_efficiency_sa>  (27) 
-0.265923

>  <r_i_glide_ligand_efficiency_ln>  (27) 
-0.600201

>  <r_i_glide_gscore>  (27) 
-2.68034

>  <r_i_glide_lipo>  (27) 
-0.333421

>  <r_i_glide_hbond>  (27) 
-0.095203

>  <r_i_glide_metal>  (27) 
-0

>  <r_i_glide_rewards>  (27) 
-0.467383

>  <r_i_glide_evdw>  (27) 
-35.0857

>  <r_i_glide_ecoul>  (27) 
-3.3479

>  <r_i_glide_erotb>  (27) 
0.534247

>  <r_i_glide_esite>  (27) 
-0.0621122

>  <r_i_glide_emodel>  (27) 
-41.6433

>  <r_i_glide_energy>  (27) 
-38.4336

>  <r_i_glide_einternal>  (27) 
9.53529

>  <r_i_glide_intrahb_reward>  (27) 
-0

>  <i_i_glide_confnum>  (27) 
2

>  <i_i_glide_posenum>  (27) 
2

>  <r_i_glide_eff_state_penalty>  (27) 
0

>  <ligand_id>  (27) 
10

>  <original_smiles>  (27) 
O=c1[nH]c(O)c(C=c2cnn3c(=NC4CC4)[nH]c(=NC(c4cccnc4)C4CC4)nc23)[nH]1

>  <smiles>  (27) 
[H]C(c1c([O-])n([H])c(=O)n1[H])=c1c([H])nn2c(N([H])C3([H])C([H])([H])C3([H])[H])nc(=[N+]([H])C([H])(c3c([H])nc([H])c([H])c3[H])C3([H])C([H])([H])C3([H])[H])nc12

$$$$
10:2:2
     RDKit          3D

 53 58  0  0  1  0  0  0  0  0999 V2000
   -1.9052    3.4154    8.3278 O   0  0  0  0  0  0  0  0  0  0  0  0
   -1.7098    2.5721    7.4526 C   0  0  0  0  0  0  0  0  0  0  0  0
   -1.9405    2.7590    6.1538 N   0  0  0  0  0  0  0  0  0  0  0  0
   -1.6047    1.6399    5.4427 C   0  0  0  0  0  0  0  0  0  0  0  0
   -1.8121    1.8363    4.2248 O   0  0  0  0  0  0  0  0  0  0  0  0
   -1.1639    0.7207    6.3527 C   0  0  0  0  0  0  0  0  0  0  0  0
   -0.6920   -0.6413    6.1119 C   0  0  0  0  0  0  0  0  0  0  0  0
    0.0735   -1.1201    5.1111 C   0  0  0  0  0  0  0  0  0  0  0  0
    0.6947   -0.4321    4.0092 C   0  0  0  0  0  0  0  0  0  0  0  0
    1.3700   -1.2235    3.2440 N   0  0  0  0  0  0  0  0  0  0  0  0
    1.2431   -2.4529    3.7763 N   0  0  0  0  0  0  0  0  0  0  0  0
    1.8293   -3.6432    3.3053 C   0  0  0  0  0  0  0  0  0  0  0  0
    2.6339   -3.6055    2.1723 N   0  0  0  0  0  0  0  0  0  0  0  0
    3.4904   -4.7181    1.7885 C   0  0  0  0  0  0  0  0  0  0  0  0
    4.9403   -4.6417    2.1803 C   0  0  0  0  0  0  0  0  0  0  0  0
    4.5439   -4.5491    0.7248 C   0  0  0  0  0  0  0  0  0  0  0  0
    1.6094   -4.7592    3.9605 N   0  0  0  0  0  0  0  0  0  0  0  0
    0.8387   -4.6986    5.0991 C   0  0  0  0  0  0  0  0  0  0  0  0
    0.6292   -5.7896    5.7539 N   0  0  0  0  0  0  0  0  0  0  0  0
    1.1237   -7.1553    5.4152 C   0  0  2  0  0  0  0  0  0  0  0  0
    0.2386   -7.8468    4.3829 C   0  0  0  0  0  0  0  0  0  0  0  0
    0.7110   -8.9842    3.6922 C   0  0  0  0  0  0  0  0  0  0  0  0
   -0.1214   -9.5959    2.7419 C   0  0  0  0  0  0  0  0  0  0  0  0
   -1.3897   -9.0414    2.4976 C   0  0  0  0  0  0  0  0  0  0  0  0
   -1.8512   -7.9463    3.1343 N   0  0  0  0  0  0  0  0  0  0  0  0
   -1.0643   -7.3921    4.0748 C   0  0  0  0  0  0  0  0  0  0  0  0
    1.2800   -7.9932    6.6673 C   0  0  0  0  0  0  0  0  0  0  0  0
    2.5443   -7.8899    7.4864 C   0  0  0  0  0  0  0  0  0  0  0  0
    2.2668   -9.1397    6.6914 C   0  0  0  0  0  0  0  0  0  0  0  0
    0.2535   -3.5669    5.6099 N   0  0  0  0  0  0  0  0  0  0  0  0
    0.4729   -2.4684    4.9317 C   0  0  0  0  0  0  0  0  0  0  0  0
   -1.2403    1.3282    7.5973 N   0  0  0  0  0  0  0  0  0  0  0  0
   -2.2766    3.5779    5.6976 H   0  0  0  0  0  0  0  0  0  0  0  0
   -0.9515    0.9269    8.4838 H   0  0  0  0  0  0  0  0  0  0  0  0
   -1.0147   -1.3712    6.8408 H   0  0  0  0  0  0  0  0  0  0  0  0
    0.5893    0.6398    3.8899 H   0  0  0  0  0  0  0  0  0  0  0  0
    2.9883   -5.6826    1.8546 H   0  0  0  0  0  0  0  0  0  0  0  0
    5.2730   -3.7303    2.6725 H   0  0  0  0  0  0  0  0  0  0  0  0
    5.4279   -5.5564    2.5098 H   0  0  0  0  0  0  0  0  0  0  0  0
    4.7856   -5.4100    0.1038 H   0  0  0  0  0  0  0  0  0  0  0  0
    4.6200   -3.5823    0.2312 H   0  0  0  0  0  0  0  0  0  0  0  0
    2.1158   -7.0294    4.9729 H   0  0  0  0  0  0  0  0  0  0  0  0
    1.6956   -9.3902    3.8743 H   0  0  0  0  0  0  0  0  0  0  0  0
    0.2042  -10.4638    2.1901 H   0  0  0  0  0  0  0  0  0  0  0  0
   -2.0551   -9.4755    1.7687 H   0  0  0  0  0  0  0  0  0  0  0  0
   -1.4886   -6.5283    4.5643 H   0  0  0  0  0  0  0  0  0  0  0  0
    0.3554   -8.1630    7.2143 H   0  0  0  0  0  0  0  0  0  0  0  0
    3.3196   -7.2194    7.1195 H   0  0  0  0  0  0  0  0  0  0  0  0
    2.4588   -7.9623    8.5684 H   0  0  0  0  0  0  0  0  0  0  0  0
    1.9984  -10.0368    7.2464 H   0  0  0  0  0  0  0  0  0  0  0  0
    2.8708   -9.3148    5.8033 H   0  0  0  0  0  0  0  0  0  0  0  0
    2.8569   -2.7255    1.7220 H   0  0  0  0  0  0  0  0  0  0  0  0
    0.0625   -5.7141    6.5969 H   0  0  0  0  0  0  0  0  0  0  0  0
  1  2  2  0
  2 32  1  0
  2  3  1  0
  3 33  1  0
  3  4  1  0
  4  5  1  0
  4  6  2  0
  6  7  1  0
  6 32  1  0
  7  8  2  3
  7 35  1  0
  8 31  1  0
  8  9  1  0
  9 10  2  0
  9 36  1  0
 10 11  1  0
 11 31  1  0
 11 12  1  0
 12 13  1  0
 12 17  2  0
 13 14  1  0
 13 52  1  0
 14 16  1  0
 14 15  1  0
 14 37  1  0
 15 16  1  0
 15 38  1  0
 15 39  1  0
 16 40  1  0
 16 41  1  0
 17 18  1  0
 18 19  2  3
 18 30  1  0
 19 20  1  0
 19 53  1  0
 20 21  1  0
 20 27  1  0
 20 42  1  6
 21 26  1  0
 21 22  2  0
 22 23  1  0
 22 43  1  0
 23 24  2  0
 23 44  1  0
 24 25  1  0
 24 45  1  0
 25 26  2  0
 26 46  1  0
 27 29  1  0
 27 28  1  0
 27 47  1  0
 28 29  1  0
 28 48  1  0
 28 49  1  0
 29 50  1  0
 29 51  1  0
 30 31  2  0
 32 34  1  0
M  CHG  2   5  -1  19   1
M  END
>  <i_m_ct_stereo_status>  (28) 
1

>  <s_m_source_file>  (28) 
/var/tmp/pbs.5076255.sched01/tmp3z6s85wa/08w76y650.sdf

>  <i_m_source_file_index>  (28) 
14

>  <i_lp_mmshare_version>  (28) 
48012

>  <i_f3d_flags>  (28) 
0

>  <s_epik_input>  (28) 
Tz1jMVtuSF1jKFtPSF0pYyhbbkhdMSkvW0NIXT1jKFxbY0hdbjIpYyhuMjMpbmMoXFtuSF1jXDM9TlxbQ0hdNFtDSDJdW0NIMl00KT1OL1tDQEBIXShbQ0hdNVtDSDJdW0NIMl01KWM2W2NIXVtjSF1bY0hdbltjSF02

>  <s_epik_cmdline>  (28) 
J2VwaWtfcHl0aG9uJywgJy1waHQnLCAnMi4wJywgJy1waCcsICc3LjAnLCAnLXRuJywgJzgnLCAnLW1hJywgJzIwMCcsICctaW1hZScsICc8aW5maWxlLm1hZT4nLCAnLW9tYWUnLCAnPG91dGZpbGUubWFlPic=

>  <r_epik_Ionization_Penalty>  (28) 
0.0120256

>  <r_epik_Ionization_Penalty_Charging>  (28) 
0.000762824

>  <r_epik_Ionization_Penalty_Neutral>  (28) 
0.0112628

>  <r_epik_State_Penalty>  (28) 
0.411367

>  <r_epik_Charging_Adjusted_Penalty>  (28) 
0.41213

>  <i_epik_Tot_Q>  (28) 
0

>  <i_epik_Tot_abs_Q>  (28) 
2

>  <s_epik_Chemistry_Notes>  (28) 
This compound has an imine and may undergo hydrolysis.

>  <s_lp_Force_Field>  (28) 
OPLS3e

>  <r_lp_Energy>  (28) 
40.1553

>  <b_lp_Chiralities_Consistent>  (28) 
1

>  <s_lp_Variant>  (28) 
10:0-3

>  <s_i_glide_gridfile>  (28) 
pfpi4k_grid

>  <i_i_glide_lignum>  (28) 
14

>  <i_i_glide_rotatable_bonds>  (28) 
6

>  <r_i_docking_score>  (28) 
-2.5839

>  <r_i_glide_ligand_efficiency>  (28) 
-0.0807469

>  <r_i_glide_ligand_efficiency_sa>  (28) 
-0.256356

>  <r_i_glide_ligand_efficiency_ln>  (28) 
-0.578606

>  <r_i_glide_gscore>  (28) 
-2.5839

>  <r_i_glide_lipo>  (28) 
-0.225666

>  <r_i_glide_hbond>  (28) 
0

>  <r_i_glide_metal>  (28) 
-0

>  <r_i_glide_rewards>  (28) 
-0.562511

>  <r_i_glide_evdw>  (28) 
-30.7452

>  <r_i_glide_ecoul>  (28) 
-4.85414

>  <r_i_glide_erotb>  (28) 
0.534247

>  <r_i_glide_esite>  (28) 
-0.0645931

>  <r_i_glide_emodel>  (28) 
-41.0485

>  <r_i_glide_energy>  (28) 
-35.5993

>  <r_i_glide_einternal>  (28) 
4.36533

>  <r_i_glide_intrahb_reward>  (28) 
-0

>  <i_i_glide_confnum>  (28) 
5

>  <i_i_glide_posenum>  (28) 
21

>  <r_i_glide_eff_state_penalty>  (28) 
0

>  <ligand_id>  (28) 
10

>  <original_smiles>  (28) 
O=c1[nH]c(O)c(C=c2cnn3c(=NC4CC4)[nH]c(=NC(c4cccnc4)C4CC4)nc23)[nH]1

>  <smiles>  (28) 
[H]C(c1c([O-])n([H])c(=O)n1[H])=c1c([H])nn2c(N([H])C3([H])C([H])([H])C3([H])[H])nc(=[N+]([H])C([H])(c3c([H])nc([H])c([H])c3[H])C3([H])C([H])([H])C3([H])[H])nc12

$$$$
10:3:0
     RDKit          3D

 53 58  0  0  1  0  0  0  0  0999 V2000
    4.5402   -8.4073    0.8179 O   0  0  0  0  0  0  0  0  0  0  0  0
    3.6847   -8.6754    1.6630 C   0  0  0  0  0  0  0  0  0  0  0  0
    3.1499   -9.8592    1.9585 N   0  0  0  0  0  0  0  0  0  0  0  0
    2.1735   -9.7323    2.9181 C   0  0  0  0  0  0  0  0  0  0  0  0
    1.7061  -10.8748    3.1691 O   0  0  0  0  0  0  0  0  0  0  0  0
    2.0993   -8.3988    3.2149 C   0  0  0  0  0  0  0  0  0  0  0  0
    1.2241   -7.7706    4.2015 C   0  0  0  0  0  0  0  0  0  0  0  0
    1.0555   -6.4337    4.3712 C   0  0  0  0  0  0  0  0  0  0  0  0
    0.2344   -5.8063    5.3710 C   0  0  0  0  0  0  0  0  0  0  0  0
    0.2461   -4.5113    5.3027 N   0  0  0  0  0  0  0  0  0  0  0  0
    1.0518   -4.1890    4.2821 N   0  0  0  0  0  0  0  0  0  0  0  0
    1.3766   -2.9039    3.8098 C   0  0  0  0  0  0  0  0  0  0  0  0
    0.8443   -1.8112    4.4594 N   0  0  0  0  0  0  0  0  0  0  0  0
    1.2128   -0.4607    4.0771 C   0  0  0  0  0  0  0  0  0  0  0  0
    2.4256    0.1482    4.7337 C   0  0  0  0  0  0  0  0  0  0  0  0
    1.0414    0.6724    5.0490 C   0  0  0  0  0  0  0  0  0  0  0  0
    2.1771   -2.7701    2.7858 N   0  0  0  0  0  0  0  0  0  0  0  0
    2.6732   -3.9111    2.2178 C   0  0  0  0  0  0  0  0  0  0  0  0
    3.4875   -3.8264    1.2197 N   0  0  0  0  0  0  0  0  0  0  0  0
    4.0178   -2.5879    0.6096 C   0  0  2  0  0  0  0  0  0  0  0  0
    4.1197   -2.7187   -0.9016 C   0  0  0  0  0  0  0  0  0  0  0  0
    3.4444   -1.8060   -1.7396 C   0  0  0  0  0  0  0  0  0  0  0  0
    3.5525   -1.9372   -3.1358 C   0  0  0  0  0  0  0  0  0  0  0  0
    4.3380   -2.9846   -3.6401 C   0  0  0  0  0  0  0  0  0  0  0  0
    5.0199   -3.8424   -2.8589 N   0  0  0  0  0  0  0  0  0  0  0  0
    4.9013   -3.7183   -1.5201 C   0  0  0  0  0  0  0  0  0  0  0  0
    5.3448   -2.1927    1.2335 C   0  0  0  0  0  0  0  0  0  0  0  0
    5.3951   -1.1903    2.3669 C   0  0  0  0  0  0  0  0  0  0  0  0
    5.9057   -0.8086    1.0036 C   0  0  0  0  0  0  0  0  0  0  0  0
    2.3834   -5.1757    2.6345 N   0  0  0  0  0  0  0  0  0  0  0  0
    1.5864   -5.3045    3.6555 C   0  0  0  0  0  0  0  0  0  0  0  0
    3.0845   -7.7974    2.4582 N   0  0  0  0  0  0  0  0  0  0  0  0
    3.4073  -10.7471    1.5226 H   0  0  0  0  0  0  0  0  0  0  0  0
    3.2273   -6.8067    2.4439 H   0  0  0  0  0  0  0  0  0  0  0  0
    0.7020   -8.4540    4.8699 H   0  0  0  0  0  0  0  0  0  0  0  0
   -0.3135   -6.4338    6.0827 H   0  0  0  0  0  0  0  0  0  0  0  0
    1.0497   -0.2621    3.0158 H   0  0  0  0  0  0  0  0  0  0  0  0
    2.9298   -0.4495    5.4909 H   0  0  0  0  0  0  0  0  0  0  0  0
    3.0737    0.7783    4.1270 H   0  0  0  0  0  0  0  0  0  0  0  0
    0.7902    1.6514    4.6459 H   0  0  0  0  0  0  0  0  0  0  0  0
    0.6146    0.4381    6.0204 H   0  0  0  0  0  0  0  0  0  0  0  0
    3.3036   -1.7894    0.8143 H   0  0  0  0  0  0  0  0  0  0  0  0
    2.8577   -1.0021   -1.3233 H   0  0  0  0  0  0  0  0  0  0  0  0
    3.0373   -1.2586   -3.7989 H   0  0  0  0  0  0  0  0  0  0  0  0
    4.4479   -3.1241   -4.7030 H   0  0  0  0  0  0  0  0  0  0  0  0
    5.4558   -4.4342   -0.9304 H   0  0  0  0  0  0  0  0  0  0  0  0
    6.0909   -2.9849    1.2577 H   0  0  0  0  0  0  0  0  0  0  0  0
    4.4568   -0.7496    2.6974 H   0  0  0  0  0  0  0  0  0  0  0  0
    6.1321   -1.3544    3.1499 H   0  0  0  0  0  0  0  0  0  0  0  0
    6.9846   -0.7101    0.8976 H   0  0  0  0  0  0  0  0  0  0  0  0
    5.3171   -0.0943    0.4320 H   0  0  0  0  0  0  0  0  0  0  0  0
    0.4219   -1.9004    5.3678 H   0  0  0  0  0  0  0  0  0  0  0  0
    3.8606   -4.6996    0.8588 H   0  0  0  0  0  0  0  0  0  0  0  0
  1  2  2  0
  2 32  1  0
  2  3  1  0
  3 33  1  0
  3  4  1  0
  4  5  1  0
  4  6  2  0
  6  7  1  0
  6 32  1  0
  7  8  2  3
  7 35  1  0
  8 31  1  0
  8  9  1  0
  9 10  2  0
  9 36  1  0
 10 11  1  0
 11 31  1  0
 11 12  1  0
 12 13  1  0
 12 17  2  0
 13 14  1  0
 13 52  1  0
 14 16  1  0
 14 15  1  0
 14 37  1  0
 15 16  1  0
 15 38  1  0
 15 39  1  0
 16 40  1  0
 16 41  1  0
 17 18  1  0
 18 19  2  3
 18 30  1  0
 19 20  1  0
 19 53  1  0
 20 21  1  0
 20 27  1  0
 20 42  1  6
 21 26  1  0
 21 22  2  0
 22 23  1  0
 22 43  1  0
 23 24  2  0
 23 44  1  0
 24 25  1  0
 24 45  1  0
 25 26  2  0
 26 46  1  0
 27 29  1  0
 27 28  1  0
 27 47  1  0
 28 29  1  0
 28 48  1  0
 28 49  1  0
 29 50  1  0
 29 51  1  0
 30 31  2  0
 32 34  1  0
M  CHG  2   5  -1  19   1
M  END
>  <i_m_ct_stereo_status>  (29) 
1

>  <s_m_source_file>  (29) 
/var/tmp/pbs.5076255.sched01/tmp3z6s85wa/08w76y650.sdf

>  <i_m_source_file_index>  (29) 
15

>  <i_lp_mmshare_version>  (29) 
48012

>  <i_f3d_flags>  (29) 
0

>  <s_epik_input>  (29) 
Tz1jMVtuSF1jKFtPSF0pYyhbbkhdMSkvW0NIXT1jKFxbY0hdbjIpYyhuMjMpbmMoXFtuSF1jXDM9TlxbQ0hdNFtDSDJdW0NIMl00KT1OL1tDQEBIXShbQ0hdNVtDSDJdW0NIMl01KWM2W2NIXVtjSF1bY0hdbltjSF02

>  <s_epik_cmdline>  (29) 
J2VwaWtfcHl0aG9uJywgJy1waHQnLCAnMi4wJywgJy1waCcsICc3LjAnLCAnLXRuJywgJzgnLCAnLW1hJywgJzIwMCcsICctaW1hZScsICc8aW5maWxlLm1hZT4nLCAnLW9tYWUnLCAnPG91dGZpbGUubWFlPic=

>  <r_epik_Ionization_Penalty>  (29) 
0.0120256

>  <r_epik_Ionization_Penalty_Charging>  (29) 
0.000762824

>  <r_epik_Ionization_Penalty_Neutral>  (29) 
0.0112628

>  <r_epik_State_Penalty>  (29) 
0.411367

>  <r_epik_Charging_Adjusted_Penalty>  (29) 
0.41213

>  <i_epik_Tot_Q>  (29) 
0

>  <i_epik_Tot_abs_Q>  (29) 
2

>  <s_epik_Chemistry_Notes>  (29) 
This compound has an imine and may undergo hydrolysis.

>  <s_lp_Force_Field>  (29) 
OPLS3e

>  <r_lp_Energy>  (29) 
38.115

>  <b_lp_Chiralities_Consistent>  (29) 
1

>  <s_lp_Variant>  (29) 
10:0-4

>  <s_i_glide_gridfile>  (29) 
pfpi4k_grid

>  <i_i_glide_lignum>  (29) 
15

>  <i_i_glide_rotatable_bonds>  (29) 
6

>  <r_i_docking_score>  (29) 
-2.83369

>  <r_i_glide_ligand_efficiency>  (29) 
-0.0885528

>  <r_i_glide_ligand_efficiency_sa>  (29) 
-0.281138

>  <r_i_glide_ligand_efficiency_ln>  (29) 
-0.63454

>  <r_i_glide_gscore>  (29) 
-2.83369

>  <r_i_glide_lipo>  (29) 
-0.581012

>  <r_i_glide_hbond>  (29) 
-0.16

>  <r_i_glide_metal>  (29) 
-0

>  <r_i_glide_rewards>  (29) 
-1.01707

>  <r_i_glide_evdw>  (29) 
-32.1717

>  <r_i_glide_ecoul>  (29) 
0.739346

>  <r_i_glide_erotb>  (29) 
0.534247

>  <r_i_glide_esite>  (29) 
-0.112169

>  <r_i_glide_emodel>  (29) 
-43.4891

>  <r_i_glide_energy>  (29) 
-31.4323

>  <r_i_glide_einternal>  (29) 
0.765157

>  <r_i_glide_intrahb_reward>  (29) 
-0.5

>  <i_i_glide_confnum>  (29) 
4

>  <i_i_glide_posenum>  (29) 
13

>  <r_i_glide_eff_state_penalty>  (29) 
0

>  <ligand_id>  (29) 
10

>  <original_smiles>  (29) 
O=c1[nH]c(O)c(C=c2cnn3c(=NC4CC4)[nH]c(=NC(c4cccnc4)C4CC4)nc23)[nH]1

>  <smiles>  (29) 
[H]C(c1c([O-])n([H])c(=O)n1[H])=c1c([H])nn2c(N([H])C3([H])C([H])([H])C3([H])[H])nc(=[N+]([H])C([H])(c3c([H])nc([H])c([H])c3[H])C3([H])C([H])([H])C3([H])[H])nc12

$$$$
10:3:1
     RDKit          3D

 53 58  0  0  1  0  0  0  0  0999 V2000
    2.9106   -2.6597    3.1511 O   0  0  0  0  0  0  0  0  0  0  0  0
    3.9649   -2.6693    2.5360 C   0  0  0  0  0  0  0  0  0  0  0  0
    4.5682   -1.6684    1.8760 N   0  0  0  0  0  0  0  0  0  0  0  0
    5.7033   -2.1127    1.2585 C   0  0  0  0  0  0  0  0  0  0  0  0
    6.2216   -1.1254    0.6342 O   0  0  0  0  0  0  0  0  0  0  0  0
    5.8241   -3.4377    1.5419 C   0  0  0  0  0  0  0  0  0  0  0  0
    6.8884   -4.3361    1.1185 C   0  0  0  0  0  0  0  0  0  0  0  0
    6.9181   -5.6815    1.3164 C   0  0  0  0  0  0  0  0  0  0  0  0
    7.9922   -6.5714    0.9653 C   0  0  0  0  0  0  0  0  0  0  0  0
    7.7592   -7.8056    1.2817 N   0  0  0  0  0  0  0  0  0  0  0  0
    6.5476   -7.8489    1.8209 N   0  0  0  0  0  0  0  0  0  0  0  0
    5.8630   -8.9699    2.3031 C   0  0  0  0  0  0  0  0  0  0  0  0
    6.4871  -10.1966    2.2403 N   0  0  0  0  0  0  0  0  0  0  0  0
    5.8904  -11.3736    2.8464 C   0  0  0  0  0  0  0  0  0  0  0  0
    6.3509  -11.7574    4.2281 C   0  0  0  0  0  0  0  0  0  0  0  0
    6.6998  -12.6252    3.0367 C   0  0  0  0  0  0  0  0  0  0  0  0
    4.6734   -8.8280    2.8202 N   0  0  0  0  0  0  0  0  0  0  0  0
    4.1560   -7.5680    2.8781 C   0  0  0  0  0  0  0  0  0  0  0  0
    2.9940   -7.3700    3.4236 N   0  0  0  0  0  0  0  0  0  0  0  0
    2.1358   -8.3851    4.0657 C   0  0  2  0  0  0  0  0  0  0  0  0
    0.7307   -8.3325    3.4937 C   0  0  0  0  0  0  0  0  0  0  0  0
    0.1259   -9.5086    2.9957 C   0  0  0  0  0  0  0  0  0  0  0  0
   -1.1745   -9.4225    2.4714 C   0  0  0  0  0  0  0  0  0  0  0  0
   -1.8251   -8.1875    2.4819 C   0  0  0  0  0  0  0  0  0  0  0  0
   -1.2663   -7.0490    2.9545 N   0  0  0  0  0  0  0  0  0  0  0  0
   -0.0180   -7.1375    3.4553 C   0  0  0  0  0  0  0  0  0  0  0  0
    2.1352   -8.2407    5.5732 C   0  0  0  0  0  0  0  0  0  0  0  0
    3.1725   -8.9621    6.4092 C   0  0  0  0  0  0  0  0  0  0  0  0
    1.7364   -9.4113    6.4466 C   0  0  0  0  0  0  0  0  0  0  0  0
    4.7789   -6.4472    2.4230 N   0  0  0  0  0  0  0  0  0  0  0  0
    5.9588   -6.5940    1.8964 C   0  0  0  0  0  0  0  0  0  0  0  0
    4.7554   -3.7265    2.3704 N   0  0  0  0  0  0  0  0  0  0  0  0
    4.2101   -0.7166    1.8180 H   0  0  0  0  0  0  0  0  0  0  0  0
    4.5622   -4.6550    2.6914 H   0  0  0  0  0  0  0  0  0  0  0  0
    7.7460   -3.8679    0.6359 H   0  0  0  0  0  0  0  0  0  0  0  0
    8.8855   -6.1662    0.4705 H   0  0  0  0  0  0  0  0  0  0  0  0
    4.8288  -11.4815    2.6044 H   0  0  0  0  0  0  0  0  0  0  0  0
    7.1426  -11.1540    4.6673 H   0  0  0  0  0  0  0  0  0  0  0  0
    5.6055  -12.1358    4.9248 H   0  0  0  0  0  0  0  0  0  0  0  0
    6.1770  -13.5759    2.9582 H   0  0  0  0  0  0  0  0  0  0  0  0
    7.7234  -12.6159    2.6733 H   0  0  0  0  0  0  0  0  0  0  0  0
    2.5324   -9.3729    3.8335 H   0  0  0  0  0  0  0  0  0  0  0  0
    0.6468  -10.4585    3.0163 H   0  0  0  0  0  0  0  0  0  0  0  0
   -1.6791  -10.2887    2.0746 H   0  0  0  0  0  0  0  0  0  0  0  0
   -2.8180   -8.0962    2.0841 H   0  0  0  0  0  0  0  0  0  0  0  0
    0.3916   -6.2093    3.8295 H   0  0  0  0  0  0  0  0  0  0  0  0
    1.8191   -7.2661    5.9403 H   0  0  0  0  0  0  0  0  0  0  0  0
    3.8881   -9.6025    5.8943 H   0  0  0  0  0  0  0  0  0  0  0  0
    3.5565   -8.4474    7.2890 H   0  0  0  0  0  0  0  0  0  0  0  0
    1.1785   -9.2026    7.3572 H   0  0  0  0  0  0  0  0  0  0  0  0
    1.4931  -10.3584    5.9673 H   0  0  0  0  0  0  0  0  0  0  0  0
    7.4586  -10.2771    2.0002 H   0  0  0  0  0  0  0  0  0  0  0  0
    2.6966   -6.4060    3.4848 H   0  0  0  0  0  0  0  0  0  0  0  0
  1  2  2  0
  2 32  1  0
  2  3  1  0
  3 33  1  0
  3  4  1  0
  4  5  1  0
  4  6  2  0
  6  7  1  0
  6 32  1  0
  7  8  2  3
  7 35  1  0
  8 31  1  0
  8  9  1  0
  9 10  2  0
  9 36  1  0
 10 11  1  0
 11 31  1  0
 11 12  1  0
 12 13  1  0
 12 17  2  0
 13 14  1  0
 13 52  1  0
 14 16  1  0
 14 15  1  0
 14 37  1  0
 15 16  1  0
 15 38  1  0
 15 39  1  0
 16 40  1  0
 16 41  1  0
 17 18  1  0
 18 19  2  3
 18 30  1  0
 19 20  1  0
 19 53  1  0
 20 21  1  0
 20 27  1  0
 20 42  1  1
 21 26  1  0
 21 22  2  0
 22 23  1  0
 22 43  1  0
 23 24  2  0
 23 44  1  0
 24 25  1  0
 24 45  1  0
 25 26  2  0
 26 46  1  0
 27 29  1  0
 27 28  1  0
 27 47  1  0
 28 29  1  0
 28 48  1  0
 28 49  1  0
 29 50  1  0
 29 51  1  0
 30 31  2  0
 32 34  1  0
M  CHG  2   5  -1  19   1
M  END
>  <i_m_ct_stereo_status>  (30) 
1

>  <s_m_source_file>  (30) 
/var/tmp/pbs.5076255.sched01/tmp3z6s85wa/08w76y650.sdf

>  <i_m_source_file_index>  (30) 
15

>  <i_lp_mmshare_version>  (30) 
48012

>  <i_f3d_flags>  (30) 
0

>  <s_epik_input>  (30) 
Tz1jMVtuSF1jKFtPSF0pYyhbbkhdMSkvW0NIXT1jKFxbY0hdbjIpYyhuMjMpbmMoXFtuSF1jXDM9TlxbQ0hdNFtDSDJdW0NIMl00KT1OL1tDQEBIXShbQ0hdNVtDSDJdW0NIMl01KWM2W2NIXVtjSF1bY0hdbltjSF02

>  <s_epik_cmdline>  (30) 
J2VwaWtfcHl0aG9uJywgJy1waHQnLCAnMi4wJywgJy1waCcsICc3LjAnLCAnLXRuJywgJzgnLCAnLW1hJywgJzIwMCcsICctaW1hZScsICc8aW5maWxlLm1hZT4nLCAnLW9tYWUnLCAnPG91dGZpbGUubWFlPic=

>  <r_epik_Ionization_Penalty>  (30) 
0.0120256

>  <r_epik_Ionization_Penalty_Charging>  (30) 
0.000762824

>  <r_epik_Ionization_Penalty_Neutral>  (30) 
0.0112628

>  <r_epik_State_Penalty>  (30) 
0.411367

>  <r_epik_Charging_Adjusted_Penalty>  (30) 
0.41213

>  <i_epik_Tot_Q>  (30) 
0

>  <i_epik_Tot_abs_Q>  (30) 
2

>  <s_epik_Chemistry_Notes>  (30) 
This compound has an imine and may undergo hydrolysis.

>  <s_lp_Force_Field>  (30) 
OPLS3e

>  <r_lp_Energy>  (30) 
38.115

>  <b_lp_Chiralities_Consistent>  (30) 
1

>  <s_lp_Variant>  (30) 
10:0-4

>  <s_i_glide_gridfile>  (30) 
pfpi4k_grid

>  <i_i_glide_lignum>  (30) 
15

>  <i_i_glide_rotatable_bonds>  (30) 
6

>  <r_i_docking_score>  (30) 
-2.83162

>  <r_i_glide_ligand_efficiency>  (30) 
-0.088488

>  <r_i_glide_ligand_efficiency_sa>  (30) 
-0.280932

>  <r_i_glide_ligand_efficiency_ln>  (30) 
-0.634076

>  <r_i_glide_gscore>  (30) 
-2.83162

>  <r_i_glide_lipo>  (30) 
-0.685115

>  <r_i_glide_hbond>  (30) 
-0.16

>  <r_i_glide_metal>  (30) 
-0

>  <r_i_glide_rewards>  (30) 
-1.16835

>  <r_i_glide_evdw>  (30) 
-29.2651

>  <r_i_glide_ecoul>  (30) 
0.916344

>  <r_i_glide_erotb>  (30) 
0.534247

>  <r_i_glide_esite>  (30) 
-0.026593

>  <r_i_glide_emodel>  (30) 
-40.5033

>  <r_i_glide_energy>  (30) 
-28.3488

>  <r_i_glide_einternal>  (30) 
0.39804

>  <r_i_glide_intrahb_reward>  (30) 
-0.5

>  <i_i_glide_confnum>  (30) 
4

>  <i_i_glide_posenum>  (30) 
14

>  <r_i_glide_eff_state_penalty>  (30) 
0

>  <ligand_id>  (30) 
10

>  <original_smiles>  (30) 
O=c1[nH]c(O)c(C=c2cnn3c(=NC4CC4)[nH]c(=NC(c4cccnc4)C4CC4)nc23)[nH]1

>  <smiles>  (30) 
[H]C(c1c([O-])n([H])c(=O)n1[H])=c1c([H])nn2c(N([H])C3([H])C([H])([H])C3([H])[H])nc(=[N+]([H])C([H])(c3c([H])nc([H])c([H])c3[H])C3([H])C([H])([H])C3([H])[H])nc12

$$$$
10:3:2
     RDKit          3D

 53 58  0  0  1  0  0  0  0  0999 V2000
   -1.8564   -2.0989    6.0526 O   0  0  0  0  0  0  0  0  0  0  0  0
   -1.4910   -1.0249    5.5953 C   0  0  0  0  0  0  0  0  0  0  0  0
   -2.0102    0.1915    5.7841 N   0  0  0  0  0  0  0  0  0  0  0  0
   -1.3860    1.1288    5.0085 C   0  0  0  0  0  0  0  0  0  0  0  0
   -1.9475    2.2177    5.2282 O   0  0  0  0  0  0  0  0  0  0  0  0
   -0.3811    0.4447    4.3349 C   0  0  0  0  0  0  0  0  0  0  0  0
    0.6012    1.0128    3.4176 C   0  0  0  0  0  0  0  0  0  0  0  0
    1.5597    0.3115    2.7513 C   0  0  0  0  0  0  0  0  0  0  0  0
    2.5488    0.8831    1.8923 C   0  0  0  0  0  0  0  0  0  0  0  0
    3.3490   -0.0013    1.3947 N   0  0  0  0  0  0  0  0  0  0  0  0
    2.9375   -1.1905    1.8351 N   0  0  0  0  0  0  0  0  0  0  0  0
    3.5131   -2.4399    1.5659 C   0  0  0  0  0  0  0  0  0  0  0  0
    4.6076   -2.4785    0.7396 N   0  0  0  0  0  0  0  0  0  0  0  0
    4.4751   -2.3572   -0.6935 C   0  0  0  0  0  0  0  0  0  0  0  0
    5.7283   -2.2511   -1.5316 C   0  0  0  0  0  0  0  0  0  0  0  0
    4.8375   -1.0503   -1.3339 C   0  0  0  0  0  0  0  0  0  0  0  0
    3.0429   -3.5203    2.1389 N   0  0  0  0  0  0  0  0  0  0  0  0
    1.9766   -3.3402    2.9750 C   0  0  0  0  0  0  0  0  0  0  0  0
    1.4251   -4.3599    3.5614 N   0  0  0  0  0  0  0  0  0  0  0  0
    1.8719   -5.7619    3.5031 C   0  0  2  0  0  0  0  0  0  0  0  0
    0.6926   -6.7187    3.4727 C   0  0  0  0  0  0  0  0  0  0  0  0
    0.6125   -7.7163    2.4742 C   0  0  0  0  0  0  0  0  0  0  0  0
   -0.4831   -8.6031    2.4842 C   0  0  0  0  0  0  0  0  0  0  0  0
   -1.4509   -8.4718    3.4929 C   0  0  0  0  0  0  0  0  0  0  0  0
   -1.3861   -7.5212    4.4503 N   0  0  0  0  0  0  0  0  0  0  0  0
   -0.3237   -6.6905    4.4535 C   0  0  0  0  0  0  0  0  0  0  0  0
    2.8331   -6.0887    4.6318 C   0  0  0  0  0  0  0  0  0  0  0  0
    4.3087   -5.7938    4.4841 C   0  0  0  0  0  0  0  0  0  0  0  0
    3.8272   -7.2198    4.4839 C   0  0  0  0  0  0  0  0  0  0  0  0
    1.3954   -2.1487    3.2716 N   0  0  0  0  0  0  0  0  0  0  0  0
    1.8728   -1.0817    2.6982 C   0  0  0  0  0  0  0  0  0  0  0  0
   -0.4698   -0.8577    4.7691 N   0  0  0  0  0  0  0  0  0  0  0  0
   -2.8366    0.4337    6.3216 H   0  0  0  0  0  0  0  0  0  0  0  0
    0.1253   -1.5934    4.4147 H   0  0  0  0  0  0  0  0  0  0  0  0
    0.5539    2.0959    3.2869 H   0  0  0  0  0  0  0  0  0  0  0  0
    2.5507    1.9649    1.7296 H   0  0  0  0  0  0  0  0  0  0  0  0
    3.6505   -2.9402   -1.1006 H   0  0  0  0  0  0  0  0  0  0  0  0
    6.6881   -2.2616   -1.0176 H   0  0  0  0  0  0  0  0  0  0  0  0
    5.7319   -2.6874   -2.5304 H   0  0  0  0  0  0  0  0  0  0  0  0
    4.2216   -0.7144   -2.1670 H   0  0  0  0  0  0  0  0  0  0  0  0
    5.1753   -0.2679   -0.6593 H   0  0  0  0  0  0  0  0  0  0  0  0
    2.4095   -5.8881    2.5674 H   0  0  0  0  0  0  0  0  0  0  0  0
    1.3769   -7.8136    1.7116 H   0  0  0  0  0  0  0  0  0  0  0  0
   -0.5842   -9.3760    1.7369 H   0  0  0  0  0  0  0  0  0  0  0  0
   -2.3078   -9.1291    3.5201 H   0  0  0  0  0  0  0  0  0  0  0  0
   -0.3140   -5.9631    5.2510 H   0  0  0  0  0  0  0  0  0  0  0  0
    2.4233   -5.9675    5.6312 H   0  0  0  0  0  0  0  0  0  0  0  0
    4.6560   -5.3827    3.5394 H   0  0  0  0  0  0  0  0  0  0  0  0
    4.8429   -5.4475    5.3653 H   0  0  0  0  0  0  0  0  0  0  0  0
    4.0525   -7.8147    5.3651 H   0  0  0  0  0  0  0  0  0  0  0  0
    3.8532   -7.7616    3.5415 H   0  0  0  0  0  0  0  0  0  0  0  0
    5.2700   -3.2000    0.9332 H   0  0  0  0  0  0  0  0  0  0  0  0
    0.6752   -4.1540    4.2083 H   0  0  0  0  0  0  0  0  0  0  0  0
  1  2  2  0
  2 32  1  0
  2  3  1  0
  3 33  1  0
  3  4  1  0
  4  5  1  0
  4  6  2  0
  6  7  1  0
  6 32  1  0
  7  8  2  3
  7 35  1  0
  8 31  1  0
  8  9  1  0
  9 10  2  0
  9 36  1  0
 10 11  1  0
 11 31  1  0
 11 12  1  0
 12 13  1  0
 12 17  2  0
 13 14  1  0
 13 52  1  0
 14 16  1  0
 14 15  1  0
 14 37  1  0
 15 16  1  0
 15 38  1  0
 15 39  1  0
 16 40  1  0
 16 41  1  0
 17 18  1  0
 18 19  2  3
 18 30  1  0
 19 20  1  0
 19 53  1  0
 20 21  1  0
 20 27  1  0
 20 42  1  6
 21 26  1  0
 21 22  2  0
 22 23  1  0
 22 43  1  0
 23 24  2  0
 23 44  1  0
 24 25  1  0
 24 45  1  0
 25 26  2  0
 26 46  1  0
 27 29  1  0
 27 28  1  0
 27 47  1  0
 28 29  1  0
 28 48  1  0
 28 49  1  0
 29 50  1  0
 29 51  1  0
 30 31  2  0
 32 34  1  0
M  CHG  2   5  -1  19   1
M  END
>  <i_m_ct_stereo_status>  (31) 
1

>  <s_m_source_file>  (31) 
/var/tmp/pbs.5076255.sched01/tmp3z6s85wa/08w76y650.sdf

>  <i_m_source_file_index>  (31) 
15

>  <i_lp_mmshare_version>  (31) 
48012

>  <i_f3d_flags>  (31) 
0

>  <s_epik_input>  (31) 
Tz1jMVtuSF1jKFtPSF0pYyhbbkhdMSkvW0NIXT1jKFxbY0hdbjIpYyhuMjMpbmMoXFtuSF1jXDM9TlxbQ0hdNFtDSDJdW0NIMl00KT1OL1tDQEBIXShbQ0hdNVtDSDJdW0NIMl01KWM2W2NIXVtjSF1bY0hdbltjSF02

>  <s_epik_cmdline>  (31) 
J2VwaWtfcHl0aG9uJywgJy1waHQnLCAnMi4wJywgJy1waCcsICc3LjAnLCAnLXRuJywgJzgnLCAnLW1hJywgJzIwMCcsICctaW1hZScsICc8aW5maWxlLm1hZT4nLCAnLW9tYWUnLCAnPG91dGZpbGUubWFlPic=

>  <r_epik_Ionization_Penalty>  (31) 
0.0120256

>  <r_epik_Ionization_Penalty_Charging>  (31) 
0.000762824

>  <r_epik_Ionization_Penalty_Neutral>  (31) 
0.0112628

>  <r_epik_State_Penalty>  (31) 
0.411367

>  <r_epik_Charging_Adjusted_Penalty>  (31) 
0.41213

>  <i_epik_Tot_Q>  (31) 
0

>  <i_epik_Tot_abs_Q>  (31) 
2

>  <s_epik_Chemistry_Notes>  (31) 
This compound has an imine and may undergo hydrolysis.

>  <s_lp_Force_Field>  (31) 
OPLS3e

>  <r_lp_Energy>  (31) 
38.115

>  <b_lp_Chiralities_Consistent>  (31) 
1

>  <s_lp_Variant>  (31) 
10:0-4

>  <s_i_glide_gridfile>  (31) 
pfpi4k_grid

>  <i_i_glide_lignum>  (31) 
15

>  <i_i_glide_rotatable_bonds>  (31) 
6

>  <r_i_docking_score>  (31) 
-2.55045

>  <r_i_glide_ligand_efficiency>  (31) 
-0.0797015

>  <r_i_glide_ligand_efficiency_sa>  (31) 
-0.253037

>  <r_i_glide_ligand_efficiency_ln>  (31) 
-0.571115

>  <r_i_glide_gscore>  (31) 
-2.55045

>  <r_i_glide_lipo>  (31) 
0

>  <r_i_glide_hbond>  (31) 
0

>  <r_i_glide_metal>  (31) 
-0

>  <r_i_glide_rewards>  (31) 
-0.96914

>  <r_i_glide_evdw>  (31) 
-31.469

>  <r_i_glide_ecoul>  (31) 
-2.1221

>  <r_i_glide_erotb>  (31) 
0.534247

>  <r_i_glide_esite>  (31) 
-0.223789

>  <r_i_glide_emodel>  (31) 
-41.5094

>  <r_i_glide_energy>  (31) 
-33.5911

>  <r_i_glide_einternal>  (31) 
7.09141

>  <r_i_glide_intrahb_reward>  (31) 
-0.5

>  <i_i_glide_confnum>  (31) 
2

>  <i_i_glide_posenum>  (31) 
1

>  <r_i_glide_eff_state_penalty>  (31) 
0

>  <ligand_id>  (31) 
10

>  <original_smiles>  (31) 
O=c1[nH]c(O)c(C=c2cnn3c(=NC4CC4)[nH]c(=NC(c4cccnc4)C4CC4)nc23)[nH]1

>  <smiles>  (31) 
[H]C(c1c([O-])n([H])c(=O)n1[H])=c1c([H])nn2c(N([H])C3([H])C([H])([H])C3([H])[H])nc(=[N+]([H])C([H])(c3c([H])nc([H])c([H])c3[H])C3([H])C([H])([H])C3([H])[H])nc12

$$$$
10:5:0
     RDKit          3D

 53 58  0  0  1  0  0  0  0  0999 V2000
    6.0145   -7.2220    1.9391 O   0  0  0  0  0  0  0  0  0  0  0  0
    6.5158   -6.2107    1.4530 C   0  0  0  0  0  0  0  0  0  0  0  0
    7.7092   -6.0763    0.8808 N   0  0  0  0  0  0  0  0  0  0  0  0
    7.9206   -4.7936    0.4627 C   0  0  0  0  0  0  0  0  0  0  0  0
    9.0188   -4.7531   -0.1159 O   0  0  0  0  0  0  0  0  0  0  0  0
    6.7952   -4.0822    0.8348 C   0  0  0  0  0  0  0  0  0  0  0  0
    6.5308   -2.6846    0.5827 C   0  0  0  0  0  0  0  0  0  0  0  0
    5.4020   -2.0172    0.9458 C   0  0  0  0  0  0  0  0  0  0  0  0
    5.1329   -0.6121    0.6462 C   0  0  0  0  0  0  0  0  0  0  0  0
    3.9905   -0.2197    1.0726 N   0  0  0  0  0  0  0  0  0  0  0  0
    3.4165   -1.3342    1.6911 N   0  0  0  0  0  0  0  0  0  0  0  0
    2.2296   -1.4469    2.3075 C   0  0  0  0  0  0  0  0  0  0  0  0
    1.4011   -0.3505    2.3267 N   0  0  0  0  0  0  0  0  0  0  0  0
    0.2657   -0.1956    3.2263 C   0  0  0  0  0  0  0  0  0  0  0  0
   -0.6677    0.9746    3.0273 C   0  0  0  0  0  0  0  0  0  0  0  0
    0.2415    0.9255    4.2370 C   0  0  0  0  0  0  0  0  0  0  0  0
    1.8242   -2.5752    2.9054 N   0  0  0  0  0  0  0  0  0  0  0  0
    2.6789   -3.5814    2.8008 C   0  0  0  0  0  0  0  0  0  0  0  0
    2.3362   -4.8203    3.2897 N   0  0  0  0  0  0  0  0  0  0  0  0
    1.0570   -5.2278    3.8431 C   0  0  2  0  0  0  0  0  0  0  0  0
    0.9323   -4.9533    5.3341 C   0  0  0  0  0  0  0  0  0  0  0  0
    0.1122   -3.9034    5.7977 C   0  0  0  0  0  0  0  0  0  0  0  0
    0.0149   -3.6874    7.1866 C   0  0  0  0  0  0  0  0  0  0  0  0
    0.7391   -4.5282    8.0538 C   0  0  0  0  0  0  0  0  0  0  0  0
    1.5079   -5.5466    7.6232 N   0  0  0  0  0  0  0  0  0  0  0  0
    1.6067   -5.7447    6.2926 C   0  0  0  0  0  0  0  0  0  0  0  0
    0.7670   -6.6915    3.5137 C   0  0  0  0  0  0  0  0  0  0  0  0
    0.0416   -7.0792    2.2445 C   0  0  0  0  0  0  0  0  0  0  0  0
   -0.6524   -7.2106    3.5769 C   0  0  0  0  0  0  0  0  0  0  0  0
    3.8552   -3.5683    2.2108 N   0  0  0  0  0  0  0  0  0  0  0  0
    4.1919   -2.4056    1.6556 C   0  0  0  0  0  0  0  0  0  0  0  0
    5.9537   -5.0016    1.4061 N   0  0  0  0  0  0  0  0  0  0  0  0
    8.4012   -6.8152    0.7565 H   0  0  0  0  0  0  0  0  0  0  0  0
    5.0458   -4.7335    1.7872 H   0  0  0  0  0  0  0  0  0  0  0  0
    7.2996   -2.1439    0.0503 H   0  0  0  0  0  0  0  0  0  0  0  0
    5.8898   -0.0232    0.1051 H   0  0  0  0  0  0  0  0  0  0  0  0
   -0.1768   -1.1475    3.5072 H   0  0  0  0  0  0  0  0  0  0  0  0
   -0.4364    1.7006    2.2498 H   0  0  0  0  0  0  0  0  0  0  0  0
   -1.7295    0.8193    3.2041 H   0  0  0  0  0  0  0  0  0  0  0  0
   -0.2290    0.7294    5.1986 H   0  0  0  0  0  0  0  0  0  0  0  0
    1.0815    1.6164    4.2633 H   0  0  0  0  0  0  0  0  0  0  0  0
    0.3026   -4.6341    3.3330 H   0  0  0  0  0  0  0  0  0  0  0  0
   -0.4384   -3.2796    5.1045 H   0  0  0  0  0  0  0  0  0  0  0  0
   -0.5832   -2.8857    7.5843 H   0  0  0  0  0  0  0  0  0  0  0  0
    0.7098   -4.3779    9.1235 H   0  0  0  0  0  0  0  0  0  0  0  0
    2.2358   -6.5703    5.9921 H   0  0  0  0  0  0  0  0  0  0  0  0
    1.5100   -7.4039    3.8671 H   0  0  0  0  0  0  0  0  0  0  0  0
   -0.2671   -6.2799    1.5769 H   0  0  0  0  0  0  0  0  0  0  0  0
    0.3524   -7.9996    1.7533 H   0  0  0  0  0  0  0  0  0  0  0  0
   -0.8142   -8.2205    3.9465 H   0  0  0  0  0  0  0  0  0  0  0  0
   -1.4488   -6.5089    3.8068 H   0  0  0  0  0  0  0  0  0  0  0  0
    3.0340   -5.5347    3.1690 H   0  0  0  0  0  0  0  0  0  0  0  0
    1.7102    0.4230    1.7595 H   0  0  0  0  0  0  0  0  0  0  0  0
  1  2  2  0
  2 32  1  0
  2  3  1  0
  3 33  1  0
  3  4  1  0
  4  5  1  0
  4  6  2  0
  6  7  1  0
  6 32  1  0
  7  8  2  3
  7 35  1  0
  8 31  1  0
  8  9  1  0
  9 10  2  0
  9 36  1  0
 10 11  1  0
 11 31  2  0
 11 12  1  0
 12 13  1  0
 12 17  2  0
 13 14  1  0
 13 53  1  0
 14 16  1  0
 14 15  1  0
 14 37  1  0
 15 16  1  0
 15 38  1  0
 15 39  1  0
 16 40  1  0
 16 41  1  0
 17 18  1  0
 18 19  1  0
 18 30  2  0
 19 20  1  0
 19 52  1  0
 20 21  1  0
 20 27  1  0
 20 42  1  6
 21 26  1  0
 21 22  2  0
 22 23  1  0
 22 43  1  0
 23 24  2  0
 23 44  1  0
 24 25  1  0
 24 45  1  0
 25 26  2  0
 26 46  1  0
 27 29  1  0
 27 28  1  0
 27 47  1  0
 28 29  1  0
 28 48  1  0
 28 49  1  0
 29 50  1  0
 29 51  1  0
 30 31  1  0
 32 34  1  0
M  CHG  2   5  -1  11   1
M  END
>  <i_m_ct_stereo_status>  (32) 
1

>  <s_m_source_file>  (32) 
/var/tmp/pbs.5076255.sched01/tmp3z6s85wa/08w76y650.sdf

>  <i_m_source_file_index>  (32) 
17

>  <i_lp_mmshare_version>  (32) 
48012

>  <i_f3d_flags>  (32) 
0

>  <s_epik_input>  (32) 
Tz1jMVtuSF1jKFtPSF0pYyhbbkhdMSkvW0NIXT1jKFxbY0hdbjIpYyhuMjMpbmMoXFtuSF1jXDM9TlxbQ0hdNFtDSDJdW0NIMl00KT1OL1tDQEBIXShbQ0hdNVtDSDJdW0NIMl01KWM2W2NIXVtjSF1bY0hdbltjSF02

>  <s_epik_cmdline>  (32) 
J2VwaWtfcHl0aG9uJywgJy1waHQnLCAnMi4wJywgJy1waCcsICc3LjAnLCAnLXRuJywgJzgnLCAnLW1hJywgJzIwMCcsICctaW1hZScsICc8aW5maWxlLm1hZT4nLCAnLW9tYWUnLCAnPG91dGZpbGUubWFlPic=

>  <r_epik_Ionization_Penalty>  (32) 
0.0167373

>  <r_epik_Ionization_Penalty_Charging>  (32) 
6.40823e-08

>  <r_epik_Ionization_Penalty_Neutral>  (32) 
0.0167373

>  <r_epik_State_Penalty>  (32) 
0.428607

>  <r_epik_Charging_Adjusted_Penalty>  (32) 
0.428607

>  <i_epik_Tot_Q>  (32) 
0

>  <i_epik_Tot_abs_Q>  (32) 
2

>  <s_epik_Chemistry_Notes>  (32) 
This compound has an imine and may undergo hydrolysis.

>  <s_lp_Force_Field>  (32) 
OPLS3e

>  <r_lp_Energy>  (32) 
28.5186

>  <b_lp_Chiralities_Consistent>  (32) 
1

>  <s_lp_Variant>  (32) 
10:0-6

>  <s_i_glide_gridfile>  (32) 
pfpi4k_grid

>  <i_i_glide_lignum>  (32) 
17

>  <i_i_glide_rotatable_bonds>  (32) 
7

>  <r_i_docking_score>  (32) 
-2.8833

>  <r_i_glide_ligand_efficiency>  (32) 
-0.0901032

>  <r_i_glide_ligand_efficiency_sa>  (32) 
-0.28606

>  <r_i_glide_ligand_efficiency_ln>  (32) 
-0.64565

>  <r_i_glide_gscore>  (32) 
-2.8833

>  <r_i_glide_lipo>  (32) 
-0.424952

>  <r_i_glide_hbond>  (32) 
-0.0724619

>  <r_i_glide_metal>  (32) 
-0

>  <r_i_glide_rewards>  (32) 
-1.30726

>  <r_i_glide_evdw>  (32) 
-29.7005

>  <r_i_glide_ecoul>  (32) 
-0.933201

>  <r_i_glide_erotb>  (32) 
0.641097

>  <r_i_glide_esite>  (32) 
-0.0947264

>  <r_i_glide_emodel>  (32) 
-40.8934

>  <r_i_glide_energy>  (32) 
-30.6337

>  <r_i_glide_einternal>  (32) 
3.23641

>  <r_i_glide_intrahb_reward>  (32) 
-0.5

>  <i_i_glide_confnum>  (32) 
6

>  <i_i_glide_posenum>  (32) 
17

>  <r_i_glide_eff_state_penalty>  (32) 
0

>  <ligand_id>  (32) 
10

>  <original_smiles>  (32) 
O=c1[nH]c(O)c(C=c2cnn3c(=NC4CC4)[nH]c(=NC(c4cccnc4)C4CC4)nc23)[nH]1

>  <smiles>  (32) 
[H]C1=N[n+]2c(nc(N([H])C([H])(c3c([H])nc([H])c([H])c3[H])C3([H])C([H])([H])C3([H])[H])nc2N([H])C2([H])C([H])([H])C2([H])[H])C1=C([H])c1c([O-])n([H])c(=O)n1[H]

$$$$
10:5:1
     RDKit          3D

 53 58  0  0  1  0  0  0  0  0999 V2000
    4.6682   -3.8546   -4.1245 O   0  0  0  0  0  0  0  0  0  0  0  0
    4.9182   -3.2419   -3.0906 C   0  0  0  0  0  0  0  0  0  0  0  0
    6.0350   -3.3101   -2.3427 N   0  0  0  0  0  0  0  0  0  0  0  0
    5.9529   -2.4911   -1.2487 C   0  0  0  0  0  0  0  0  0  0  0  0
    7.0331   -2.6240   -0.6039 O   0  0  0  0  0  0  0  0  0  0  0  0
    4.7346   -1.8624   -1.3563 C   0  0  0  0  0  0  0  0  0  0  0  0
    4.2323   -0.9061   -0.4140 C   0  0  0  0  0  0  0  0  0  0  0  0
    3.5261   -1.2018    0.7002 C   0  0  0  0  0  0  0  0  0  0  0  0
    2.8940   -0.1893    1.5799 C   0  0  0  0  0  0  0  0  0  0  0  0
    2.2516   -0.7144    2.5533 N   0  0  0  0  0  0  0  0  0  0  0  0
    2.4109   -2.1021    2.3929 N   0  0  0  0  0  0  0  0  0  0  0  0
    1.9309   -3.0742    3.1658 C   0  0  0  0  0  0  0  0  0  0  0  0
    1.1330   -2.7350    4.2550 N   0  0  0  0  0  0  0  0  0  0  0  0
    0.5578   -3.6763    5.2157 C   0  0  0  0  0  0  0  0  0  0  0  0
   -0.1485   -3.1586    6.4549 C   0  0  0  0  0  0  0  0  0  0  0  0
    1.1892   -3.8582    6.5768 C   0  0  0  0  0  0  0  0  0  0  0  0
    2.1752   -4.3548    2.9163 N   0  0  0  0  0  0  0  0  0  0  0  0
    2.9114   -4.5814    1.8348 C   0  0  0  0  0  0  0  0  0  0  0  0
    3.1802   -5.8935    1.5096 N   0  0  0  0  0  0  0  0  0  0  0  0
    2.7775   -7.1084    2.2313 C   0  0  2  0  0  0  0  0  0  0  0  0
    3.8127   -8.2440    2.1890 C   0  0  0  0  0  0  0  0  0  0  0  0
    3.8366   -9.2391    3.1987 C   0  0  0  0  0  0  0  0  0  0  0  0
    4.8194  -10.2528    3.1454 C   0  0  0  0  0  0  0  0  0  0  0  0
    5.7346  -10.2489    2.0758 C   0  0  0  0  0  0  0  0  0  0  0  0
    5.7273   -9.3146    1.1073 N   0  0  0  0  0  0  0  0  0  0  0  0
    4.7770   -8.3582    1.1575 C   0  0  0  0  0  0  0  0  0  0  0  0
    1.4313   -7.5826    1.7242 C   0  0  0  0  0  0  0  0  0  0  0  0
    0.1519   -7.0486    2.3244 C   0  0  0  0  0  0  0  0  0  0  0  0
    0.5517   -8.4730    2.5750 C   0  0  0  0  0  0  0  0  0  0  0  0
    3.4138   -3.7010    0.9922 N   0  0  0  0  0  0  0  0  0  0  0  0
    3.1336   -2.4484    1.3235 C   0  0  0  0  0  0  0  0  0  0  0  0
    4.1230   -2.3365   -2.5075 N   0  0  0  0  0  0  0  0  0  0  0  0
    6.8421   -3.9117   -2.5633 H   0  0  0  0  0  0  0  0  0  0  0  0
    3.1978   -2.0455   -2.7870 H   0  0  0  0  0  0  0  0  0  0  0  0
    4.3836    0.1309   -0.6709 H   0  0  0  0  0  0  0  0  0  0  0  0
    3.0109    0.8803    1.3391 H   0  0  0  0  0  0  0  0  0  0  0  0
    0.1199   -4.5445    4.7292 H   0  0  0  0  0  0  0  0  0  0  0  0
   -0.1692   -2.0858    6.6293 H   0  0  0  0  0  0  0  0  0  0  0  0
   -1.0187   -3.7024    6.8190 H   0  0  0  0  0  0  0  0  0  0  0  0
    1.1916   -4.8593    7.0037 H   0  0  0  0  0  0  0  0  0  0  0  0
    2.0591   -3.2503    6.8149 H   0  0  0  0  0  0  0  0  0  0  0  0
    2.6754   -6.8571    3.2874 H   0  0  0  0  0  0  0  0  0  0  0  0
    3.1328   -9.2321    4.0182 H   0  0  0  0  0  0  0  0  0  0  0  0
    4.8698  -11.0266    3.8991 H   0  0  0  0  0  0  0  0  0  0  0  0
    6.4997  -11.0088    1.9980 H   0  0  0  0  0  0  0  0  0  0  0  0
    4.8093   -7.6415    0.3522 H   0  0  0  0  0  0  0  0  0  0  0  0
    1.3947   -7.8012    0.6618 H   0  0  0  0  0  0  0  0  0  0  0  0
    0.2476   -6.3493    3.1506 H   0  0  0  0  0  0  0  0  0  0  0  0
   -0.6800   -6.8710    1.6475 H   0  0  0  0  0  0  0  0  0  0  0  0
   -0.0233   -9.2502    2.0777 H   0  0  0  0  0  0  0  0  0  0  0  0
    0.9025   -8.7304    3.5707 H   0  0  0  0  0  0  0  0  0  0  0  0
    3.6114   -6.0248    0.6044 H   0  0  0  0  0  0  0  0  0  0  0  0
    1.0010   -1.7474    4.4146 H   0  0  0  0  0  0  0  0  0  0  0  0
  1  2  2  0
  2 32  1  0
  2  3  1  0
  3 33  1  0
  3  4  1  0
  4  5  1  0
  4  6  2  0
  6  7  1  0
  6 32  1  0
  7  8  2  3
  7 35  1  0
  8 31  1  0
  8  9  1  0
  9 10  2  0
  9 36  1  0
 10 11  1  0
 11 31  2  0
 11 12  1  0
 12 13  1  0
 12 17  2  0
 13 14  1  0
 13 53  1  0
 14 16  1  0
 14 15  1  0
 14 37  1  0
 15 16  1  0
 15 38  1  0
 15 39  1  0
 16 40  1  0
 16 41  1  0
 17 18  1  0
 18 19  1  0
 18 30  2  0
 19 20  1  0
 19 52  1  0
 20 21  1  0
 20 27  1  0
 20 42  1  1
 21 26  1  0
 21 22  2  0
 22 23  1  0
 22 43  1  0
 23 24  2  0
 23 44  1  0
 24 25  1  0
 24 45  1  0
 25 26  2  0
 26 46  1  0
 27 29  1  0
 27 28  1  0
 27 47  1  0
 28 29  1  0
 28 48  1  0
 28 49  1  0
 29 50  1  0
 29 51  1  0
 30 31  1  0
 32 34  1  0
M  CHG  2   5  -1  11   1
M  END
>  <i_m_ct_stereo_status>  (33) 
1

>  <s_m_source_file>  (33) 
/var/tmp/pbs.5076255.sched01/tmp3z6s85wa/08w76y650.sdf

>  <i_m_source_file_index>  (33) 
17

>  <i_lp_mmshare_version>  (33) 
48012

>  <i_f3d_flags>  (33) 
0

>  <s_epik_input>  (33) 
Tz1jMVtuSF1jKFtPSF0pYyhbbkhdMSkvW0NIXT1jKFxbY0hdbjIpYyhuMjMpbmMoXFtuSF1jXDM9TlxbQ0hdNFtDSDJdW0NIMl00KT1OL1tDQEBIXShbQ0hdNVtDSDJdW0NIMl01KWM2W2NIXVtjSF1bY0hdbltjSF02

>  <s_epik_cmdline>  (33) 
J2VwaWtfcHl0aG9uJywgJy1waHQnLCAnMi4wJywgJy1waCcsICc3LjAnLCAnLXRuJywgJzgnLCAnLW1hJywgJzIwMCcsICctaW1hZScsICc8aW5maWxlLm1hZT4nLCAnLW9tYWUnLCAnPG91dGZpbGUubWFlPic=

>  <r_epik_Ionization_Penalty>  (33) 
0.0167373

>  <r_epik_Ionization_Penalty_Charging>  (33) 
6.40823e-08

>  <r_epik_Ionization_Penalty_Neutral>  (33) 
0.0167373

>  <r_epik_State_Penalty>  (33) 
0.428607

>  <r_epik_Charging_Adjusted_Penalty>  (33) 
0.428607

>  <i_epik_Tot_Q>  (33) 
0

>  <i_epik_Tot_abs_Q>  (33) 
2

>  <s_epik_Chemistry_Notes>  (33) 
This compound has an imine and may undergo hydrolysis.

>  <s_lp_Force_Field>  (33) 
OPLS3e

>  <r_lp_Energy>  (33) 
28.5186

>  <b_lp_Chiralities_Consistent>  (33) 
1

>  <s_lp_Variant>  (33) 
10:0-6

>  <s_i_glide_gridfile>  (33) 
pfpi4k_grid

>  <i_i_glide_lignum>  (33) 
17

>  <i_i_glide_rotatable_bonds>  (33) 
7

>  <r_i_docking_score>  (33) 
-2.36431

>  <r_i_glide_ligand_efficiency>  (33) 
-0.0738847

>  <r_i_glide_ligand_efficiency_sa>  (33) 
-0.234569

>  <r_i_glide_ligand_efficiency_ln>  (33) 
-0.529434

>  <r_i_glide_gscore>  (33) 
-2.36431

>  <r_i_glide_lipo>  (33) 
-0.00915699

>  <r_i_glide_hbond>  (33) 
-0.0184498

>  <r_i_glide_metal>  (33) 
-0

>  <r_i_glide_rewards>  (33) 
-0.745452

>  <r_i_glide_evdw>  (33) 
-36.9002

>  <r_i_glide_ecoul>  (33) 
-2.17345

>  <r_i_glide_erotb>  (33) 
0.641097

>  <r_i_glide_esite>  (33) 
-0.0613195

>  <r_i_glide_emodel>  (33) 
-41.0716

>  <r_i_glide_energy>  (33) 
-39.0737

>  <r_i_glide_einternal>  (33) 
7.92421

>  <r_i_glide_intrahb_reward>  (33) 
-0

>  <i_i_glide_confnum>  (33) 
8

>  <i_i_glide_posenum>  (33) 
1

>  <r_i_glide_eff_state_penalty>  (33) 
0

>  <ligand_id>  (33) 
10

>  <original_smiles>  (33) 
O=c1[nH]c(O)c(C=c2cnn3c(=NC4CC4)[nH]c(=NC(c4cccnc4)C4CC4)nc23)[nH]1

>  <smiles>  (33) 
[H]C1=N[n+]2c(nc(N([H])C([H])(c3c([H])nc([H])c([H])c3[H])C3([H])C([H])([H])C3([H])[H])nc2N([H])C2([H])C([H])([H])C2([H])[H])C1=C([H])c1c([O-])n([H])c(=O)n1[H]

$$$$
10:5:2
     RDKit          3D

 53 58  0  0  1  0  0  0  0  0999 V2000
    4.2494   -3.5608   -4.2867 O   0  0  0  0  0  0  0  0  0  0  0  0
    4.5126   -3.1215   -3.1727 C   0  0  0  0  0  0  0  0  0  0  0  0
    5.5103   -3.4952   -2.3540 N   0  0  0  0  0  0  0  0  0  0  0  0
    5.4799   -2.7941   -1.1748 C   0  0  0  0  0  0  0  0  0  0  0  0
    6.4355   -3.2400   -0.4740 O   0  0  0  0  0  0  0  0  0  0  0  0
    4.4378   -1.9048   -1.3121 C   0  0  0  0  0  0  0  0  0  0  0  0
    4.0354   -0.9739   -0.3044 C   0  0  0  0  0  0  0  0  0  0  0  0
    3.3998   -1.2692    0.8513 C   0  0  0  0  0  0  0  0  0  0  0  0
    2.8815   -0.2435    1.7937 C   0  0  0  0  0  0  0  0  0  0  0  0
    2.2817   -0.7610    2.7985 N   0  0  0  0  0  0  0  0  0  0  0  0
    2.3543   -2.1533    2.5913 N   0  0  0  0  0  0  0  0  0  0  0  0
    1.8827   -3.1193    3.3759 C   0  0  0  0  0  0  0  0  0  0  0  0
    1.1923   -2.7666    4.5325 N   0  0  0  0  0  0  0  0  0  0  0  0
    0.6894   -3.6897    5.5547 C   0  0  0  0  0  0  0  0  0  0  0  0
   -0.6004   -3.3754    6.2870 C   0  0  0  0  0  0  0  0  0  0  0  0
    0.7158   -3.2881    7.0195 C   0  0  0  0  0  0  0  0  0  0  0  0
    2.0494   -4.4038    3.0828 N   0  0  0  0  0  0  0  0  0  0  0  0
    2.6892   -4.6419    1.9445 C   0  0  0  0  0  0  0  0  0  0  0  0
    2.8595   -5.9627    1.5699 N   0  0  0  0  0  0  0  0  0  0  0  0
    2.5869   -7.1658    2.3728 C   0  0  2  0  0  0  0  0  0  0  0  0
    3.7918   -8.0913    2.5657 C   0  0  0  0  0  0  0  0  0  0  0  0
    4.2288   -8.9964    1.5607 C   0  0  0  0  0  0  0  0  0  0  0  0
    5.3125   -9.8507    1.8407 C   0  0  0  0  0  0  0  0  0  0  0  0
    5.9257   -9.7899    3.1038 C   0  0  0  0  0  0  0  0  0  0  0  0
    5.5359   -8.9291    4.0617 N   0  0  0  0  0  0  0  0  0  0  0  0
    4.5005   -8.1073    3.7935 C   0  0  0  0  0  0  0  0  0  0  0  0
    1.4249   -7.9369    1.7937 C   0  0  0  0  0  0  0  0  0  0  0  0
    0.0117   -7.4234    1.9093 C   0  0  0  0  0  0  0  0  0  0  0  0
    0.4333   -8.6295    2.7008 C   0  0  0  0  0  0  0  0  0  0  0  0
    3.1537   -3.7649    1.0818 N   0  0  0  0  0  0  0  0  0  0  0  0
    2.9805   -2.5111    1.4681 C   0  0  0  0  0  0  0  0  0  0  0  0
    3.8590   -2.1309   -2.5554 N   0  0  0  0  0  0  0  0  0  0  0  0
    6.1757   -4.2526   -2.5670 H   0  0  0  0  0  0  0  0  0  0  0  0
    3.0388   -1.6327   -2.8673 H   0  0  0  0  0  0  0  0  0  0  0  0
    4.2177    0.0635   -0.5357 H   0  0  0  0  0  0  0  0  0  0  0  0
    3.0463    0.8254    1.5708 H   0  0  0  0  0  0  0  0  0  0  0  0
    0.8914   -4.7332    5.3278 H   0  0  0  0  0  0  0  0  0  0  0  0
   -1.1121   -2.4464    6.0475 H   0  0  0  0  0  0  0  0  0  0  0  0
   -1.2538   -4.2097    6.5373 H   0  0  0  0  0  0  0  0  0  0  0  0
    0.9191   -4.0629    7.7564 H   0  0  0  0  0  0  0  0  0  0  0  0
    1.0804   -2.2976    7.2803 H   0  0  0  0  0  0  0  0  0  0  0  0
    2.2971   -6.8604    3.3788 H   0  0  0  0  0  0  0  0  0  0  0  0
    3.7331   -9.0817    0.6067 H   0  0  0  0  0  0  0  0  0  0  0  0
    5.6243  -10.5916    1.1134 H   0  0  0  0  0  0  0  0  0  0  0  0
    6.7389  -10.4600    3.3455 H   0  0  0  0  0  0  0  0  0  0  0  0
    4.2144   -7.4475    4.5975 H   0  0  0  0  0  0  0  0  0  0  0  0
    1.6302   -8.4734    0.8776 H   0  0  0  0  0  0  0  0  0  0  0  0
   -0.1200   -6.4823    2.4361 H   0  0  0  0  0  0  0  0  0  0  0  0
   -0.6297   -7.5856    1.0458 H   0  0  0  0  0  0  0  0  0  0  0  0
    0.0500   -9.5953    2.3795 H   0  0  0  0  0  0  0  0  0  0  0  0
    0.5660   -8.5137    3.7740 H   0  0  0  0  0  0  0  0  0  0  0  0
    3.1375   -6.1043    0.6087 H   0  0  0  0  0  0  0  0  0  0  0  0
    1.0784   -1.7757    4.6882 H   0  0  0  0  0  0  0  0  0  0  0  0
  1  2  2  0
  2 32  1  0
  2  3  1  0
  3 33  1  0
  3  4  1  0
  4  5  1  0
  4  6  2  0
  6  7  1  0
  6 32  1  0
  7  8  2  3
  7 35  1  0
  8 31  1  0
  8  9  1  0
  9 10  2  0
  9 36  1  0
 10 11  1  0
 11 31  2  0
 11 12  1  0
 12 13  1  0
 12 17  2  0
 13 14  1  0
 13 53  1  0
 14 16  1  0
 14 15  1  0
 14 37  1  0
 15 16  1  0
 15 38  1  0
 15 39  1  0
 16 40  1  0
 16 41  1  0
 17 18  1  0
 18 19  1  0
 18 30  2  0
 19 20  1  0
 19 52  1  0
 20 21  1  0
 20 27  1  0
 20 42  1  1
 21 26  1  0
 21 22  2  0
 22 23  1  0
 22 43  1  0
 23 24  2  0
 23 44  1  0
 24 25  1  0
 24 45  1  0
 25 26  2  0
 26 46  1  0
 27 29  1  0
 27 28  1  0
 27 47  1  0
 28 29  1  0
 28 48  1  0
 28 49  1  0
 29 50  1  0
 29 51  1  0
 30 31  1  0
 32 34  1  0
M  CHG  2   5  -1  11   1
M  END
>  <i_m_ct_stereo_status>  (34) 
1

>  <s_m_source_file>  (34) 
/var/tmp/pbs.5076255.sched01/tmp3z6s85wa/08w76y650.sdf

>  <i_m_source_file_index>  (34) 
17

>  <i_lp_mmshare_version>  (34) 
48012

>  <i_f3d_flags>  (34) 
0

>  <s_epik_input>  (34) 
Tz1jMVtuSF1jKFtPSF0pYyhbbkhdMSkvW0NIXT1jKFxbY0hdbjIpYyhuMjMpbmMoXFtuSF1jXDM9TlxbQ0hdNFtDSDJdW0NIMl00KT1OL1tDQEBIXShbQ0hdNVtDSDJdW0NIMl01KWM2W2NIXVtjSF1bY0hdbltjSF02

>  <s_epik_cmdline>  (34) 
J2VwaWtfcHl0aG9uJywgJy1waHQnLCAnMi4wJywgJy1waCcsICc3LjAnLCAnLXRuJywgJzgnLCAnLW1hJywgJzIwMCcsICctaW1hZScsICc8aW5maWxlLm1hZT4nLCAnLW9tYWUnLCAnPG91dGZpbGUubWFlPic=

>  <r_epik_Ionization_Penalty>  (34) 
0.0167373

>  <r_epik_Ionization_Penalty_Charging>  (34) 
6.40823e-08

>  <r_epik_Ionization_Penalty_Neutral>  (34) 
0.0167373

>  <r_epik_State_Penalty>  (34) 
0.428607

>  <r_epik_Charging_Adjusted_Penalty>  (34) 
0.428607

>  <i_epik_Tot_Q>  (34) 
0

>  <i_epik_Tot_abs_Q>  (34) 
2

>  <s_epik_Chemistry_Notes>  (34) 
This compound has an imine and may undergo hydrolysis.

>  <s_lp_Force_Field>  (34) 
OPLS3e

>  <r_lp_Energy>  (34) 
28.5186

>  <b_lp_Chiralities_Consistent>  (34) 
1

>  <s_lp_Variant>  (34) 
10:0-6

>  <s_i_glide_gridfile>  (34) 
pfpi4k_grid

>  <i_i_glide_lignum>  (34) 
17

>  <i_i_glide_rotatable_bonds>  (34) 
7

>  <r_i_docking_score>  (34) 
-2.27974

>  <r_i_glide_ligand_efficiency>  (34) 
-0.0712418

>  <r_i_glide_ligand_efficiency_sa>  (34) 
-0.226179

>  <r_i_glide_ligand_efficiency_ln>  (34) 
-0.510495

>  <r_i_glide_gscore>  (34) 
-2.27974

>  <r_i_glide_lipo>  (34) 
0

>  <r_i_glide_hbond>  (34) 
-0.103144

>  <r_i_glide_metal>  (34) 
-0

>  <r_i_glide_rewards>  (34) 
-0.674594

>  <r_i_glide_evdw>  (34) 
-35.4715

>  <r_i_glide_ecoul>  (34) 
-2.03042

>  <r_i_glide_erotb>  (34) 
0.641097

>  <r_i_glide_esite>  (34) 
-0.0649583

>  <r_i_glide_emodel>  (34) 
-38.0425

>  <r_i_glide_energy>  (34) 
-37.5019

>  <r_i_glide_einternal>  (34) 
9.46378

>  <r_i_glide_intrahb_reward>  (34) 
-0

>  <i_i_glide_confnum>  (34) 
6

>  <i_i_glide_posenum>  (34) 
24

>  <r_i_glide_eff_state_penalty>  (34) 
0

>  <ligand_id>  (34) 
10

>  <original_smiles>  (34) 
O=c1[nH]c(O)c(C=c2cnn3c(=NC4CC4)[nH]c(=NC(c4cccnc4)C4CC4)nc23)[nH]1

>  <smiles>  (34) 
[H]C1=N[n+]2c(nc(N([H])C([H])(c3c([H])nc([H])c([H])c3[H])C3([H])C([H])([H])C3([H])[H])nc2N([H])C2([H])C([H])([H])C2([H])[H])C1=C([H])c1c([O-])n([H])c(=O)n1[H]

$$$$
11:0:0
     RDKit          3D

 32 34  0  0  1  0  0  0  0  0999 V2000
    0.6394   -8.0929    2.7600 N   0  0  0  0  0  0  0  0  0  0  0  0
    1.6721   -7.2466    2.6752 C   0  0  0  0  0  0  0  0  0  0  0  0
    2.5905   -7.2119    3.6642 N   0  0  0  0  0  0  0  0  0  0  0  0
    3.6156   -6.3596    3.5762 C   0  0  0  0  0  0  0  0  0  0  0  0
    3.8901   -5.4759    2.6013 N   0  0  0  0  0  0  0  0  0  0  0  0
    2.9583   -5.5177    1.6070 C   0  0  0  0  0  0  0  0  0  0  0  0
    1.8320   -6.3770    1.5719 C   0  0  0  0  0  0  0  0  0  0  0  0
    1.1022   -6.1716    0.4227 N   0  0  0  0  0  0  0  0  0  0  0  0
    1.8058   -5.2784   -0.2203 C   0  0  0  0  0  0  0  0  0  0  0  0
    2.8924   -4.7617    0.4532 N   0  0  0  0  0  0  0  0  0  0  0  0
    3.8746   -3.7452   -0.0227 C   0  0  2  0  0  0  0  0  0  0  0  0
    4.1803   -2.8641    1.0185 O   0  0  0  0  0  0  0  0  0  0  0  0
    4.0689   -1.5036    0.5901 C   0  0  1  0  0  0  0  0  0  0  0  0
    5.2487   -0.6674    1.1180 C   0  0  0  0  0  0  0  0  0  0  0  0
    5.0293   -0.2648    2.4529 O   0  0  0  0  0  0  0  0  0  0  0  0
    3.9972   -1.5756   -0.9430 C   0  0  1  0  0  0  0  0  0  0  0  0
    5.3016   -1.6177   -1.5075 O   0  0  0  0  0  0  0  0  0  0  0  0
    3.2757   -2.8932   -1.1418 C   0  0  1  0  0  0  0  0  0  0  0  0
    3.4871   -3.4371   -2.4320 O   0  0  0  0  0  0  0  0  0  0  0  0
    0.5897   -8.7382    3.5331 H   0  0  0  0  0  0  0  0  0  0  0  0
    0.0104   -8.1655    1.9737 H   0  0  0  0  0  0  0  0  0  0  0  0
    4.3165   -6.3823    4.3980 H   0  0  0  0  0  0  0  0  0  0  0  0
    1.4583   -4.9278   -1.1840 H   0  0  0  0  0  0  0  0  0  0  0  0
    4.7640   -4.3104   -0.3015 H   0  0  0  0  0  0  0  0  0  0  0  0
    3.1165   -1.1148    0.9614 H   0  0  0  0  0  0  0  0  0  0  0  0
    6.1887   -1.2158    1.0335 H   0  0  0  0  0  0  0  0  0  0  0  0
    5.3500    0.2364    0.5170 H   0  0  0  0  0  0  0  0  0  0  0  0
    4.2283    0.2400    2.4827 H   0  0  0  0  0  0  0  0  0  0  0  0
    3.4356   -0.7373   -1.3648 H   0  0  0  0  0  0  0  0  0  0  0  0
    5.6792   -2.4508   -1.2691 H   0  0  0  0  0  0  0  0  0  0  0  0
    2.2205   -2.7037   -0.9361 H   0  0  0  0  0  0  0  0  0  0  0  0
    3.1962   -4.3468   -2.4508 H   0  0  0  0  0  0  0  0  0  0  0  0
  1  2  1  0
  1 21  1  0
  1 20  1  0
  2  3  2  0
  2  7  1  0
  3  4  1  0
  4 22  1  0
  4  5  2  0
  5  6  1  0
  6 10  1  0
  6  7  2  0
  7  8  1  0
  8  9  2  0
  9 23  1  0
  9 10  1  0
 10 11  1  0
 11 18  1  0
 11 12  1  0
 11 24  1  6
 12 13  1  0
 13 14  1  0
 13 16  1  0
 13 25  1  1
 14 15  1  0
 14 26  1  0
 14 27  1  0
 15 28  1  0
 16 17  1  0
 16 18  1  0
 16 29  1  6
 17 30  1  0
 18 19  1  0
 18 31  1  1
 19 32  1  0
M  END
>  <i_m_ct_stereo_status>  (35) 
1

>  <s_m_source_file>  (35) 
/var/tmp/pbs.5076255.sched01/tmp3z6s85wa/08w76y650.sdf

>  <i_m_source_file_index>  (35) 
18

>  <i_lp_mmshare_version>  (35) 
48012

>  <i_f3d_flags>  (35) 
0

>  <s_epik_input>  (35) 
bjFbY0hdW25IXVxjKD1OXFtIXSljKGMxMiluW2NIXW4yW0NAQEhdM09bQ0BASF0oW0NIMl1bT0hdKVtDQEBIXShbT0hdKVtDQEhdM1tPSF0=

>  <s_epik_cmdline>  (35) 
J2VwaWtfcHl0aG9uJywgJy1waHQnLCAnMi4wJywgJy1waCcsICc3LjAnLCAnLXRuJywgJzgnLCAnLW1hJywgJzIwMCcsICctaW1hZScsICc8aW5maWxlLm1hZT4nLCAnLW9tYWUnLCAnPG91dGZpbGUubWFlPic=

>  <r_lp_tautomer_probability>  (35) 
1

>  <r_epik_Ionization_Penalty>  (35) 
0.000428445

>  <r_epik_Ionization_Penalty_Charging>  (35) 
0

>  <r_epik_Ionization_Penalty_Neutral>  (35) 
0.000428445

>  <r_epik_State_Penalty>  (35) 
-0

>  <r_epik_Charging_Adjusted_Penalty>  (35) 
0

>  <i_epik_Tot_Q>  (35) 
0

>  <i_epik_Tot_abs_Q>  (35) 
0

>  <s_epik_Chemistry_Notes>  (35) 
This compound contains an acetal/aminal-like group ( X-CH(R)-Y where X, Y are N, S, or O) that may be acid/base labile, releasing an aldehyde.

>  <s_lp_Force_Field>  (35) 
OPLS3e

>  <r_lp_Energy>  (35) 
18.2998

>  <b_lp_Chiralities_Consistent>  (35) 
1

>  <s_lp_Variant>  (35) 
11:0-1

>  <s_i_glide_gridfile>  (35) 
pfpi4k_grid

>  <i_i_glide_lignum>  (35) 
18

>  <i_i_glide_rotatable_bonds>  (35) 
5

>  <r_i_docking_score>  (35) 
-4.16285

>  <r_i_glide_ligand_efficiency>  (35) 
-0.219098

>  <r_i_glide_ligand_efficiency_sa>  (35) 
-0.58464

>  <r_i_glide_ligand_efficiency_ln>  (35) 
-1.05537

>  <r_i_glide_gscore>  (35) 
-4.16285

>  <r_i_glide_lipo>  (35) 
-0.142185

>  <r_i_glide_hbond>  (35) 
-0.203774

>  <r_i_glide_metal>  (35) 
-0

>  <r_i_glide_rewards>  (35) 
-1.58796

>  <r_i_glide_evdw>  (35) 
-15.8814

>  <r_i_glide_ecoul>  (35) 
-11.8119

>  <r_i_glide_erotb>  (35) 
0.499276

>  <r_i_glide_esite>  (35) 
-0.162363

>  <r_i_glide_emodel>  (35) 
-36.1462

>  <r_i_glide_energy>  (35) 
-27.6932

>  <r_i_glide_einternal>  (35) 
2.08758

>  <r_i_glide_intrahb_reward>  (35) 
-0

>  <i_i_glide_confnum>  (35) 
3

>  <i_i_glide_posenum>  (35) 
38

>  <r_i_glide_eff_state_penalty>  (35) 
0

>  <ligand_id>  (35) 
11

>  <original_smiles>  (35) 
N=c1[nH]cnc2c1ncn2C1OC(CO)C(O)C1O

>  <smiles>  (35) 
[H]OC([H])([H])C1([H])OC([H])(n2c([H])nc3c(N([H])[H])nc([H])nc32)C([H])(O[H])C1([H])O[H]

$$$$
11:0:1
     RDKit          3D

 32 34  0  0  1  0  0  0  0  0999 V2000
    7.8101   -6.5850    1.2906 N   0  0  0  0  0  0  0  0  0  0  0  0
    6.5100   -6.8206    1.4946 C   0  0  0  0  0  0  0  0  0  0  0  0
    5.6538   -5.7788    1.4356 N   0  0  0  0  0  0  0  0  0  0  0  0
    4.3475   -6.0024    1.6349 C   0  0  0  0  0  0  0  0  0  0  0  0
    3.7300   -7.1555    1.8953 N   0  0  0  0  0  0  0  0  0  0  0  0
    4.5955   -8.2075    1.9374 C   0  0  0  0  0  0  0  0  0  0  0  0
    6.0021   -8.1153    1.7463 C   0  0  0  0  0  0  0  0  0  0  0  0
    6.5789   -9.3778    1.8503 N   0  0  0  0  0  0  0  0  0  0  0  0
    5.5628  -10.1662    2.0733 C   0  0  0  0  0  0  0  0  0  0  0  0
    4.3350   -9.5425    2.1575 N   0  0  0  0  0  0  0  0  0  0  0  0
    3.0246  -10.2226    2.3846 C   0  0  2  0  0  0  0  0  0  0  0  0
    1.9655   -9.3634    2.0825 O   0  0  0  0  0  0  0  0  0  0  0  0
    1.0278   -9.3372    3.1584 C   0  0  1  0  0  0  0  0  0  0  0  0
   -0.4115   -9.2613    2.6089 C   0  0  0  0  0  0  0  0  0  0  0  0
   -1.3320   -8.9938    3.6519 O   0  0  0  0  0  0  0  0  0  0  0  0
    1.3771  -10.5653    4.0198 C   0  0  1  0  0  0  0  0  0  0  0  0
    0.7671  -11.7323    3.4776 O   0  0  0  0  0  0  0  0  0  0  0  0
    2.8860  -10.6384    3.8552 C   0  0  1  0  0  0  0  0  0  0  0  0
    3.3515  -11.9488    4.1010 O   0  0  0  0  0  0  0  0  0  0  0  0
    8.1116   -5.6386    1.1258 H   0  0  0  0  0  0  0  0  0  0  0  0
    8.4656   -7.3594    1.3401 H   0  0  0  0  0  0  0  0  0  0  0  0
    3.6985   -5.1366    1.5636 H   0  0  0  0  0  0  0  0  0  0  0  0
    5.6674  -11.2405    2.1875 H   0  0  0  0  0  0  0  0  0  0  0  0
    3.0181  -11.0490    1.6937 H   0  0  0  0  0  0  0  0  0  0  0  0
    1.2604   -8.4345    3.7265 H   0  0  0  0  0  0  0  0  0  0  0  0
   -0.4772   -8.4563    1.8752 H   0  0  0  0  0  0  0  0  0  0  0  0
   -0.6947  -10.1658    2.0676 H   0  0  0  0  0  0  0  0  0  0  0  0
   -1.4452   -9.7832    4.1827 H   0  0  0  0  0  0  0  0  0  0  0  0
    1.0840  -10.4444    5.0663 H   0  0  0  0  0  0  0  0  0  0  0  0
    1.0924  -12.4976    3.9288 H   0  0  0  0  0  0  0  0  0  0  0  0
    3.3871   -9.9015    4.4876 H   0  0  0  0  0  0  0  0  0  0  0  0
    2.9246  -12.5505    3.5054 H   0  0  0  0  0  0  0  0  0  0  0  0
  1  2  1  0
  1 21  1  0
  1 20  1  0
  2  3  2  0
  2  7  1  0
  3  4  1  0
  4 22  1  0
  4  5  2  0
  5  6  1  0
  6 10  1  0
  6  7  2  0
  7  8  1  0
  8  9  2  0
  9 23  1  0
  9 10  1  0
 10 11  1  0
 11 18  1  0
 11 12  1  0
 11 24  1  6
 12 13  1  0
 13 14  1  0
 13 16  1  0
 13 25  1  1
 14 15  1  0
 14 26  1  0
 14 27  1  0
 15 28  1  0
 16 17  1  0
 16 18  1  0
 16 29  1  1
 17 30  1  0
 18 19  1  0
 18 31  1  1
 19 32  1  0
M  END
>  <i_m_ct_stereo_status>  (36) 
1

>  <s_m_source_file>  (36) 
/var/tmp/pbs.5076255.sched01/tmp3z6s85wa/08w76y650.sdf

>  <i_m_source_file_index>  (36) 
18

>  <i_lp_mmshare_version>  (36) 
48012

>  <i_f3d_flags>  (36) 
0

>  <s_epik_input>  (36) 
bjFbY0hdW25IXVxjKD1OXFtIXSljKGMxMiluW2NIXW4yW0NAQEhdM09bQ0BASF0oW0NIMl1bT0hdKVtDQEBIXShbT0hdKVtDQEhdM1tPSF0=

>  <s_epik_cmdline>  (36) 
J2VwaWtfcHl0aG9uJywgJy1waHQnLCAnMi4wJywgJy1waCcsICc3LjAnLCAnLXRuJywgJzgnLCAnLW1hJywgJzIwMCcsICctaW1hZScsICc8aW5maWxlLm1hZT4nLCAnLW9tYWUnLCAnPG91dGZpbGUubWFlPic=

>  <r_lp_tautomer_probability>  (36) 
1

>  <r_epik_Ionization_Penalty>  (36) 
0.000428445

>  <r_epik_Ionization_Penalty_Charging>  (36) 
0

>  <r_epik_Ionization_Penalty_Neutral>  (36) 
0.000428445

>  <r_epik_State_Penalty>  (36) 
-0

>  <r_epik_Charging_Adjusted_Penalty>  (36) 
0

>  <i_epik_Tot_Q>  (36) 
0

>  <i_epik_Tot_abs_Q>  (36) 
0

>  <s_epik_Chemistry_Notes>  (36) 
This compound contains an acetal/aminal-like group ( X-CH(R)-Y where X, Y are N, S, or O) that may be acid/base labile, releasing an aldehyde.

>  <s_lp_Force_Field>  (36) 
OPLS3e

>  <r_lp_Energy>  (36) 
18.2998

>  <b_lp_Chiralities_Consistent>  (36) 
1

>  <s_lp_Variant>  (36) 
11:0-1

>  <s_i_glide_gridfile>  (36) 
pfpi4k_grid

>  <i_i_glide_lignum>  (36) 
18

>  <i_i_glide_rotatable_bonds>  (36) 
5

>  <r_i_docking_score>  (36) 
-3.92563

>  <r_i_glide_ligand_efficiency>  (36) 
-0.206612

>  <r_i_glide_ligand_efficiency_sa>  (36) 
-0.551324

>  <r_i_glide_ligand_efficiency_ln>  (36) 
-0.995232

>  <r_i_glide_gscore>  (36) 
-3.92563

>  <r_i_glide_lipo>  (36) 
-0.195757

>  <r_i_glide_hbond>  (36) 
-0.00373387

>  <r_i_glide_metal>  (36) 
-0

>  <r_i_glide_rewards>  (36) 
-1.64771

>  <r_i_glide_evdw>  (36) 
-19.888

>  <r_i_glide_ecoul>  (36) 
-9.27148

>  <r_i_glide_erotb>  (36) 
0.499276

>  <r_i_glide_esite>  (36) 
-0.192582

>  <r_i_glide_emodel>  (36) 
-37.2661

>  <r_i_glide_energy>  (36) 
-29.1595

>  <r_i_glide_einternal>  (36) 
2.49117

>  <r_i_glide_intrahb_reward>  (36) 
-0

>  <i_i_glide_confnum>  (36) 
6

>  <i_i_glide_posenum>  (36) 
2

>  <r_i_glide_eff_state_penalty>  (36) 
0

>  <ligand_id>  (36) 
11

>  <original_smiles>  (36) 
N=c1[nH]cnc2c1ncn2C1OC(CO)C(O)C1O

>  <smiles>  (36) 
[H]OC([H])([H])C1([H])OC([H])(n2c([H])nc3c(N([H])[H])nc([H])nc32)C([H])(O[H])C1([H])O[H]

$$$$
11:0:2
     RDKit          3D

 32 34  0  0  1  0  0  0  0  0999 V2000
    7.8095   -7.0506    1.3335 N   0  0  0  0  0  0  0  0  0  0  0  0
    6.5208   -7.2123    1.6533 C   0  0  0  0  0  0  0  0  0  0  0  0
    5.7059   -6.1380    1.6038 N   0  0  0  0  0  0  0  0  0  0  0  0
    4.4123   -6.2851    1.9207 C   0  0  0  0  0  0  0  0  0  0  0  0
    3.7636   -7.3930    2.2893 N   0  0  0  0  0  0  0  0  0  0  0  0
    4.5834   -8.4842    2.3072 C   0  0  0  0  0  0  0  0  0  0  0  0
    5.9762   -8.4676    2.0085 C   0  0  0  0  0  0  0  0  0  0  0  0
    6.5023   -9.7504    2.1380 N   0  0  0  0  0  0  0  0  0  0  0  0
    5.4689  -10.4816    2.4674 C   0  0  0  0  0  0  0  0  0  0  0  0
    4.2760   -9.7988    2.5917 N   0  0  0  0  0  0  0  0  0  0  0  0
    2.9552  -10.3823    2.9698 C   0  0  2  0  0  0  0  0  0  0  0  0
    1.9341   -9.6513    2.3625 O   0  0  0  0  0  0  0  0  0  0  0  0
    0.9387   -9.2949    3.3276 C   0  0  1  0  0  0  0  0  0  0  0  0
   -0.4667   -9.4172    2.7104 C   0  0  0  0  0  0  0  0  0  0  0  0
   -1.4595   -9.0239    3.6460 O   0  0  0  0  0  0  0  0  0  0  0  0
    1.2348  -10.1801    4.5523 C   0  0  1  0  0  0  0  0  0  0  0  0
    0.6101  -11.4484    4.4318 O   0  0  0  0  0  0  0  0  0  0  0  0
    2.7497  -10.3019    4.4894 C   0  0  1  0  0  0  0  0  0  0  0  0
    3.2049  -11.4428    5.1981 O   0  0  0  0  0  0  0  0  0  0  0  0
    8.1409   -6.1344    1.0866 H   0  0  0  0  0  0  0  0  0  0  0  0
    8.4388   -7.8463    1.3731 H   0  0  0  0  0  0  0  0  0  0  0  0
    3.8045   -5.3913    1.8493 H   0  0  0  0  0  0  0  0  0  0  0  0
    5.5379  -11.5490    2.6334 H   0  0  0  0  0  0  0  0  0  0  0  0
    2.9496  -11.3916    2.5566 H   0  0  0  0  0  0  0  0  0  0  0  0
    1.1382   -8.2552    3.6001 H   0  0  0  0  0  0  0  0  0  0  0  0
   -0.5385   -8.7766    1.8316 H   0  0  0  0  0  0  0  0  0  0  0  0
   -0.6320  -10.4289    2.3477 H   0  0  0  0  0  0  0  0  0  0  0  0
   -1.6385   -9.7480    4.2496 H   0  0  0  0  0  0  0  0  0  0  0  0
    0.9015   -9.7196    5.4847 H   0  0  0  0  0  0  0  0  0  0  0  0
   -0.3297  -11.3555    4.5805 H   0  0  0  0  0  0  0  0  0  0  0  0
    3.2151   -9.3934    4.8756 H   0  0  0  0  0  0  0  0  0  0  0  0
    2.6025  -11.6367    5.9084 H   0  0  0  0  0  0  0  0  0  0  0  0
  1  2  1  0
  1 21  1  0
  1 20  1  0
  2  3  2  0
  2  7  1  0
  3  4  1  0
  4 22  1  0
  4  5  2  0
  5  6  1  0
  6 10  1  0
  6  7  2  0
  7  8  1  0
  8  9  2  0
  9 23  1  0
  9 10  1  0
 10 11  1  0
 11 18  1  0
 11 12  1  0
 11 24  1  6
 12 13  1  0
 13 14  1  0
 13 16  1  0
 13 25  1  1
 14 15  1  0
 14 26  1  0
 14 27  1  0
 15 28  1  0
 16 17  1  0
 16 18  1  0
 16 29  1  1
 17 30  1  0
 18 19  1  0
 18 31  1  1
 19 32  1  0
M  END
>  <i_m_ct_stereo_status>  (37) 
1

>  <s_m_source_file>  (37) 
/var/tmp/pbs.5076255.sched01/tmp3z6s85wa/08w76y650.sdf

>  <i_m_source_file_index>  (37) 
18

>  <i_lp_mmshare_version>  (37) 
48012

>  <i_f3d_flags>  (37) 
0

>  <s_epik_input>  (37) 
bjFbY0hdW25IXVxjKD1OXFtIXSljKGMxMiluW2NIXW4yW0NAQEhdM09bQ0BASF0oW0NIMl1bT0hdKVtDQEBIXShbT0hdKVtDQEhdM1tPSF0=

>  <s_epik_cmdline>  (37) 
J2VwaWtfcHl0aG9uJywgJy1waHQnLCAnMi4wJywgJy1waCcsICc3LjAnLCAnLXRuJywgJzgnLCAnLW1hJywgJzIwMCcsICctaW1hZScsICc8aW5maWxlLm1hZT4nLCAnLW9tYWUnLCAnPG91dGZpbGUubWFlPic=

>  <r_lp_tautomer_probability>  (37) 
1

>  <r_epik_Ionization_Penalty>  (37) 
0.000428445

>  <r_epik_Ionization_Penalty_Charging>  (37) 
0

>  <r_epik_Ionization_Penalty_Neutral>  (37) 
0.000428445

>  <r_epik_State_Penalty>  (37) 
-0

>  <r_epik_Charging_Adjusted_Penalty>  (37) 
0

>  <i_epik_Tot_Q>  (37) 
0

>  <i_epik_Tot_abs_Q>  (37) 
0

>  <s_epik_Chemistry_Notes>  (37) 
This compound contains an acetal/aminal-like group ( X-CH(R)-Y where X, Y are N, S, or O) that may be acid/base labile, releasing an aldehyde.

>  <s_lp_Force_Field>  (37) 
OPLS3e

>  <r_lp_Energy>  (37) 
18.2998

>  <b_lp_Chiralities_Consistent>  (37) 
1

>  <s_lp_Variant>  (37) 
11:0-1

>  <s_i_glide_gridfile>  (37) 
pfpi4k_grid

>  <i_i_glide_lignum>  (37) 
18

>  <i_i_glide_rotatable_bonds>  (37) 
5

>  <r_i_docking_score>  (37) 
-3.84522

>  <r_i_glide_ligand_efficiency>  (37) 
-0.20238

>  <r_i_glide_ligand_efficiency_sa>  (37) 
-0.540032

>  <r_i_glide_ligand_efficiency_ln>  (37) 
-0.974847

>  <r_i_glide_gscore>  (37) 
-3.84522

>  <r_i_glide_lipo>  (37) 
-0.140289

>  <r_i_glide_hbond>  (37) 
-0.010129

>  <r_i_glide_metal>  (37) 
-0

>  <r_i_glide_rewards>  (37) 
-1.62957

>  <r_i_glide_evdw>  (37) 
-19.7499

>  <r_i_glide_ecoul>  (37) 
-9.29844

>  <r_i_glide_erotb>  (37) 
0.499276

>  <r_i_glide_esite>  (37) 
-0.182252

>  <r_i_glide_emodel>  (37) 
-36.7757

>  <r_i_glide_energy>  (37) 
-29.0483

>  <r_i_glide_einternal>  (37) 
2.51135

>  <r_i_glide_intrahb_reward>  (37) 
-0

>  <i_i_glide_confnum>  (37) 
6

>  <i_i_glide_posenum>  (37) 
18

>  <r_i_glide_eff_state_penalty>  (37) 
0

>  <ligand_id>  (37) 
11

>  <original_smiles>  (37) 
N=c1[nH]cnc2c1ncn2C1OC(CO)C(O)C1O

>  <smiles>  (37) 
[H]OC([H])([H])C1([H])OC([H])(n2c([H])nc3c(N([H])[H])nc([H])nc32)C([H])(O[H])C1([H])O[H]

$$$$
12:0:0
     RDKit          3D

 48 53  0  0  1  0  0  0  0  0999 V2000
    5.1769    0.4006    4.0070 C   0  0  0  0  0  0  0  0  0  0  0  0
    5.2528   -0.2657    2.7526 O   0  0  0  0  0  0  0  0  0  0  0  0
    4.1817   -1.1661    2.4746 C   0  0  2  0  0  0  0  0  0  0  0  0
    4.3548   -2.5915    3.3789 C   0  0  1  0  0  0  0  0  0  0  0  0
    3.4429   -3.7954    3.5944 C   0  0  1  0  0  0  0  0  0  0  0  0
    2.1593   -4.0101    3.0288 O   0  0  0  0  0  0  0  0  0  0  0  0
    1.8390   -5.3870    2.9624 C   0  0  0  0  0  0  0  0  0  0  0  0
    4.7149   -4.1122    2.8054 C   0  0  1  0  0  0  0  0  0  0  0  0
    5.3714   -4.2547    1.3257 C   0  0  2  0  0  0  0  0  0  0  0  0
    5.3383   -2.8864    1.0657 C   0  0  1  0  0  0  0  0  0  0  0  0
    6.1495   -2.4069   -0.0724 C   0  0  1  0  0  0  0  0  0  0  0  0
    6.3449   -3.7709   -0.7919 C   0  0  0  0  0  0  0  0  0  0  0  0
    5.0572   -4.4458   -0.2770 C   0  0  1  0  0  0  0  0  0  0  0  0
    5.0089   -5.8102   -0.5865 O   0  0  0  0  0  0  0  0  0  0  0  0
    3.9786   -3.5833   -1.1530 C   0  0  1  0  0  0  0  0  0  0  0  0
    2.8935   -3.3188   -0.2237 C   0  0  1  0  0  0  0  0  0  0  0  0
    2.2793   -4.5506    0.1213 O   0  0  0  0  0  0  0  0  0  0  0  0
    3.6994   -2.6017    0.8733 C   0  0  2  0  0  0  0  0  0  0  0  0
    3.9771   -1.2218    0.8104 C   0  0  2  0  0  0  0  0  0  0  0  0
    5.0287   -1.4308   -0.4501 C   0  0  2  0  0  0  0  0  0  0  0  0
    4.4204   -2.1950   -1.6012 N   0  0  2  0  0  0  0  0  0  0  0  0
    3.4751   -1.4289   -2.4482 C   0  0  0  0  0  0  0  0  0  0  0  0
    6.1147    0.9331    4.1655 H   0  0  0  0  0  0  0  0  0  0  0  0
    5.0685   -0.2643    4.8616 H   0  0  0  0  0  0  0  0  0  0  0  0
    4.3534    1.1174    4.0237 H   0  0  0  0  0  0  0  0  0  0  0  0
    3.2719   -0.6923    2.8426 H   0  0  0  0  0  0  0  0  0  0  0  0
    4.8426   -2.3655    4.3191 H   0  0  0  0  0  0  0  0  0  0  0  0
    3.4353   -4.1578    4.6169 H   0  0  0  0  0  0  0  0  0  0  0  0
    0.8632   -5.4835    2.4861 H   0  0  0  0  0  0  0  0  0  0  0  0
    1.7974   -5.8554    3.9454 H   0  0  0  0  0  0  0  0  0  0  0  0
    2.5669   -5.9275    2.3563 H   0  0  0  0  0  0  0  0  0  0  0  0
    5.4082   -4.6269    3.4662 H   0  0  0  0  0  0  0  0  0  0  0  0
    6.3819   -4.6339    1.5120 H   0  0  0  0  0  0  0  0  0  0  0  0
    6.0022   -2.4318    1.8175 H   0  0  0  0  0  0  0  0  0  0  0  0
    7.0950   -1.9222    0.2086 H   0  0  0  0  0  0  0  0  0  0  0  0
    6.4391   -3.7059   -1.8884 H   0  0  0  0  0  0  0  0  0  0  0  0
    7.2462   -4.2598   -0.4219 H   0  0  0  0  0  0  0  0  0  0  0  0
    4.5576   -5.9089   -1.4170 H   0  0  0  0  0  0  0  0  0  0  0  0
    3.6616   -4.1318   -2.0312 H   0  0  0  0  0  0  0  0  0  0  0  0
    2.1238   -2.6842   -0.6352 H   0  0  0  0  0  0  0  0  0  0  0  0
    2.3947   -5.1666   -0.5870 H   0  0  0  0  0  0  0  0  0  0  0  0
    2.8809   -2.6394    1.5686 H   0  0  0  0  0  0  0  0  0  0  0  0
    3.1185   -0.6332    0.5043 H   0  0  0  0  0  0  0  0  0  0  0  0
    5.4446   -0.4870   -0.7834 H   0  0  0  0  0  0  0  0  0  0  0  0
    2.6451   -1.0059   -1.8894 H   0  0  0  0  0  0  0  0  0  0  0  0
    3.0565   -2.0652   -3.2251 H   0  0  0  0  0  0  0  0  0  0  0  0
    3.9872   -0.6020   -2.9328 H   0  0  0  0  0  0  0  0  0  0  0  0
    5.1997   -2.3977   -2.2109 H   0  0  0  0  0  0  0  0  0  0  0  0
  1  2  1  0
  1 23  1  0
  1 24  1  0
  1 25  1  0
  2  3  1  0
  3 19  1  0
  3  4  1  0
  3 26  1  1
  4  8  1  0
  4  5  1  0
  4 27  1  1
  5  6  1  0
  5  8  1  0
  5 28  1  1
  6  7  1  0
  7 29  1  0
  7 30  1  0
  7 31  1  0
  8  9  1  0
  8 32  1  1
  9 13  1  0
  9 10  1  0
  9 33  1  1
 10 18  1  0
 10 11  1  0
 10 34  1  1
 11 20  1  0
 11 12  1  0
 11 35  1  1
 12 13  1  0
 12 36  1  0
 12 37  1  0
 13 14  1  1
 13 15  1  0
 14 38  1  0
 15 21  1  0
 15 16  1  0
 15 39  1  6
 16 17  1  0
 16 18  1  0
 16 40  1  6
 17 41  1  0
 18 19  1  0
 18 42  1  1
 19 20  1  0
 19 43  1  6
 20 21  1  0
 20 44  1  6
 21 22  1  0
 21 48  1  6
 22 45  1  0
 22 46  1  0
 22 47  1  0
M  CHG  1  21   1
M  END
>  <i_m_ct_stereo_status>  (38) 
1

>  <s_m_source_file>  (38) 
/var/tmp/pbs.5076255.sched01/tmp3z6s85wa/08w76y650.sdf

>  <i_m_source_file_index>  (38) 
19

>  <i_lp_mmshare_version>  (38) 
48012

>  <i_f3d_flags>  (38) 
0

>  <s_epik_input>  (38) 
W09IXVtDQEBdMTJbQ0hdM1tDQEhdNFtDQEhdKFtDQEhdNE9bQ0gzXSlbQ0BASF0oT1tDSDNdKVtDQEBIXTVbQ0BASF02W0NAQEhdM1tDQEBIXShbQ0gyXTEpW0NASF01TihbQ0gzXSlbQ0BASF0yW0NASF02W09IXQ==

>  <s_epik_cmdline>  (38) 
J2VwaWtfcHl0aG9uJywgJy1waHQnLCAnMi4wJywgJy1waCcsICc3LjAnLCAnLXRuJywgJzgnLCAnLW1hJywgJzIwMCcsICctaW1hZScsICc8aW5maWxlLm1hZT4nLCAnLW9tYWUnLCAnPG91dGZpbGUubWFlPic=

>  <r_epik_Ionization_Penalty>  (38) 
0.0117155

>  <r_epik_Ionization_Penalty_Charging>  (38) 
0.0117155

>  <r_epik_Ionization_Penalty_Neutral>  (38) 
1.76476e-08

>  <r_epik_State_Penalty>  (38) 
0.00903102

>  <r_epik_Charging_Adjusted_Penalty>  (38) 
0.0207465

>  <i_epik_Tot_Q>  (38) 
1

>  <i_epik_Tot_abs_Q>  (38) 
1

>  <s_lp_Force_Field>  (38) 
OPLS3e

>  <r_lp_Energy>  (38) 
302.654

>  <b_lp_Chiralities_Consistent>  (38) 
1

>  <s_lp_Variant>  (38) 
12:0-1

>  <s_i_glide_gridfile>  (38) 
pfpi4k_grid

>  <i_i_glide_lignum>  (38) 
19

>  <i_i_glide_rotatable_bonds>  (38) 
4

>  <r_i_docking_score>  (38) 
-3.51583

>  <r_i_glide_ligand_efficiency>  (38) 
-0.15981

>  <r_i_glide_ligand_efficiency_sa>  (38) 
-0.447795

>  <r_i_glide_ligand_efficiency_ln>  (38) 
-0.859397

>  <r_i_glide_gscore>  (38) 
-3.51583

>  <r_i_glide_lipo>  (38) 
-0.347523

>  <r_i_glide_hbond>  (38) 
-0.0558571

>  <r_i_glide_metal>  (38) 
-0

>  <r_i_glide_rewards>  (38) 
-1.30641

>  <r_i_glide_evdw>  (38) 
-13.453

>  <r_i_glide_ecoul>  (38) 
-7.37254

>  <r_i_glide_erotb>  (38) 
0

>  <r_i_glide_esite>  (38) 
-0.0275071

>  <r_i_glide_emodel>  (38) 
-23.7681

>  <r_i_glide_energy>  (38) 
-20.8255

>  <r_i_glide_einternal>  (38) 
3.27471

>  <r_i_glide_intrahb_reward>  (38) 
-0

>  <i_i_glide_confnum>  (38) 
2

>  <i_i_glide_posenum>  (38) 
16

>  <r_i_glide_eff_state_penalty>  (38) 
0

>  <ligand_id>  (38) 
12

>  <original_smiles>  (38) 
COC1C2C(OC)C2C2C3C4CC2(O)C2C(O)C3C1C4N2C

>  <smiles>  (38) 
[H]OC1([H])C2([H])C3([H])C4([H])C5([H])C([H])(OC([H])([H])[H])C5([H])C([H])(OC([H])([H])[H])C2([H])C2([H])C3([H])C([H])([H])C4(O[H])C1([H])[N+]2([H])C([H])([H])[H]

$$$$
12:1:0
     RDKit          3D

 47 52  0  0  1  0  0  0  0  0999 V2000
    5.3561   -0.3075    2.5837 C   0  0  0  0  0  0  0  0  0  0  0  0
    5.2170   -0.5429    1.2028 O   0  0  0  0  0  0  0  0  0  0  0  0
    4.2098   -1.4982    0.8711 C   0  0  2  0  0  0  0  0  0  0  0  0
    4.7697   -3.0903    1.1177 C   0  0  1  0  0  0  0  0  0  0  0  0
    4.0500   -4.4676    1.0685 C   0  0  1  0  0  0  0  0  0  0  0  0
    2.6488   -4.7204    0.8573 O   0  0  0  0  0  0  0  0  0  0  0  0
    2.4701   -6.0248    0.3360 C   0  0  0  0  0  0  0  0  0  0  0  0
    5.0159   -4.2125   -0.0945 C   0  0  1  0  0  0  0  0  0  0  0  0
    5.0979   -3.7747   -1.6724 C   0  0  2  0  0  0  0  0  0  0  0  0
    4.8684   -2.4194   -1.3378 C   0  0  1  0  0  0  0  0  0  0  0  0
    5.2540   -1.4190   -2.3583 C   0  0  1  0  0  0  0  0  0  0  0  0
    5.3543   -2.3779   -3.5443 C   0  0  0  0  0  0  0  0  0  0  0  0
    4.2962   -3.4181   -3.1127 C   0  0  1  0  0  0  0  0  0  0  0  0
    4.3371   -4.4678   -4.0398 O   0  0  0  0  0  0  0  0  0  0  0  0
    2.9344   -2.5621   -3.2162 C   0  0  1  0  0  0  0  0  0  0  0  0
    2.1596   -2.8138   -1.9861 C   0  0  1  0  0  0  0  0  0  0  0  0
    1.6260   -4.1107   -1.8131 O   0  0  0  0  0  0  0  0  0  0  0  0
    3.2439   -2.3759   -0.9239 C   0  0  2  0  0  0  0  0  0  0  0  0
    3.4889   -1.0106   -0.5801 C   0  0  2  0  0  0  0  0  0  0  0  0
    4.0298   -0.5859   -2.0653 C   0  0  2  0  0  0  0  0  0  0  0  0
    3.0411   -1.0206   -3.1737 N   0  0  0  0  0  0  0  0  0  0  0  0
    3.0648   -0.2532   -4.4043 C   0  0  0  0  0  0  0  0  0  0  0  0
    6.2025    0.3690    2.6986 H   0  0  0  0  0  0  0  0  0  0  0  0
    5.5766   -1.2508    3.0817 H   0  0  0  0  0  0  0  0  0  0  0  0
    4.4675    0.1669    3.0169 H   0  0  0  0  0  0  0  0  0  0  0  0
    3.3868   -1.4285    1.5770 H   0  0  0  0  0  0  0  0  0  0  0  0
    5.5239   -3.0861    1.9196 H   0  0  0  0  0  0  0  0  0  0  0  0
    4.3991   -5.1690    1.8060 H   0  0  0  0  0  0  0  0  0  0  0  0
    1.4190   -6.2001    0.1070 H   0  0  0  0  0  0  0  0  0  0  0  0
    2.8189   -6.7988    1.0180 H   0  0  0  0  0  0  0  0  0  0  0  0
    3.0554   -6.1036   -0.5769 H   0  0  0  0  0  0  0  0  0  0  0  0
    5.9466   -4.7943    0.0411 H   0  0  0  0  0  0  0  0  0  0  0  0
    6.1449   -3.9242   -1.8847 H   0  0  0  0  0  0  0  0  0  0  0  0
    5.7462   -2.1130   -0.7092 H   0  0  0  0  0  0  0  0  0  0  0  0
    6.1546   -0.8220   -2.2040 H   0  0  0  0  0  0  0  0  0  0  0  0
    4.9757   -1.8962   -4.5041 H   0  0  0  0  0  0  0  0  0  0  0  0
    6.3497   -2.8339   -3.5932 H   0  0  0  0  0  0  0  0  0  0  0  0
    3.8068   -5.1610   -3.6391 H   0  0  0  0  0  0  0  0  0  0  0  0
    2.3478   -2.8700   -4.1229 H   0  0  0  0  0  0  0  0  0  0  0  0
    1.2777   -2.2587   -2.1712 H   0  0  0  0  0  0  0  0  0  0  0  0
    1.2157   -4.3355   -2.6464 H   0  0  0  0  0  0  0  0  0  0  0  0
    2.6901   -2.7788   -0.0905 H   0  0  0  0  0  0  0  0  0  0  0  0
    2.6108   -0.4508   -0.4024 H   0  0  0  0  0  0  0  0  0  0  0  0
    4.2638    0.4937   -2.1346 H   0  0  0  0  0  0  0  0  0  0  0  0
    2.6764    0.7569   -4.2358 H   0  0  0  0  0  0  0  0  0  0  0  0
    2.4042   -0.7140   -5.1479 H   0  0  0  0  0  0  0  0  0  0  0  0
    4.0708   -0.1289   -4.8132 H   0  0  0  0  0  0  0  0  0  0  0  0
  1  2  1  0
  1 23  1  0
  1 24  1  0
  1 25  1  0
  2  3  1  0
  3 19  1  0
  3  4  1  0
  3 26  1  1
  4  8  1  0
  4  5  1  0
  4 27  1  1
  5  6  1  0
  5  8  1  0
  5 28  1  1
  6  7  1  0
  7 29  1  0
  7 30  1  0
  7 31  1  0
  8  9  1  0
  8 32  1  1
  9 13  1  0
  9 10  1  0
  9 33  1  6
 10 18  1  0
 10 11  1  0
 10 34  1  1
 11 20  1  0
 11 12  1  0
 11 35  1  1
 12 13  1  0
 12 36  1  0
 12 37  1  0
 13 14  1  6
 13 15  1  0
 14 38  1  0
 15 21  1  0
 15 16  1  0
 15 39  1  6
 16 17  1  0
 16 18  1  0
 16 40  1  6
 17 41  1  0
 18 19  1  0
 18 42  1  1
 19 20  1  0
 19 43  1  1
 20 21  1  0
 20 44  1  1
 21 22  1  0
 22 45  1  0
 22 46  1  0
 22 47  1  0
M  END
>  <i_m_ct_stereo_status>  (39) 
1

>  <s_m_source_file>  (39) 
/var/tmp/pbs.5076255.sched01/tmp3z6s85wa/08w76y650.sdf

>  <i_m_source_file_index>  (39) 
20

>  <i_lp_mmshare_version>  (39) 
48012

>  <i_f3d_flags>  (39) 
0

>  <s_epik_input>  (39) 
W09IXVtDQEBdMTJbQ0hdM1tDQEhdNFtDQEhdKFtDQEhdNE9bQ0gzXSlbQ0BASF0oT1tDSDNdKVtDQEBIXTVbQ0BASF02W0NAQEhdM1tDQEBIXShbQ0gyXTEpW0NASF01TihbQ0gzXSlbQ0BASF0yW0NASF02W09IXQ==

>  <s_epik_cmdline>  (39) 
J2VwaWtfcHl0aG9uJywgJy1waHQnLCAnMi4wJywgJy1waCcsICc3LjAnLCAnLXRuJywgJzgnLCAnLW1hJywgJzIwMCcsICctaW1hZScsICc8aW5maWxlLm1hZT4nLCAnLW9tYWUnLCAnPG91dGZpbGUubWFlPic=

>  <r_epik_Ionization_Penalty>  (39) 
2.33042

>  <r_epik_Ionization_Penalty_Charging>  (39) 
0

>  <r_epik_Ionization_Penalty_Neutral>  (39) 
2.33042

>  <r_epik_State_Penalty>  (39) 
2.48327

>  <r_epik_Charging_Adjusted_Penalty>  (39) 
2.48327

>  <i_epik_Tot_Q>  (39) 
0

>  <i_epik_Tot_abs_Q>  (39) 
0

>  <s_lp_Force_Field>  (39) 
OPLS3e

>  <r_lp_Energy>  (39) 
297.697

>  <b_lp_Chiralities_Consistent>  (39) 
1

>  <s_lp_Variant>  (39) 
12:0-2

>  <s_i_glide_gridfile>  (39) 
pfpi4k_grid

>  <i_i_glide_lignum>  (39) 
20

>  <i_i_glide_rotatable_bonds>  (39) 
4

>  <r_i_docking_score>  (39) 
-3.3567

>  <r_i_glide_ligand_efficiency>  (39) 
-0.152577

>  <r_i_glide_ligand_efficiency_sa>  (39) 
-0.427528

>  <r_i_glide_ligand_efficiency_ln>  (39) 
-0.820501

>  <r_i_glide_gscore>  (39) 
-3.3567

>  <r_i_glide_lipo>  (39) 
-0.647286

>  <r_i_glide_hbond>  (39) 
-0.304

>  <r_i_glide_metal>  (39) 
-0

>  <r_i_glide_rewards>  (39) 
-1.31329

>  <r_i_glide_evdw>  (39) 
4.94741

>  <r_i_glide_ecoul>  (39) 
-8.93001

>  <r_i_glide_erotb>  (39) 
0

>  <r_i_glide_esite>  (39) 
0

>  <r_i_glide_emodel>  (39) 
-4.9879

>  <r_i_glide_energy>  (39) 
-3.9826

>  <r_i_glide_einternal>  (39) 
1.75959

>  <r_i_glide_intrahb_reward>  (39) 
-0

>  <i_i_glide_confnum>  (39) 
2

>  <i_i_glide_posenum>  (39) 
16

>  <r_i_glide_eff_state_penalty>  (39) 
0

>  <ligand_id>  (39) 
12

>  <original_smiles>  (39) 
COC1C2C(OC)C2C2C3C4CC2(O)C2C(O)C3C1C4N2C

>  <smiles>  (39) 
[H]OC1([H])C2([H])N(C([H])([H])[H])C3([H])C4([H])C([H])([H])C2(O[H])C2([H])C5([H])C([H])(OC([H])([H])[H])C5([H])C([H])(OC([H])([H])[H])C3([H])C1([H])C42[H]

$$$$
12:1:1
     RDKit          3D

 47 52  0  0  1  0  0  0  0  0999 V2000
    4.4989   -0.1426    3.1044 C   0  0  0  0  0  0  0  0  0  0  0  0
    4.6268   -0.4720    1.7331 O   0  0  0  0  0  0  0  0  0  0  0  0
    3.6737   -1.4122    1.2514 C   0  0  2  0  0  0  0  0  0  0  0  0
    4.0752   -2.9924    1.6332 C   0  0  1  0  0  0  0  0  0  0  0  0
    3.3525   -4.3479    1.5037 C   0  0  1  0  0  0  0  0  0  0  0  0
    2.0750   -4.5772    0.9513 O   0  0  0  0  0  0  0  0  0  0  0  0
    1.7514   -5.9431    0.7945 C   0  0  0  0  0  0  0  0  0  0  0  0
    4.5461   -4.1861    0.5744 C   0  0  1  0  0  0  0  0  0  0  0  0
    5.0042   -3.8226   -0.9504 C   0  0  2  0  0  0  0  0  0  0  0  0
    4.7663   -2.4398   -0.7447 C   0  0  1  0  0  0  0  0  0  0  0  0
    5.3971   -1.5215   -1.7230 C   0  0  1  0  0  0  0  0  0  0  0  0
    5.6903   -2.5658   -2.8255 C   0  0  0  0  0  0  0  0  0  0  0  0
    4.5321   -3.5088   -2.5261 C   0  0  1  0  0  0  0  0  0  0  0  0
    4.6302   -4.5492   -3.4713 O   0  0  0  0  0  0  0  0  0  0  0  0
    3.2844   -2.5923   -2.9847 C   0  0  1  0  0  0  0  0  0  0  0  0
    2.2634   -2.7341   -1.9485 C   0  0  1  0  0  0  0  0  0  0  0  0
    1.7645   -4.0311   -1.7527 O   0  0  0  0  0  0  0  0  0  0  0  0
    3.1023   -2.2997   -0.7003 C   0  0  2  0  0  0  0  0  0  0  0  0
    3.3412   -0.9517   -0.3178 C   0  0  2  0  0  0  0  0  0  0  0  0
    4.1657   -0.6626   -1.7226 C   0  0  2  0  0  0  0  0  0  0  0  0
    3.4393   -1.0858   -2.9700 N   0  0  0  0  0  0  0  0  0  0  0  0
    3.8310   -0.4137   -4.2084 C   0  0  0  0  0  0  0  0  0  0  0  0
    5.3436    0.4855    3.3829 H   0  0  0  0  0  0  0  0  0  0  0  0
    4.5131   -1.0262    3.7406 H   0  0  0  0  0  0  0  0  0  0  0  0
    3.5821    0.4161    3.2982 H   0  0  0  0  0  0  0  0  0  0  0  0
    2.7242   -1.2219    1.7769 H   0  0  0  0  0  0  0  0  0  0  0  0
    4.5963   -2.9856    2.5866 H   0  0  0  0  0  0  0  0  0  0  0  0
    3.5085   -4.9937    2.3621 H   0  0  0  0  0  0  0  0  0  0  0  0
    0.7532   -6.0142    0.3649 H   0  0  0  0  0  0  0  0  0  0  0  0
    1.7422   -6.4689    1.7508 H   0  0  0  0  0  0  0  0  0  0  0  0
    2.4518   -6.4194    0.1128 H   0  0  0  0  0  0  0  0  0  0  0  0
    5.3659   -4.7894    0.9748 H   0  0  0  0  0  0  0  0  0  0  0  0
    6.0649   -4.0686   -0.9460 H   0  0  0  0  0  0  0  0  0  0  0  0
    5.4733   -2.1348    0.0531 H   0  0  0  0  0  0  0  0  0  0  0  0
    6.2368   -0.9648   -1.3341 H   0  0  0  0  0  0  0  0  0  0  0  0
    5.5896   -2.2575   -3.8557 H   0  0  0  0  0  0  0  0  0  0  0  0
    6.6769   -3.0211   -2.6845 H   0  0  0  0  0  0  0  0  0  0  0  0
    4.0515   -5.2367   -3.1700 H   0  0  0  0  0  0  0  0  0  0  0  0
    2.9076   -2.9146   -3.9655 H   0  0  0  0  0  0  0  0  0  0  0  0
    1.4165   -2.1885   -2.3443 H   0  0  0  0  0  0  0  0  0  0  0  0
    2.4090   -4.6850   -2.0128 H   0  0  0  0  0  0  0  0  0  0  0  0
    2.3871   -2.6588    0.0180 H   0  0  0  0  0  0  0  0  0  0  0  0
    2.5369   -0.2944   -0.2089 H   0  0  0  0  0  0  0  0  0  0  0  0
    4.3845    0.3917   -1.8277 H   0  0  0  0  0  0  0  0  0  0  0  0
    3.5174    0.6318   -4.1971 H   0  0  0  0  0  0  0  0  0  0  0  0
    3.3717   -0.8810   -5.0798 H   0  0  0  0  0  0  0  0  0  0  0  0
    4.9016   -0.4343   -4.3619 H   0  0  0  0  0  0  0  0  0  0  0  0
  1  2  1  0
  1 23  1  0
  1 24  1  0
  1 25  1  0
  2  3  1  0
  3 19  1  0
  3  4  1  0
  3 26  1  1
  4  8  1  0
  4  5  1  0
  4 27  1  1
  5  6  1  0
  5  8  1  0
  5 28  1  1
  6  7  1  0
  7 29  1  0
  7 30  1  0
  7 31  1  0
  8  9  1  0
  8 32  1  1
  9 13  1  0
  9 10  1  0
  9 33  1  6
 10 18  1  0
 10 11  1  0
 10 34  1  1
 11 20  1  0
 11 12  1  0
 11 35  1  1
 12 13  1  0
 12 36  1  0
 12 37  1  0
 13 14  1  6
 13 15  1  0
 14 38  1  0
 15 21  1  0
 15 16  1  0
 15 39  1  6
 16 17  1  0
 16 18  1  0
 16 40  1  6
 17 41  1  0
 18 19  1  0
 18 42  1  1
 19 20  1  0
 19 43  1  1
 20 21  1  0
 20 44  1  6
 21 22  1  0
 22 45  1  0
 22 46  1  0
 22 47  1  0
M  END
>  <i_m_ct_stereo_status>  (40) 
1

>  <s_m_source_file>  (40) 
/var/tmp/pbs.5076255.sched01/tmp3z6s85wa/08w76y650.sdf

>  <i_m_source_file_index>  (40) 
20

>  <i_lp_mmshare_version>  (40) 
48012

>  <i_f3d_flags>  (40) 
0

>  <s_epik_input>  (40) 
W09IXVtDQEBdMTJbQ0hdM1tDQEhdNFtDQEhdKFtDQEhdNE9bQ0gzXSlbQ0BASF0oT1tDSDNdKVtDQEBIXTVbQ0BASF02W0NAQEhdM1tDQEBIXShbQ0gyXTEpW0NASF01TihbQ0gzXSlbQ0BASF0yW0NASF02W09IXQ==

>  <s_epik_cmdline>  (40) 
J2VwaWtfcHl0aG9uJywgJy1waHQnLCAnMi4wJywgJy1waCcsICc3LjAnLCAnLXRuJywgJzgnLCAnLW1hJywgJzIwMCcsICctaW1hZScsICc8aW5maWxlLm1hZT4nLCAnLW9tYWUnLCAnPG91dGZpbGUubWFlPic=

>  <r_epik_Ionization_Penalty>  (40) 
2.33042

>  <r_epik_Ionization_Penalty_Charging>  (40) 
0

>  <r_epik_Ionization_Penalty_Neutral>  (40) 
2.33042

>  <r_epik_State_Penalty>  (40) 
2.48327

>  <r_epik_Charging_Adjusted_Penalty>  (40) 
2.48327

>  <i_epik_Tot_Q>  (40) 
0

>  <i_epik_Tot_abs_Q>  (40) 
0

>  <s_lp_Force_Field>  (40) 
OPLS3e

>  <r_lp_Energy>  (40) 
297.697

>  <b_lp_Chiralities_Consistent>  (40) 
1

>  <s_lp_Variant>  (40) 
12:0-2

>  <s_i_glide_gridfile>  (40) 
pfpi4k_grid

>  <i_i_glide_lignum>  (40) 
20

>  <i_i_glide_rotatable_bonds>  (40) 
4

>  <r_i_docking_score>  (40) 
-3.07949

>  <r_i_glide_ligand_efficiency>  (40) 
-0.139977

>  <r_i_glide_ligand_efficiency_sa>  (40) 
-0.39222

>  <r_i_glide_ligand_efficiency_ln>  (40) 
-0.75274

>  <r_i_glide_gscore>  (40) 
-3.07949

>  <r_i_glide_lipo>  (40) 
-0.501036

>  <r_i_glide_hbond>  (40) 
-0.0197433

>  <r_i_glide_metal>  (40) 
-0

>  <r_i_glide_rewards>  (40) 
-1.31329

>  <r_i_glide_evdw>  (40) 
3.03172

>  <r_i_glide_ecoul>  (40) 
-10.031

>  <r_i_glide_erotb>  (40) 
0

>  <r_i_glide_esite>  (40) 
0

>  <r_i_glide_emodel>  (40) 
-5.04023

>  <r_i_glide_energy>  (40) 
-6.9993

>  <r_i_glide_einternal>  (40) 
2.0669

>  <r_i_glide_intrahb_reward>  (40) 
-0

>  <i_i_glide_confnum>  (40) 
2

>  <i_i_glide_posenum>  (40) 
35

>  <r_i_glide_eff_state_penalty>  (40) 
0

>  <ligand_id>  (40) 
12

>  <original_smiles>  (40) 
COC1C2C(OC)C2C2C3C4CC2(O)C2C(O)C3C1C4N2C

>  <smiles>  (40) 
[H]OC1([H])C2([H])N(C([H])([H])[H])C3([H])C4([H])C([H])([H])C2(O[H])C2([H])C5([H])C([H])(OC([H])([H])[H])C5([H])C([H])(OC([H])([H])[H])C3([H])C1([H])C42[H]

$$$$
12:1:2
     RDKit          3D

 47 52  0  0  1  0  0  0  0  0999 V2000
    0.8855   -1.6098    3.0795 C   0  0  0  0  0  0  0  0  0  0  0  0
    2.2031   -2.0904    3.2917 O   0  0  0  0  0  0  0  0  0  0  0  0
    2.5800   -3.1880    2.4625 C   0  0  2  0  0  0  0  0  0  0  0  0
    3.8791   -3.9516    3.2216 C   0  0  1  0  0  0  0  0  0  0  0  0
    4.6208   -5.2692    2.9471 C   0  0  1  0  0  0  0  0  0  0  0  0
    4.3982   -6.1860    1.8916 O   0  0  0  0  0  0  0  0  0  0  0  0
    5.5783   -6.8826    1.5203 C   0  0  0  0  0  0  0  0  0  0  0  0
    5.4518   -4.0144    2.6944 C   0  0  1  0  0  0  0  0  0  0  0  0
    5.9568   -2.9454    1.5688 C   0  0  2  0  0  0  0  0  0  0  0  0
    4.7107   -2.3345    1.4556 C   0  0  1  0  0  0  0  0  0  0  0  0
    4.6768   -1.0163    0.7874 C   0  0  1  0  0  0  0  0  0  0  0  0
    6.0691   -1.0922    0.1017 C   0  0  0  0  0  0  0  0  0  0  0  0
    6.1410   -2.6159   -0.0363 C   0  0  1  0  0  0  0  0  0  0  0  0
    7.4193   -2.9842   -0.4932 O   0  0  0  0  0  0  0  0  0  0  0  0
    4.9811   -2.8174   -1.1882 C   0  0  1  0  0  0  0  0  0  0  0  0
    4.2095   -3.9709   -0.7360 C   0  0  1  0  0  0  0  0  0  0  0  0
    5.0133   -5.1243   -0.7764 O   0  0  0  0  0  0  0  0  0  0  0  0
    3.8066   -3.4967    0.6662 C   0  0  2  0  0  0  0  0  0  0  0  0
    2.6627   -2.7029    0.8562 C   0  0  2  0  0  0  0  0  0  0  0  0
    3.3751   -1.4305    0.0759 C   0  0  2  0  0  0  0  0  0  0  0  0
    3.8616   -1.8018   -1.2980 N   0  0  0  0  0  0  0  0  0  0  0  0
    4.0167   -0.7219   -2.2644 C   0  0  0  0  0  0  0  0  0  0  0  0
    0.6792   -0.7821    3.7573 H   0  0  0  0  0  0  0  0  0  0  0  0
    0.1537   -2.3915    3.2789 H   0  0  0  0  0  0  0  0  0  0  0  0
    0.7434   -1.2470    2.0620 H   0  0  0  0  0  0  0  0  0  0  0  0
    1.7733   -3.9175    2.5225 H   0  0  0  0  0  0  0  0  0  0  0  0
    3.7726   -3.8125    4.2982 H   0  0  0  0  0  0  0  0  0  0  0  0
    4.9003   -5.8342    3.8320 H   0  0  0  0  0  0  0  0  0  0  0  0
    5.3400   -7.5514    0.6907 H   0  0  0  0  0  0  0  0  0  0  0  0
    5.9927   -7.4750    2.3352 H   0  0  0  0  0  0  0  0  0  0  0  0
    6.3466   -6.1864    1.1804 H   0  0  0  0  0  0  0  0  0  0  0  0
    6.1576   -3.9265    3.5096 H   0  0  0  0  0  0  0  0  0  0  0  0
    6.6727   -2.3260    2.1035 H   0  0  0  0  0  0  0  0  0  0  0  0
    4.5110   -1.9083    2.4487 H   0  0  0  0  0  0  0  0  0  0  0  0
    4.5631   -0.1539    1.4513 H   0  0  0  0  0  0  0  0  0  0  0  0
    6.1641   -0.5641   -0.8382 H   0  0  0  0  0  0  0  0  0  0  0  0
    6.8517   -0.6998    0.7543 H   0  0  0  0  0  0  0  0  0  0  0  0
    7.4328   -3.9319   -0.5449 H   0  0  0  0  0  0  0  0  0  0  0  0
    5.4130   -3.0126   -2.1756 H   0  0  0  0  0  0  0  0  0  0  0  0
    3.3201   -4.1674   -1.3439 H   0  0  0  0  0  0  0  0  0  0  0  0
    4.6266   -5.6975   -1.4228 H   0  0  0  0  0  0  0  0  0  0  0  0
    3.4995   -4.4728    0.9738 H   0  0  0  0  0  0  0  0  0  0  0  0
    1.8143   -3.0792    0.2848 H   0  0  0  0  0  0  0  0  0  0  0  0
    2.6772   -0.5917    0.0330 H   0  0  0  0  0  0  0  0  0  0  0  0
    3.0382   -0.3430   -2.5620 H   0  0  0  0  0  0  0  0  0  0  0  0
    4.5157   -1.0813   -3.1634 H   0  0  0  0  0  0  0  0  0  0  0  0
    4.5716    0.1244   -1.8659 H   0  0  0  0  0  0  0  0  0  0  0  0
  1  2  1  0
  1 23  1  0
  1 24  1  0
  1 25  1  0
  2  3  1  0
  3 19  1  0
  3  4  1  0
  3 26  1  6
  4  8  1  0
  4  5  1  0
  4 27  1  1
  5  6  1  0
  5  8  1  0
  5 28  1  1
  6  7  1  0
  7 29  1  0
  7 30  1  0
  7 31  1  0
  8  9  1  0
  8 32  1  1
  9 13  1  0
  9 10  1  0
  9 33  1  1
 10 18  1  0
 10 11  1  0
 10 34  1  1
 11 20  1  0
 11 12  1  0
 11 35  1  1
 12 13  1  0
 12 36  1  0
 12 37  1  0
 13 14  1  6
 13 15  1  0
 14 38  1  0
 15 21  1  0
 15 16  1  0
 15 39  1  6
 16 17  1  0
 16 18  1  0
 16 40  1  6
 17 41  1  0
 18 19  1  0
 18 42  1  1
 19 20  1  0
 19 43  1  6
 20 21  1  0
 20 44  1  6
 21 22  1  0
 22 45  1  0
 22 46  1  0
 22 47  1  0
M  END
>  <i_m_ct_stereo_status>  (41) 
1

>  <s_m_source_file>  (41) 
/var/tmp/pbs.5076255.sched01/tmp3z6s85wa/08w76y650.sdf

>  <i_m_source_file_index>  (41) 
20

>  <i_lp_mmshare_version>  (41) 
48012

>  <i_f3d_flags>  (41) 
0

>  <s_epik_input>  (41) 
W09IXVtDQEBdMTJbQ0hdM1tDQEhdNFtDQEhdKFtDQEhdNE9bQ0gzXSlbQ0BASF0oT1tDSDNdKVtDQEBIXTVbQ0BASF02W0NAQEhdM1tDQEBIXShbQ0gyXTEpW0NASF01TihbQ0gzXSlbQ0BASF0yW0NASF02W09IXQ==

>  <s_epik_cmdline>  (41) 
J2VwaWtfcHl0aG9uJywgJy1waHQnLCAnMi4wJywgJy1waCcsICc3LjAnLCAnLXRuJywgJzgnLCAnLW1hJywgJzIwMCcsICctaW1hZScsICc8aW5maWxlLm1hZT4nLCAnLW9tYWUnLCAnPG91dGZpbGUubWFlPic=

>  <r_epik_Ionization_Penalty>  (41) 
2.33042

>  <r_epik_Ionization_Penalty_Charging>  (41) 
0

>  <r_epik_Ionization_Penalty_Neutral>  (41) 
2.33042

>  <r_epik_State_Penalty>  (41) 
2.48327

>  <r_epik_Charging_Adjusted_Penalty>  (41) 
2.48327

>  <i_epik_Tot_Q>  (41) 
0

>  <i_epik_Tot_abs_Q>  (41) 
0

>  <s_lp_Force_Field>  (41) 
OPLS3e

>  <r_lp_Energy>  (41) 
297.697

>  <b_lp_Chiralities_Consistent>  (41) 
1

>  <s_lp_Variant>  (41) 
12:0-2

>  <s_i_glide_gridfile>  (41) 
pfpi4k_grid

>  <i_i_glide_lignum>  (41) 
20

>  <i_i_glide_rotatable_bonds>  (41) 
4

>  <r_i_docking_score>  (41) 
-3.01727

>  <r_i_glide_ligand_efficiency>  (41) 
-0.137149

>  <r_i_glide_ligand_efficiency_sa>  (41) 
-0.384296

>  <r_i_glide_ligand_efficiency_ln>  (41) 
-0.737531

>  <r_i_glide_gscore>  (41) 
-3.01727

>  <r_i_glide_lipo>  (41) 
-0.319582

>  <r_i_glide_hbond>  (41) 
0

>  <r_i_glide_metal>  (41) 
-0

>  <r_i_glide_rewards>  (41) 
-1.31329

>  <r_i_glide_evdw>  (41) 
-16.1046

>  <r_i_glide_ecoul>  (41) 
-3.86117

>  <r_i_glide_erotb>  (41) 
0

>  <r_i_glide_esite>  (41) 
0

>  <r_i_glide_emodel>  (41) 
-21.981

>  <r_i_glide_energy>  (41) 
-19.9657

>  <r_i_glide_einternal>  (41) 
1.70073

>  <r_i_glide_intrahb_reward>  (41) 
-0

>  <i_i_glide_confnum>  (41) 
2

>  <i_i_glide_posenum>  (41) 
14

>  <r_i_glide_eff_state_penalty>  (41) 
0

>  <ligand_id>  (41) 
12

>  <original_smiles>  (41) 
COC1C2C(OC)C2C2C3C4CC2(O)C2C(O)C3C1C4N2C

>  <smiles>  (41) 
[H]OC1([H])C2([H])N(C([H])([H])[H])C3([H])C4([H])C([H])([H])C2(O[H])C2([H])C5([H])C([H])(OC([H])([H])[H])C5([H])C([H])(OC([H])([H])[H])C3([H])C1([H])C42[H]

$$$$
13:0:0
     RDKit          3D

 44 48  0  0  1  0  0  0  0  0999 V2000
   -0.9458    1.2572    2.1089 N   0  0  0  0  0  0  0  0  0  0  0  0
    0.3408    1.2019    2.6598 C   0  0  0  0  0  0  0  0  0  0  0  0
    0.7106    1.9695    3.7864 C   0  0  0  0  0  0  0  0  0  0  0  0
    1.9167    1.8870    4.3955 N   0  0  0  0  0  0  0  0  0  0  0  0
    2.8410    1.0542    3.8872 C   0  0  0  0  0  0  0  0  0  0  0  0
    4.0339    0.9531    4.5027 N   0  0  0  0  0  0  0  0  0  0  0  0
    4.9758    0.1346    4.0211 C   0  0  0  0  0  0  0  0  0  0  0  0
    4.7928   -0.6136    2.9375 N   0  0  0  0  0  0  0  0  0  0  0  0
    3.6130   -0.5728    2.2925 C   0  0  0  0  0  0  0  0  0  0  0  0
    3.4203   -1.4277    1.1889 N   0  0  0  0  0  0  0  0  0  0  0  0
    4.5232   -2.0985    0.4922 C   0  0  2  0  0  0  0  0  0  0  0  0
    4.9818   -1.2935   -0.7555 C   0  0  1  0  0  0  0  0  0  0  0  0
    6.1606   -2.0249   -1.4117 C   0  0  0  0  0  0  0  0  0  0  0  0
    5.7245   -3.4158   -1.8729 C   0  0  2  0  0  0  0  0  0  0  0  0
    4.5671   -3.3071   -2.8862 C   0  0  0  0  0  0  0  0  0  0  0  0
    3.3778   -2.6024   -2.2076 C   0  0  2  0  0  0  0  0  0  0  0  0
    3.8303   -1.1895   -1.7840 C   0  0  0  0  0  0  0  0  0  0  0  0
    2.9224   -3.3981   -0.9606 C   0  0  0  0  0  0  0  0  0  0  0  0
    4.0939   -3.5156    0.0380 C   0  0  1  0  0  0  0  0  0  0  0  0
    5.2779   -4.2323   -0.6445 C   0  0  0  0  0  0  0  0  0  0  0  0
    2.5856    0.2761    2.7539 C   0  0  0  0  0  0  0  0  0  0  0  0
    1.3214    0.3457    2.1312 C   0  0  0  0  0  0  0  0  0  0  0  0
   -1.6069    1.9656    2.4164 H   0  0  0  0  0  0  0  0  0  0  0  0
   -1.1243    0.9122    1.1583 H   0  0  0  0  0  0  0  0  0  0  0  0
    0.0156    2.6498    4.2440 H   0  0  0  0  0  0  0  0  0  0  0  0
    5.9179    0.0990    4.5431 H   0  0  0  0  0  0  0  0  0  0  0  0
    5.3881   -2.2189    1.1570 H   0  0  0  0  0  0  0  0  0  0  0  0
    5.3011   -0.2920   -0.4581 H   0  0  0  0  0  0  0  0  0  0  0  0
    6.4843   -1.4760   -2.2865 H   0  0  0  0  0  0  0  0  0  0  0  0
    7.0120   -2.1006   -0.7374 H   0  0  0  0  0  0  0  0  0  0  0  0
    6.5802   -3.8499   -2.3775 H   0  0  0  0  0  0  0  0  0  0  0  0
    4.8871   -2.7441   -3.7650 H   0  0  0  0  0  0  0  0  0  0  0  0
    4.2723   -4.2902   -3.2445 H   0  0  0  0  0  0  0  0  0  0  0  0
    2.5473   -2.5286   -2.9083 H   0  0  0  0  0  0  0  0  0  0  0  0
    2.9979   -0.6644   -1.3478 H   0  0  0  0  0  0  0  0  0  0  0  0
    4.1405   -0.6100   -2.6534 H   0  0  0  0  0  0  0  0  0  0  0  0
    2.0712   -2.9022   -0.4993 H   0  0  0  0  0  0  0  0  0  0  0  0
    2.5590   -4.3844   -1.2240 H   0  0  0  0  0  0  0  0  0  0  0  0
    3.7793   -4.0892    0.9118 H   0  0  0  0  0  0  0  0  0  0  0  0
    4.9791   -5.2393   -0.9412 H   0  0  0  0  0  0  0  0  0  0  0  0
    6.1044   -4.3533    0.0561 H   0  0  0  0  0  0  0  0  0  0  0  0
    1.0714   -0.2734    1.2849 H   0  0  0  0  0  0  0  0  0  0  0  0
    2.5547   -1.3474    0.6663 H   0  0  0  0  0  0  0  0  0  0  0  0
    4.1854    1.5323    5.3283 H   0  0  0  0  0  0  0  0  0  0  0  0
  1  2  1  0
  1 23  1  0
  1 24  1  0
  2 22  2  0
  2  3  1  0
  3  4  2  0
  3 25  1  0
  4  5  1  0
  5 21  2  0
  5  6  1  0
  6  7  2  0
  6 44  1  0
  7  8  1  0
  7 26  1  0
  8  9  2  0
  9 10  1  0
  9 21  1  0
 10 11  1  0
 10 43  1  0
 11 19  1  0
 11 12  1  0
 11 27  1  1
 12 17  1  0
 12 13  1  0
 12 28  1  1
 13 14  1  0
 13 29  1  0
 13 30  1  0
 14 20  1  0
 14 15  1  0
 14 31  1  6
 15 16  1  0
 15 32  1  0
 15 33  1  0
 16 17  1  0
 16 18  1  0
 16 34  1  6
 17 35  1  0
 17 36  1  0
 18 19  1  0
 18 37  1  0
 18 38  1  0
 19 20  1  0
 19 39  1  1
 20 40  1  0
 20 41  1  0
 21 22  1  0
 22 42  1  0
M  CHG  1   6   1
M  END
>  <i_m_ct_stereo_status>  (42) 
1

>  <s_m_source_file>  (42) 
/var/tmp/pbs.5076255.sched01/tmp3z6s85wa/08w76y650.sdf

>  <i_m_source_file_index>  (42) 
21

>  <i_lp_mmshare_version>  (42) 
48012

>  <i_f3d_flags>  (42) 
0

>  <s_epik_input>  (42) 
bjFbY0hdYyhbTkgyXSlbY0hdYyhjMTIpYyhcbltjSF1bbkhdMik9TlxbQ0BIXShbQ0BASF0zNClbQ0BIXTVbQ0gyXVtDQEBIXShbQ0gyXTQpW0NIMl1bQ0BASF0oW0NIMl0zKVtDSDJdNQ==

>  <s_epik_cmdline>  (42) 
J2VwaWtfcHl0aG9uJywgJy1waHQnLCAnMi4wJywgJy1waCcsICc3LjAnLCAnLXRuJywgJzgnLCAnLW1hJywgJzIwMCcsICctaW1hZScsICc8aW5maWxlLm1hZT4nLCAnLW9tYWUnLCAnPG91dGZpbGUubWFlPic=

>  <r_epik_Ionization_Penalty>  (42) 
0.133776

>  <r_epik_Ionization_Penalty_Charging>  (42) 
0.133756

>  <r_epik_Ionization_Penalty_Neutral>  (42) 
1.96398e-05

>  <r_epik_State_Penalty>  (42) 
0.123124

>  <r_epik_Charging_Adjusted_Penalty>  (42) 
0.25688

>  <i_epik_Tot_Q>  (42) 
1

>  <i_epik_Tot_abs_Q>  (42) 
1

>  <s_lp_Force_Field>  (42) 
OPLS3e

>  <r_lp_Energy>  (42) 
35.4051

>  <b_lp_Chiralities_Consistent>  (42) 
1

>  <s_lp_Variant>  (42) 
13:0-1

>  <s_i_glide_gridfile>  (42) 
pfpi4k_grid

>  <i_i_glide_lignum>  (42) 
21

>  <i_i_glide_rotatable_bonds>  (42) 
2

>  <r_i_docking_score>  (42) 
-3.72357

>  <r_i_glide_ligand_efficiency>  (42) 
-0.169253

>  <r_i_glide_ligand_efficiency_sa>  (42) 
-0.474254

>  <r_i_glide_ligand_efficiency_ln>  (42) 
-0.910176

>  <r_i_glide_gscore>  (42) 
-3.72357

>  <r_i_glide_lipo>  (42) 
-0.399143

>  <r_i_glide_hbond>  (42) 
-0.183449

>  <r_i_glide_metal>  (42) 
-0

>  <r_i_glide_rewards>  (42) 
-1.49338

>  <r_i_glide_evdw>  (42) 
-26.1345

>  <r_i_glide_ecoul>  (42) 
-4.29663

>  <r_i_glide_erotb>  (42) 
0.417071

>  <r_i_glide_esite>  (42) 
-0.113448

>  <r_i_glide_emodel>  (42) 
-37.1128

>  <r_i_glide_energy>  (42) 
-30.4311

>  <r_i_glide_einternal>  (42) 
0.871996

>  <r_i_glide_intrahb_reward>  (42) 
-0

>  <i_i_glide_confnum>  (42) 
4

>  <i_i_glide_posenum>  (42) 
12

>  <r_i_glide_eff_state_penalty>  (42) 
0

>  <ligand_id>  (42) 
13

>  <original_smiles>  (42) 
Nc1cnc2[nH]cnc(=NC3C4CC5CC(C4)CC3C5)c2c1

>  <smiles>  (42) 
[H]c1nc2c(c(N([H])C3([H])C4([H])C([H])([H])C5([H])C([H])([H])C([H])(C4([H])[H])C([H])([H])C3([H])C5([H])[H])nc([H])[n+]2[H])c([H])c1N([H])[H]

$$$$
13:0:1
     RDKit          3D

 44 48  0  0  1  0  0  0  0  0999 V2000
   -0.9644    1.2915    1.6855 N   0  0  0  0  0  0  0  0  0  0  0  0
    0.0662    1.0119    2.5904 C   0  0  0  0  0  0  0  0  0  0  0  0
    0.1101    1.6185    3.8593 C   0  0  0  0  0  0  0  0  0  0  0  0
    1.0509    1.3473    4.7925 N   0  0  0  0  0  0  0  0  0  0  0  0
    2.0173    0.4646    4.4905 C   0  0  0  0  0  0  0  0  0  0  0  0
    2.9538    0.1867    5.4250 N   0  0  0  0  0  0  0  0  0  0  0  0
    3.9281   -0.6863    5.1620 C   0  0  0  0  0  0  0  0  0  0  0  0
    4.0269   -1.3287    3.9991 N   0  0  0  0  0  0  0  0  0  0  0  0
    3.1158   -1.0978    3.0353 C   0  0  0  0  0  0  0  0  0  0  0  0
    3.2101   -1.8244    1.8365 N   0  0  0  0  0  0  0  0  0  0  0  0
    4.3915   -2.6048    1.4682 C   0  0  2  0  0  0  0  0  0  0  0  0
    5.5431   -1.7119    0.9217 C   0  0  1  0  0  0  0  0  0  0  0  0
    6.7701   -2.5922    0.5938 C   0  0  0  0  0  0  0  0  0  0  0  0
    6.3896   -3.6279   -0.4812 C   0  0  2  0  0  0  0  0  0  0  0  0
    5.9312   -2.9038   -1.7657 C   0  0  0  0  0  0  0  0  0  0  0  0
    4.6971   -2.0348   -1.4409 C   0  0  2  0  0  0  0  0  0  0  0  0
    5.0784   -0.9935   -0.3669 C   0  0  0  0  0  0  0  0  0  0  0  0
    3.5509   -2.9201   -0.9050 C   0  0  0  0  0  0  0  0  0  0  0  0
    4.0221   -3.6460    0.3787 C   0  0  1  0  0  0  0  0  0  0  0  0
    5.2501   -4.5222    0.0476 C   0  0  0  0  0  0  0  0  0  0  0  0
    2.0699   -0.1783    3.2499 C   0  0  0  0  0  0  0  0  0  0  0  0
    1.0858    0.1037    2.2735 C   0  0  0  0  0  0  0  0  0  0  0  0
   -1.6468    2.0094    1.8915 H   0  0  0  0  0  0  0  0  0  0  0  0
   -0.9652    0.9556    0.7092 H   0  0  0  0  0  0  0  0  0  0  0  0
   -0.6372    2.3371    4.1587 H   0  0  0  0  0  0  0  0  0  0  0  0
    4.6489   -0.8725    5.9436 H   0  0  0  0  0  0  0  0  0  0  0  0
    4.7499   -3.1458    2.3497 H   0  0  0  0  0  0  0  0  0  0  0  0
    5.8353   -0.9733    1.6697 H   0  0  0  0  0  0  0  0  0  0  0  0
    7.5999   -1.9793    0.2459 H   0  0  0  0  0  0  0  0  0  0  0  0
    7.1222   -3.1033    1.4883 H   0  0  0  0  0  0  0  0  0  0  0  0
    7.2577   -4.2453   -0.7073 H   0  0  0  0  0  0  0  0  0  0  0  0
    6.7390   -2.2819   -2.1509 H   0  0  0  0  0  0  0  0  0  0  0  0
    5.6985   -3.6249   -2.5506 H   0  0  0  0  0  0  0  0  0  0  0  0
    4.3631   -1.5226   -2.3428 H   0  0  0  0  0  0  0  0  0  0  0  0
    4.2328   -0.3375   -0.1620 H   0  0  0  0  0  0  0  0  0  0  0  0
    5.8674   -0.3432   -0.7363 H   0  0  0  0  0  0  0  0  0  0  0  0
    2.6758   -2.3030   -0.7017 H   0  0  0  0  0  0  0  0  0  0  0  0
    3.2328   -3.6439   -1.6550 H   0  0  0  0  0  0  0  0  0  0  0  0
    3.2227   -4.2866    0.7531 H   0  0  0  0  0  0  0  0  0  0  0  0
    4.9833   -5.2721   -0.6960 H   0  0  0  0  0  0  0  0  0  0  0  0
    5.5780   -5.0704    0.9300 H   0  0  0  0  0  0  0  0  0  0  0  0
    1.0866   -0.3676    1.3013 H   0  0  0  0  0  0  0  0  0  0  0  0
    2.5931   -1.5712    1.0768 H   0  0  0  0  0  0  0  0  0  0  0  0
    2.8910    0.6672    6.3190 H   0  0  0  0  0  0  0  0  0  0  0  0
  1  2  1  0
  1 23  1  0
  1 24  1  0
  2 22  2  0
  2  3  1  0
  3  4  2  0
  3 25  1  0
  4  5  1  0
  5 21  2  0
  5  6  1  0
  6  7  2  0
  6 44  1  0
  7  8  1  0
  7 26  1  0
  8  9  2  0
  9 10  1  0
  9 21  1  0
 10 11  1  0
 10 43  1  0
 11 19  1  0
 11 12  1  0
 11 27  1  1
 12 17  1  0
 12 13  1  0
 12 28  1  1
 13 14  1  0
 13 29  1  0
 13 30  1  0
 14 20  1  0
 14 15  1  0
 14 31  1  6
 15 16  1  0
 15 32  1  0
 15 33  1  0
 16 17  1  0
 16 18  1  0
 16 34  1  6
 17 35  1  0
 17 36  1  0
 18 19  1  0
 18 37  1  0
 18 38  1  0
 19 20  1  0
 19 39  1  1
 20 40  1  0
 20 41  1  0
 21 22  1  0
 22 42  1  0
M  CHG  1   6   1
M  END
>  <i_m_ct_stereo_status>  (43) 
1

>  <s_m_source_file>  (43) 
/var/tmp/pbs.5076255.sched01/tmp3z6s85wa/08w76y650.sdf

>  <i_m_source_file_index>  (43) 
21

>  <i_lp_mmshare_version>  (43) 
48012

>  <i_f3d_flags>  (43) 
0

>  <s_epik_input>  (43) 
bjFbY0hdYyhbTkgyXSlbY0hdYyhjMTIpYyhcbltjSF1bbkhdMik9TlxbQ0BIXShbQ0BASF0zNClbQ0BIXTVbQ0gyXVtDQEBIXShbQ0gyXTQpW0NIMl1bQ0BASF0oW0NIMl0zKVtDSDJdNQ==

>  <s_epik_cmdline>  (43) 
J2VwaWtfcHl0aG9uJywgJy1waHQnLCAnMi4wJywgJy1waCcsICc3LjAnLCAnLXRuJywgJzgnLCAnLW1hJywgJzIwMCcsICctaW1hZScsICc8aW5maWxlLm1hZT4nLCAnLW9tYWUnLCAnPG91dGZpbGUubWFlPic=

>  <r_epik_Ionization_Penalty>  (43) 
0.133776

>  <r_epik_Ionization_Penalty_Charging>  (43) 
0.133756

>  <r_epik_Ionization_Penalty_Neutral>  (43) 
1.96398e-05

>  <r_epik_State_Penalty>  (43) 
0.123124

>  <r_epik_Charging_Adjusted_Penalty>  (43) 
0.25688

>  <i_epik_Tot_Q>  (43) 
1

>  <i_epik_Tot_abs_Q>  (43) 
1

>  <s_lp_Force_Field>  (43) 
OPLS3e

>  <r_lp_Energy>  (43) 
35.4051

>  <b_lp_Chiralities_Consistent>  (43) 
1

>  <s_lp_Variant>  (43) 
13:0-1

>  <s_i_glide_gridfile>  (43) 
pfpi4k_grid

>  <i_i_glide_lignum>  (43) 
21

>  <i_i_glide_rotatable_bonds>  (43) 
2

>  <r_i_docking_score>  (43) 
-3.64916

>  <r_i_glide_ligand_efficiency>  (43) 
-0.165871

>  <r_i_glide_ligand_efficiency_sa>  (43) 
-0.464777

>  <r_i_glide_ligand_efficiency_ln>  (43) 
-0.891987

>  <r_i_glide_gscore>  (43) 
-3.64916

>  <r_i_glide_lipo>  (43) 
-0.408975

>  <r_i_glide_hbond>  (43) 
-0.16

>  <r_i_glide_metal>  (43) 
-0

>  <r_i_glide_rewards>  (43) 
-1.38825

>  <r_i_glide_evdw>  (43) 
-20.9379

>  <r_i_glide_ecoul>  (43) 
-6.38644

>  <r_i_glide_erotb>  (43) 
0.417071

>  <r_i_glide_esite>  (43) 
-0.104141

>  <r_i_glide_emodel>  (43) 
-34.3826

>  <r_i_glide_energy>  (43) 
-27.3244

>  <r_i_glide_einternal>  (43) 
0.0850611

>  <r_i_glide_intrahb_reward>  (43) 
-0

>  <i_i_glide_confnum>  (43) 
1

>  <i_i_glide_posenum>  (43) 
11

>  <r_i_glide_eff_state_penalty>  (43) 
0

>  <ligand_id>  (43) 
13

>  <original_smiles>  (43) 
Nc1cnc2[nH]cnc(=NC3C4CC5CC(C4)CC3C5)c2c1

>  <smiles>  (43) 
[H]c1nc2c(c(N([H])C3([H])C4([H])C([H])([H])C5([H])C([H])([H])C([H])(C4([H])[H])C([H])([H])C3([H])C5([H])[H])nc([H])[n+]2[H])c([H])c1N([H])[H]

$$$$
13:0:2
     RDKit          3D

 44 48  0  0  1  0  0  0  0  0999 V2000
   -1.0139    1.2546    2.1214 N   0  0  0  0  0  0  0  0  0  0  0  0
    0.2362    1.3262    2.7519 C   0  0  0  0  0  0  0  0  0  0  0  0
    0.4855    2.2346    3.8034 C   0  0  0  0  0  0  0  0  0  0  0  0
    1.6378    2.2889    4.4994 N   0  0  0  0  0  0  0  0  0  0  0  0
    2.6271    1.4422    4.1622 C   0  0  0  0  0  0  0  0  0  0  0  0
    3.7695    1.4755    4.8796 N   0  0  0  0  0  0  0  0  0  0  0  0
    4.7704    0.6438    4.5825 C   0  0  0  0  0  0  0  0  0  0  0  0
    4.7017   -0.2495    3.5951 N   0  0  0  0  0  0  0  0  0  0  0  0
    3.5825   -0.3283    2.8511 C   0  0  0  0  0  0  0  0  0  0  0  0
    3.5118   -1.3039    1.8469 N   0  0  0  0  0  0  0  0  0  0  0  0
    4.6471   -2.1567    1.4743 C   0  0  2  0  0  0  0  0  0  0  0  0
    5.6869   -1.4096    0.5868 C   0  0  1  0  0  0  0  0  0  0  0  0
    6.8668   -2.3557    0.2825 C   0  0  0  0  0  0  0  0  0  0  0  0
    6.3492   -3.5862   -0.4801 C   0  0  2  0  0  0  0  0  0  0  0  0
    5.6923   -3.1532   -1.8078 C   0  0  0  0  0  0  0  0  0  0  0  0
    4.5026   -2.2227   -1.4980 C   0  0  2  0  0  0  0  0  0  0  0  0
    5.0226   -0.9838   -0.7439 C   0  0  0  0  0  0  0  0  0  0  0  0
    3.4682   -2.9632   -0.6249 C   0  0  0  0  0  0  0  0  0  0  0  0
    4.1393   -3.4004    0.7003 C   0  0  1  0  0  0  0  0  0  0  0  0
    5.3221   -4.3361    0.3865 C   0  0  0  0  0  0  0  0  0  0  0  0
    2.4959    0.5327    3.1178 C   0  0  0  0  0  0  0  0  0  0  0  0
    1.2860    0.4729    2.3798 C   0  0  0  0  0  0  0  0  0  0  0  0
   -1.7152    1.9701    2.2937 H   0  0  0  0  0  0  0  0  0  0  0  0
   -1.1204    0.7821    1.2205 H   0  0  0  0  0  0  0  0  0  0  0  0
   -0.2697    2.9297    4.1242 H   0  0  0  0  0  0  0  0  0  0  0  0
    5.6764    0.7220    5.1644 H   0  0  0  0  0  0  0  0  0  0  0  0
    5.1409   -2.4991    2.3914 H   0  0  0  0  0  0  0  0  0  0  0  0
    6.0732   -0.5286    1.1064 H   0  0  0  0  0  0  0  0  0  0  0  0
    7.6251   -1.8476   -0.3081 H   0  0  0  0  0  0  0  0  0  0  0  0
    7.3584   -2.6661    1.2030 H   0  0  0  0  0  0  0  0  0  0  0  0
    7.1901   -4.2386   -0.6995 H   0  0  0  0  0  0  0  0  0  0  0  0
    6.4207   -2.6384   -2.4369 H   0  0  0  0  0  0  0  0  0  0  0  0
    5.3559   -4.0256   -2.3710 H   0  0  0  0  0  0  0  0  0  0  0  0
    4.0274   -1.9096   -2.4270 H   0  0  0  0  0  0  0  0  0  0  0  0
    4.2098   -0.2832   -0.5585 H   0  0  0  0  0  0  0  0  0  0  0  0
    5.7386   -0.4494   -1.3626 H   0  0  0  0  0  0  0  0  0  0  0  0
    2.6119   -2.3129   -0.4387 H   0  0  0  0  0  0  0  0  0  0  0  0
    3.0730   -3.8297   -1.1527 H   0  0  0  0  0  0  0  0  0  0  0  0
    3.4189   -3.9350    1.3205 H   0  0  0  0  0  0  0  0  0  0  0  0
    4.9633   -5.2208   -0.1360 H   0  0  0  0  0  0  0  0  0  0  0  0
    5.7871   -4.6910    1.3048 H   0  0  0  0  0  0  0  0  0  0  0  0
    1.1417   -0.2297    1.5681 H   0  0  0  0  0  0  0  0  0  0  0  0
    2.7583   -1.2343    1.1709 H   0  0  0  0  0  0  0  0  0  0  0  0
    3.8297    2.1595    5.6328 H   0  0  0  0  0  0  0  0  0  0  0  0
  1  2  1  0
  1 23  1  0
  1 24  1  0
  2 22  2  0
  2  3  1  0
  3  4  2  0
  3 25  1  0
  4  5  1  0
  5 21  2  0
  5  6  1  0
  6  7  2  0
  6 44  1  0
  7  8  1  0
  7 26  1  0
  8  9  2  0
  9 10  1  0
  9 21  1  0
 10 11  1  0
 10 43  1  0
 11 19  1  0
 11 12  1  0
 11 27  1  1
 12 17  1  0
 12 13  1  0
 12 28  1  1
 13 14  1  0
 13 29  1  0
 13 30  1  0
 14 20  1  0
 14 15  1  0
 14 31  1  6
 15 16  1  0
 15 32  1  0
 15 33  1  0
 16 17  1  0
 16 18  1  0
 16 34  1  6
 17 35  1  0
 17 36  1  0
 18 19  1  0
 18 37  1  0
 18 38  1  0
 19 20  1  0
 19 39  1  1
 20 40  1  0
 20 41  1  0
 21 22  1  0
 22 42  1  0
M  CHG  1   6   1
M  END
>  <i_m_ct_stereo_status>  (44) 
1

>  <s_m_source_file>  (44) 
/var/tmp/pbs.5076255.sched01/tmp3z6s85wa/08w76y650.sdf

>  <i_m_source_file_index>  (44) 
21

>  <i_lp_mmshare_version>  (44) 
48012

>  <i_f3d_flags>  (44) 
0

>  <s_epik_input>  (44) 
bjFbY0hdYyhbTkgyXSlbY0hdYyhjMTIpYyhcbltjSF1bbkhdMik9TlxbQ0BIXShbQ0BASF0zNClbQ0BIXTVbQ0gyXVtDQEBIXShbQ0gyXTQpW0NIMl1bQ0BASF0oW0NIMl0zKVtDSDJdNQ==

>  <s_epik_cmdline>  (44) 
J2VwaWtfcHl0aG9uJywgJy1waHQnLCAnMi4wJywgJy1waCcsICc3LjAnLCAnLXRuJywgJzgnLCAnLW1hJywgJzIwMCcsICctaW1hZScsICc8aW5maWxlLm1hZT4nLCAnLW9tYWUnLCAnPG91dGZpbGUubWFlPic=

>  <r_epik_Ionization_Penalty>  (44) 
0.133776

>  <r_epik_Ionization_Penalty_Charging>  (44) 
0.133756

>  <r_epik_Ionization_Penalty_Neutral>  (44) 
1.96398e-05

>  <r_epik_State_Penalty>  (44) 
0.123124

>  <r_epik_Charging_Adjusted_Penalty>  (44) 
0.25688

>  <i_epik_Tot_Q>  (44) 
1

>  <i_epik_Tot_abs_Q>  (44) 
1

>  <s_lp_Force_Field>  (44) 
OPLS3e

>  <r_lp_Energy>  (44) 
35.4051

>  <b_lp_Chiralities_Consistent>  (44) 
1

>  <s_lp_Variant>  (44) 
13:0-1

>  <s_i_glide_gridfile>  (44) 
pfpi4k_grid

>  <i_i_glide_lignum>  (44) 
21

>  <i_i_glide_rotatable_bonds>  (44) 
2

>  <r_i_docking_score>  (44) 
-3.57511

>  <r_i_glide_ligand_efficiency>  (44) 
-0.162505

>  <r_i_glide_ligand_efficiency_sa>  (44) 
-0.455346

>  <r_i_glide_ligand_efficiency_ln>  (44) 
-0.873888

>  <r_i_glide_gscore>  (44) 
-3.57511

>  <r_i_glide_lipo>  (44) 
-0.510743

>  <r_i_glide_hbond>  (44) 
-0.147201

>  <r_i_glide_metal>  (44) 
-0

>  <r_i_glide_rewards>  (44) 
-1.4759

>  <r_i_glide_evdw>  (44) 
-25.3126

>  <r_i_glide_ecoul>  (44) 
-3.36513

>  <r_i_glide_erotb>  (44) 
0.417071

>  <r_i_glide_esite>  (44) 
-0.08794

>  <r_i_glide_emodel>  (44) 
-35.335

>  <r_i_glide_energy>  (44) 
-28.6778

>  <r_i_glide_einternal>  (44) 
0.120009

>  <r_i_glide_intrahb_reward>  (44) 
-0

>  <i_i_glide_confnum>  (44) 
5

>  <i_i_glide_posenum>  (44) 
7

>  <r_i_glide_eff_state_penalty>  (44) 
0

>  <ligand_id>  (44) 
13

>  <original_smiles>  (44) 
Nc1cnc2[nH]cnc(=NC3C4CC5CC(C4)CC3C5)c2c1

>  <smiles>  (44) 
[H]c1nc2c(c(N([H])C3([H])C4([H])C([H])([H])C5([H])C([H])([H])C([H])(C4([H])[H])C([H])([H])C3([H])C5([H])[H])nc([H])[n+]2[H])c([H])c1N([H])[H]

$$$$
13:1:0
     RDKit          3D

 43 47  0  0  1  0  0  0  0  0999 V2000
   -0.8483    2.5097    2.8833 N   0  0  0  0  0  0  0  0  0  0  0  0
   -0.6107    1.2412    3.4204 C   0  0  0  0  0  0  0  0  0  0  0  0
   -1.3793    0.7535    4.4942 C   0  0  0  0  0  0  0  0  0  0  0  0
   -1.1996   -0.4531    5.0660 N   0  0  0  0  0  0  0  0  0  0  0  0
   -0.2177   -1.2467    4.5941 C   0  0  0  0  0  0  0  0  0  0  0  0
   -0.0514   -2.4495    5.1673 N   0  0  0  0  0  0  0  0  0  0  0  0
    0.9241   -3.2166    4.6900 C   0  0  0  0  0  0  0  0  0  0  0  0
    1.7625   -2.9280    3.7027 N   0  0  0  0  0  0  0  0  0  0  0  0
    1.6119   -1.7350    3.1031 C   0  0  0  0  0  0  0  0  0  0  0  0
    2.4687   -1.4022    2.0438 N   0  0  0  0  0  0  0  0  0  0  0  0
    3.8207   -1.9457    1.9116 C   0  0  2  0  0  0  0  0  0  0  0  0
    4.6676   -1.0376    0.9787 C   0  0  1  0  0  0  0  0  0  0  0  0
    6.1235   -1.5443    0.9404 C   0  0  0  0  0  0  0  0  0  0  0  0
    6.1513   -2.9836    0.3824 C   0  0  2  0  0  0  0  0  0  0  0  0
    5.5633   -2.9995   -1.0464 C   0  0  0  0  0  0  0  0  0  0  0  0
    4.1037   -2.4993   -1.0035 C   0  0  2  0  0  0  0  0  0  0  0  0
    4.0848   -1.0567   -0.4552 C   0  0  0  0  0  0  0  0  0  0  0  0
    3.2547   -3.4062   -0.0861 C   0  0  0  0  0  0  0  0  0  0  0  0
    3.8518   -3.3929    1.3393 C   0  0  1  0  0  0  0  0  0  0  0  0
    5.3103   -3.8980    1.2958 C   0  0  0  0  0  0  0  0  0  0  0  0
    0.6043   -0.8442    3.5301 C   0  0  0  0  0  0  0  0  0  0  0  0
    0.4047    0.4136    2.9201 C   0  0  0  0  0  0  0  0  0  0  0  0
   -1.6107    3.0870    3.2082 H   0  0  0  0  0  0  0  0  0  0  0  0
   -0.3329    2.8872    2.0844 H   0  0  0  0  0  0  0  0  0  0  0  0
   -2.1681    1.3554    4.9131 H   0  0  0  0  0  0  0  0  0  0  0  0
    1.0451   -4.1841    5.1545 H   0  0  0  0  0  0  0  0  0  0  0  0
    4.2644   -1.9457    2.9112 H   0  0  0  0  0  0  0  0  0  0  0  0
    4.6568   -0.0157    1.3607 H   0  0  0  0  0  0  0  0  0  0  0  0
    6.7299   -0.8865    0.3219 H   0  0  0  0  0  0  0  0  0  0  0  0
    6.5645   -1.5129    1.9367 H   0  0  0  0  0  0  0  0  0  0  0  0
    7.1788   -3.3448    0.3529 H   0  0  0  0  0  0  0  0  0  0  0  0
    6.1549   -2.3605   -1.7029 H   0  0  0  0  0  0  0  0  0  0  0  0
    5.6067   -4.0042   -1.4675 H   0  0  0  0  0  0  0  0  0  0  0  0
    3.6783   -2.5111   -2.0076 H   0  0  0  0  0  0  0  0  0  0  0  0
    3.0653   -0.6743   -0.4636 H   0  0  0  0  0  0  0  0  0  0  0  0
    4.6553   -0.3950   -1.1036 H   0  0  0  0  0  0  0  0  0  0  0  0
    2.2253   -3.0470   -0.0659 H   0  0  0  0  0  0  0  0  0  0  0  0
    3.2147   -4.4240   -0.4753 H   0  0  0  0  0  0  0  0  0  0  0  0
    3.2866   -4.0789    1.9698 H   0  0  0  0  0  0  0  0  0  0  0  0
    5.3410   -4.9241    0.9318 H   0  0  0  0  0  0  0  0  0  0  0  0
    5.7352   -3.9177    2.2983 H   0  0  0  0  0  0  0  0  0  0  0  0
    1.0081    0.7446    2.0897 H   0  0  0  0  0  0  0  0  0  0  0  0
    2.2422   -0.5918    1.4795 H   0  0  0  0  0  0  0  0  0  0  0  0
  1  2  1  0
  1 23  1  0
  1 24  1  0
  2 22  2  0
  2  3  1  0
  3  4  2  0
  3 25  1  0
  4  5  1  0
  5 21  2  0
  5  6  1  0
  6  7  2  0
  7  8  1  0
  7 26  1  0
  8  9  2  0
  9 10  1  0
  9 21  1  0
 10 11  1  0
 10 43  1  0
 11 19  1  0
 11 12  1  0
 11 27  1  1
 12 17  1  0
 12 13  1  0
 12 28  1  1
 13 14  1  0
 13 29  1  0
 13 30  1  0
 14 20  1  0
 14 15  1  0
 14 31  1  6
 15 16  1  0
 15 32  1  0
 15 33  1  0
 16 17  1  0
 16 18  1  0
 16 34  1  6
 17 35  1  0
 17 36  1  0
 18 19  1  0
 18 37  1  0
 18 38  1  0
 19 20  1  0
 19 39  1  1
 20 40  1  0
 20 41  1  0
 21 22  1  0
 22 42  1  0
M  END
>  <i_m_ct_stereo_status>  (45) 
1

>  <s_m_source_file>  (45) 
/var/tmp/pbs.5076255.sched01/tmp3z6s85wa/08w76y650.sdf

>  <i_m_source_file_index>  (45) 
22

>  <i_lp_mmshare_version>  (45) 
48012

>  <i_f3d_flags>  (45) 
0

>  <s_epik_input>  (45) 
bjFbY0hdYyhbTkgyXSlbY0hdYyhjMTIpYyhcbltjSF1bbkhdMik9TlxbQ0BIXShbQ0BASF0zNClbQ0BIXTVbQ0gyXVtDQEBIXShbQ0gyXTQpW0NIMl1bQ0BASF0oW0NIMl0zKVtDSDJdNQ==

>  <s_epik_cmdline>  (45) 
J2VwaWtfcHl0aG9uJywgJy1waHQnLCAnMi4wJywgJy1waCcsICc3LjAnLCAnLXRuJywgJzgnLCAnLW1hJywgJzIwMCcsICctaW1hZScsICc8aW5maWxlLm1hZT4nLCAnLW9tYWUnLCAnPG91dGZpbGUubWFlPic=

>  <r_epik_Ionization_Penalty>  (45) 
0.94888

>  <r_epik_Ionization_Penalty_Charging>  (45) 
0

>  <r_epik_Ionization_Penalty_Neutral>  (45) 
0.94888

>  <r_epik_State_Penalty>  (45) 
0.991372

>  <r_epik_Charging_Adjusted_Penalty>  (45) 
0.991372

>  <i_epik_Tot_Q>  (45) 
0

>  <i_epik_Tot_abs_Q>  (45) 
0

>  <s_lp_Force_Field>  (45) 
OPLS3e

>  <r_lp_Energy>  (45) 
28.9083

>  <b_lp_Chiralities_Consistent>  (45) 
1

>  <s_lp_Variant>  (45) 
13:0-2

>  <s_i_glide_gridfile>  (45) 
pfpi4k_grid

>  <i_i_glide_lignum>  (45) 
22

>  <i_i_glide_rotatable_bonds>  (45) 
2

>  <r_i_docking_score>  (45) 
-3.54205

>  <r_i_glide_ligand_efficiency>  (45) 
-0.161002

>  <r_i_glide_ligand_efficiency_sa>  (45) 
-0.451135

>  <r_i_glide_ligand_efficiency_ln>  (45) 
-0.865807

>  <r_i_glide_gscore>  (45) 
-3.54205

>  <r_i_glide_lipo>  (45) 
-0.390528

>  <r_i_glide_hbond>  (45) 
-0.16

>  <r_i_glide_metal>  (45) 
-0

>  <r_i_glide_rewards>  (45) 
-1.4153

>  <r_i_glide_evdw>  (45) 
-26.4426

>  <r_i_glide_ecoul>  (45) 
-3.57877

>  <r_i_glide_erotb>  (45) 
0.419561

>  <r_i_glide_esite>  (45) 
-0.136843

>  <r_i_glide_emodel>  (45) 
-36.8307

>  <r_i_glide_energy>  (45) 
-30.0213

>  <r_i_glide_einternal>  (45) 
0.71801

>  <r_i_glide_intrahb_reward>  (45) 
-0

>  <i_i_glide_confnum>  (45) 
4

>  <i_i_glide_posenum>  (45) 
19

>  <r_i_glide_eff_state_penalty>  (45) 
0

>  <ligand_id>  (45) 
13

>  <original_smiles>  (45) 
Nc1cnc2[nH]cnc(=NC3C4CC5CC(C4)CC3C5)c2c1

>  <smiles>  (45) 
[H]c1nc(N([H])C2([H])C3([H])C([H])([H])C4([H])C([H])([H])C([H])(C3([H])[H])C([H])([H])C2([H])C4([H])[H])c2c([H])c(N([H])[H])c([H])nc2n1

$$$$
13:1:1
     RDKit          3D

 43 47  0  0  1  0  0  0  0  0999 V2000
   -0.4993    1.7158    2.7857 N   0  0  0  0  0  0  0  0  0  0  0  0
    0.0026    0.4891    3.2332 C   0  0  0  0  0  0  0  0  0  0  0  0
   -0.4476   -0.0784    4.4395 C   0  0  0  0  0  0  0  0  0  0  0  0
   -0.0310   -1.2669    4.9119 N   0  0  0  0  0  0  0  0  0  0  0  0
    0.8908   -1.9556    4.2066 C   0  0  0  0  0  0  0  0  0  0  0  0
    1.3066   -3.1355    4.6936 N   0  0  0  0  0  0  0  0  0  0  0  0
    2.2120   -3.8008    3.9848 C   0  0  0  0  0  0  0  0  0  0  0  0
    2.7647   -3.4281    2.8430 N   0  0  0  0  0  0  0  0  0  0  0  0
    2.3799   -2.2423    2.3374 C   0  0  0  0  0  0  0  0  0  0  0  0
    2.9928   -1.7906    1.1625 N   0  0  0  0  0  0  0  0  0  0  0  0
    4.1166   -2.4682    0.5145 C   0  0  2  0  0  0  0  0  0  0  0  0
    4.8223   -1.4897   -0.4613 C   0  0  1  0  0  0  0  0  0  0  0  0
    6.0916   -2.1535   -1.0162 C   0  0  0  0  0  0  0  0  0  0  0  0
    5.7095   -3.4188   -1.8035 C   0  0  2  0  0  0  0  0  0  0  0  0
    4.7687   -3.0510   -2.9708 C   0  0  0  0  0  0  0  0  0  0  0  0
    3.4926   -2.3958   -2.4094 C   0  0  2  0  0  0  0  0  0  0  0  0
    3.8894   -1.1258   -1.6402 C   0  0  0  0  0  0  0  0  0  0  0  0
    2.7695   -3.3648   -1.4471 C   0  0  0  0  0  0  0  0  0  0  0  0
    3.7172   -3.7446   -0.2845 C   0  0  1  0  0  0  0  0  0  0  0  0
    4.9992   -4.4006   -0.8535 C   0  0  0  0  0  0  0  0  0  0  0  0
    1.4095   -1.4653    3.0045 C   0  0  0  0  0  0  0  0  0  0  0  0
    0.9584   -0.2276    2.4911 C   0  0  0  0  0  0  0  0  0  0  0  0
   -1.2064    2.2258    3.3033 H   0  0  0  0  0  0  0  0  0  0  0  0
   -0.2001    2.1519    1.9144 H   0  0  0  0  0  0  0  0  0  0  0  0
   -1.1818    0.4344    5.0412 H   0  0  0  0  0  0  0  0  0  0  0  0
    2.5450   -4.7427    4.3941 H   0  0  0  0  0  0  0  0  0  0  0  0
    4.8188   -2.7522    1.3061 H   0  0  0  0  0  0  0  0  0  0  0  0
    5.0941   -0.5818    0.0821 H   0  0  0  0  0  0  0  0  0  0  0  0
    6.6039   -1.4610   -1.6766 H   0  0  0  0  0  0  0  0  0  0  0  0
    6.7838   -2.3969   -0.2081 H   0  0  0  0  0  0  0  0  0  0  0  0
    6.6144   -3.8613   -2.2119 H   0  0  0  0  0  0  0  0  0  0  0  0
    5.2701   -2.3513   -3.6415 H   0  0  0  0  0  0  0  0  0  0  0  0
    4.5249   -3.9364   -3.5622 H   0  0  0  0  0  0  0  0  0  0  0  0
    2.8212   -2.1340   -3.2289 H   0  0  0  0  0  0  0  0  0  0  0  0
    2.9912   -0.6602   -1.2703 H   0  0  0  0  0  0  0  0  0  0  0  0
    4.3636   -0.3995   -2.2980 H   0  0  0  0  0  0  0  0  0  0  0  0
    1.8691   -2.9046   -1.0542 H   0  0  0  0  0  0  0  0  0  0  0  0
    2.4124   -4.2390   -1.9802 H   0  0  0  0  0  0  0  0  0  0  0  0
    3.2184   -4.4695    0.3611 H   0  0  0  0  0  0  0  0  0  0  0  0
    4.7511   -5.3142   -1.3887 H   0  0  0  0  0  0  0  0  0  0  0  0
    5.6677   -4.6978   -0.0477 H   0  0  0  0  0  0  0  0  0  0  0  0
    1.3097    0.1638    1.5511 H   0  0  0  0  0  0  0  0  0  0  0  0
    2.6631   -0.9273    0.7404 H   0  0  0  0  0  0  0  0  0  0  0  0
  1  2  1  0
  1 23  1  0
  1 24  1  0
  2 22  2  0
  2  3  1  0
  3  4  2  0
  3 25  1  0
  4  5  1  0
  5 21  2  0
  5  6  1  0
  6  7  2  0
  7  8  1  0
  7 26  1  0
  8  9  2  0
  9 10  1  0
  9 21  1  0
 10 11  1  0
 10 43  1  0
 11 19  1  0
 11 12  1  0
 11 27  1  1
 12 17  1  0
 12 13  1  0
 12 28  1  1
 13 14  1  0
 13 29  1  0
 13 30  1  0
 14 20  1  0
 14 15  1  0
 14 31  1  6
 15 16  1  0
 15 32  1  0
 15 33  1  0
 16 17  1  0
 16 18  1  0
 16 34  1  6
 17 35  1  0
 17 36  1  0
 18 19  1  0
 18 37  1  0
 18 38  1  0
 19 20  1  0
 19 39  1  1
 20 40  1  0
 20 41  1  0
 21 22  1  0
 22 42  1  0
M  END
>  <i_m_ct_stereo_status>  (46) 
1

>  <s_m_source_file>  (46) 
/var/tmp/pbs.5076255.sched01/tmp3z6s85wa/08w76y650.sdf

>  <i_m_source_file_index>  (46) 
22

>  <i_lp_mmshare_version>  (46) 
48012

>  <i_f3d_flags>  (46) 
0

>  <s_epik_input>  (46) 
bjFbY0hdYyhbTkgyXSlbY0hdYyhjMTIpYyhcbltjSF1bbkhdMik9TlxbQ0BIXShbQ0BASF0zNClbQ0BIXTVbQ0gyXVtDQEBIXShbQ0gyXTQpW0NIMl1bQ0BASF0oW0NIMl0zKVtDSDJdNQ==

>  <s_epik_cmdline>  (46) 
J2VwaWtfcHl0aG9uJywgJy1waHQnLCAnMi4wJywgJy1waCcsICc3LjAnLCAnLXRuJywgJzgnLCAnLW1hJywgJzIwMCcsICctaW1hZScsICc8aW5maWxlLm1hZT4nLCAnLW9tYWUnLCAnPG91dGZpbGUubWFlPic=

>  <r_epik_Ionization_Penalty>  (46) 
0.94888

>  <r_epik_Ionization_Penalty_Charging>  (46) 
0

>  <r_epik_Ionization_Penalty_Neutral>  (46) 
0.94888

>  <r_epik_State_Penalty>  (46) 
0.991372

>  <r_epik_Charging_Adjusted_Penalty>  (46) 
0.991372

>  <i_epik_Tot_Q>  (46) 
0

>  <i_epik_Tot_abs_Q>  (46) 
0

>  <s_lp_Force_Field>  (46) 
OPLS3e

>  <r_lp_Energy>  (46) 
28.9083

>  <b_lp_Chiralities_Consistent>  (46) 
1

>  <s_lp_Variant>  (46) 
13:0-2

>  <s_i_glide_gridfile>  (46) 
pfpi4k_grid

>  <i_i_glide_lignum>  (46) 
22

>  <i_i_glide_rotatable_bonds>  (46) 
2

>  <r_i_docking_score>  (46) 
-3.07423

>  <r_i_glide_ligand_efficiency>  (46) 
-0.139738

>  <r_i_glide_ligand_efficiency_sa>  (46) 
-0.391551

>  <r_i_glide_ligand_efficiency_ln>  (46) 
-0.751454

>  <r_i_glide_gscore>  (46) 
-3.07423

>  <r_i_glide_lipo>  (46) 
-0.415882

>  <r_i_glide_hbond>  (46) 
0

>  <r_i_glide_metal>  (46) 
-0

>  <r_i_glide_rewards>  (46) 
-1.41156

>  <r_i_glide_evdw>  (46) 
-25.3484

>  <r_i_glide_ecoul>  (46) 
-2.01209

>  <r_i_glide_erotb>  (46) 
0.419561

>  <r_i_glide_esite>  (46) 
-0.0971111

>  <r_i_glide_emodel>  (46) 
-33.55

>  <r_i_glide_energy>  (46) 
-27.3605

>  <r_i_glide_einternal>  (46) 
0.138598

>  <r_i_glide_intrahb_reward>  (46) 
-0

>  <i_i_glide_confnum>  (46) 
4

>  <i_i_glide_posenum>  (46) 
22

>  <r_i_glide_eff_state_penalty>  (46) 
0

>  <ligand_id>  (46) 
13

>  <original_smiles>  (46) 
Nc1cnc2[nH]cnc(=NC3C4CC5CC(C4)CC3C5)c2c1

>  <smiles>  (46) 
[H]c1nc(N([H])C2([H])C3([H])C([H])([H])C4([H])C([H])([H])C([H])(C3([H])[H])C([H])([H])C2([H])C4([H])[H])c2c([H])c(N([H])[H])c([H])nc2n1

$$$$
13:1:2
     RDKit          3D

 43 47  0  0  1  0  0  0  0  0999 V2000
    2.6164    3.0460    2.8184 N   0  0  0  0  0  0  0  0  0  0  0  0
    1.6186    2.1532    3.2111 C   0  0  0  0  0  0  0  0  0  0  0  0
    1.2929    1.0239    2.4340 C   0  0  0  0  0  0  0  0  0  0  0  0
    0.3698    0.1168    2.7977 N   0  0  0  0  0  0  0  0  0  0  0  0
   -0.3053    0.2981    3.9465 C   0  0  0  0  0  0  0  0  0  0  0  0
   -1.2253   -0.6175    4.2960 N   0  0  0  0  0  0  0  0  0  0  0  0
   -1.8977   -0.4041    5.4111 C   0  0  0  0  0  0  0  0  0  0  0  0
   -1.7687    0.6041    6.2614 N   0  0  0  0  0  0  0  0  0  0  0  0
   -0.8443    1.5335    5.9448 C   0  0  0  0  0  0  0  0  0  0  0  0
   -0.6694    2.6302    6.8008 N   0  0  0  0  0  0  0  0  0  0  0  0
   -1.6720    3.0530    7.7776 C   0  0  2  0  0  0  0  0  0  0  0  0
   -1.4034    4.5187    8.2125 C   0  0  1  0  0  0  0  0  0  0  0  0
   -2.5377    4.9909    9.1447 C   0  0  0  0  0  0  0  0  0  0  0  0
   -2.5658    4.0999   10.4018 C   0  0  2  0  0  0  0  0  0  0  0  0
   -1.2187    4.2007   11.1452 C   0  0  0  0  0  0  0  0  0  0  0  0
   -0.0862    3.7197   10.2141 C   0  0  2  0  0  0  0  0  0  0  0  0
   -0.0489    4.6182    8.9593 C   0  0  0  0  0  0  0  0  0  0  0  0
   -0.3382    2.2574    9.7903 C   0  0  0  0  0  0  0  0  0  0  0  0
   -1.6920    2.1671    9.0534 C   0  0  1  0  0  0  0  0  0  0  0  0
   -2.8223    2.6441    9.9880 C   0  0  0  0  0  0  0  0  0  0  0  0
   -0.0699    1.4047    4.7695 C   0  0  0  0  0  0  0  0  0  0  0  0
    0.9097    2.3511    4.4034 C   0  0  0  0  0  0  0  0  0  0  0  0
    3.1568    2.9007    1.9720 H   0  0  0  0  0  0  0  0  0  0  0  0
    2.8474    3.8875    3.3318 H   0  0  0  0  0  0  0  0  0  0  0  0
    1.8054    0.8233    1.5065 H   0  0  0  0  0  0  0  0  0  0  0  0
   -2.6238   -1.1598    5.6706 H   0  0  0  0  0  0  0  0  0  0  0  0
   -2.6478    2.9966    7.2850 H   0  0  0  0  0  0  0  0  0  0  0  0
   -1.3776    5.1557    7.3283 H   0  0  0  0  0  0  0  0  0  0  0  0
   -2.3821    6.0302    9.4255 H   0  0  0  0  0  0  0  0  0  0  0  0
   -3.4991    4.9531    8.6329 H   0  0  0  0  0  0  0  0  0  0  0  0
   -3.3606    4.4152   11.0705 H   0  0  0  0  0  0  0  0  0  0  0  0
   -1.0376    5.2319   11.4509 H   0  0  0  0  0  0  0  0  0  0  0  0
   -1.2476    3.6048   12.0584 H   0  0  0  0  0  0  0  0  0  0  0  0
    0.8678    3.7815   10.7380 H   0  0  0  0  0  0  0  0  0  0  0  0
    0.7796    4.3228    8.3162 H   0  0  0  0  0  0  0  0  0  0  0  0
    0.1443    5.6519    9.2424 H   0  0  0  0  0  0  0  0  0  0  0  0
    0.4667    1.9142    9.1408 H   0  0  0  0  0  0  0  0  0  0  0  0
   -0.3358    1.5969   10.6583 H   0  0  0  0  0  0  0  0  0  0  0  0
   -1.8762    1.1273    8.7969 H   0  0  0  0  0  0  0  0  0  0  0  0
   -2.8747    2.0206   10.8781 H   0  0  0  0  0  0  0  0  0  0  0  0
   -3.7913    2.5615    9.4989 H   0  0  0  0  0  0  0  0  0  0  0  0
    1.1290    3.2081    5.0165 H   0  0  0  0  0  0  0  0  0  0  0  0
    0.0660    3.2904    6.5840 H   0  0  0  0  0  0  0  0  0  0  0  0
  1  2  1  0
  1 23  1  0
  1 24  1  0
  2 22  2  0
  2  3  1  0
  3  4  2  0
  3 25  1  0
  4  5  1  0
  5 21  2  0
  5  6  1  0
  6  7  2  0
  7  8  1  0
  7 26  1  0
  8  9  2  0
  9 10  1  0
  9 21  1  0
 10 11  1  0
 10 43  1  0
 11 19  1  0
 11 12  1  0
 11 27  1  6
 12 17  1  0
 12 13  1  0
 12 28  1  6
 13 14  1  0
 13 29  1  0
 13 30  1  0
 14 20  1  0
 14 15  1  0
 14 31  1  1
 15 16  1  0
 15 32  1  0
 15 33  1  0
 16 17  1  0
 16 18  1  0
 16 34  1  1
 17 35  1  0
 17 36  1  0
 18 19  1  0
 18 37  1  0
 18 38  1  0
 19 20  1  0
 19 39  1  6
 20 40  1  0
 20 41  1  0
 21 22  1  0
 22 42  1  0
M  END
>  <i_m_ct_stereo_status>  (47) 
1

>  <s_m_source_file>  (47) 
/var/tmp/pbs.5076255.sched01/tmp3z6s85wa/08w76y650.sdf

>  <i_m_source_file_index>  (47) 
22

>  <i_lp_mmshare_version>  (47) 
48012

>  <i_f3d_flags>  (47) 
0

>  <s_epik_input>  (47) 
bjFbY0hdYyhbTkgyXSlbY0hdYyhjMTIpYyhcbltjSF1bbkhdMik9TlxbQ0BIXShbQ0BASF0zNClbQ0BIXTVbQ0gyXVtDQEBIXShbQ0gyXTQpW0NIMl1bQ0BASF0oW0NIMl0zKVtDSDJdNQ==

>  <s_epik_cmdline>  (47) 
J2VwaWtfcHl0aG9uJywgJy1waHQnLCAnMi4wJywgJy1waCcsICc3LjAnLCAnLXRuJywgJzgnLCAnLW1hJywgJzIwMCcsICctaW1hZScsICc8aW5maWxlLm1hZT4nLCAnLW9tYWUnLCAnPG91dGZpbGUubWFlPic=

>  <r_epik_Ionization_Penalty>  (47) 
0.94888

>  <r_epik_Ionization_Penalty_Charging>  (47) 
0

>  <r_epik_Ionization_Penalty_Neutral>  (47) 
0.94888

>  <r_epik_State_Penalty>  (47) 
0.991372

>  <r_epik_Charging_Adjusted_Penalty>  (47) 
0.991372

>  <i_epik_Tot_Q>  (47) 
0

>  <i_epik_Tot_abs_Q>  (47) 
0

>  <s_lp_Force_Field>  (47) 
OPLS3e

>  <r_lp_Energy>  (47) 
28.9083

>  <b_lp_Chiralities_Consistent>  (47) 
1

>  <s_lp_Variant>  (47) 
13:0-2

>  <s_i_glide_gridfile>  (47) 
pfpi4k_grid

>  <i_i_glide_lignum>  (47) 
22

>  <i_i_glide_rotatable_bonds>  (47) 
2

>  <r_i_docking_score>  (47) 
-2.3669

>  <r_i_glide_ligand_efficiency>  (47) 
-0.107587

>  <r_i_glide_ligand_efficiency_sa>  (47) 
-0.301462

>  <r_i_glide_ligand_efficiency_ln>  (47) 
-0.578558

>  <r_i_glide_gscore>  (47) 
-2.3669

>  <r_i_glide_lipo>  (47) 
-0.0357002

>  <r_i_glide_hbond>  (47) 
-0.162553

>  <r_i_glide_metal>  (47) 
-0

>  <r_i_glide_rewards>  (47) 
-1.39512

>  <r_i_glide_evdw>  (47) 
-21.5441

>  <r_i_glide_ecoul>  (47) 
0.0984692

>  <r_i_glide_erotb>  (47) 
0.419561

>  <r_i_glide_esite>  (47) 
-0.130657

>  <r_i_glide_emodel>  (47) 
-26.0658

>  <r_i_glide_energy>  (47) 
-21.4456

>  <r_i_glide_einternal>  (47) 
0.321271

>  <r_i_glide_intrahb_reward>  (47) 
-0

>  <i_i_glide_confnum>  (47) 
4

>  <i_i_glide_posenum>  (47) 
2

>  <r_i_glide_eff_state_penalty>  (47) 
0

>  <ligand_id>  (47) 
13

>  <original_smiles>  (47) 
Nc1cnc2[nH]cnc(=NC3C4CC5CC(C4)CC3C5)c2c1

>  <smiles>  (47) 
[H]c1nc(N([H])C2([H])C3([H])C([H])([H])C4([H])C([H])([H])C([H])(C3([H])[H])C([H])([H])C2([H])C4([H])[H])c2c([H])c(N([H])[H])c([H])nc2n1

$$$$
14:0:0
     RDKit          3D

 57 61  0  0  1  0  0  0  0  0999 V2000
    7.8158   -3.1650    0.4750 C   0  0  0  0  0  0  0  0  0  0  0  0
    6.5427   -3.8152    1.0824 C   0  0  2  0  0  0  0  0  0  0  0  0
    6.3986   -5.3613    0.9512 C   0  0  1  0  0  0  0  0  0  0  0  0
    5.7832   -5.9429    2.2218 C   0  0  0  0  0  0  0  0  0  0  0  0
    4.3703   -5.3597    2.0845 C   0  0  2  0  0  0  0  0  0  0  0  0
    3.4886   -6.0170    2.9827 O   0  0  0  0  0  0  0  0  0  0  0  0
    4.1600   -5.9455    0.6665 C   0  0  0  0  0  0  0  0  0  0  0  0
    5.4055   -5.7230   -0.0084 O   0  0  0  0  0  0  0  0  0  0  0  0
    4.3497   -3.7710    2.2526 C   0  0  2  0  0  0  0  0  0  0  0  0
    4.9031   -3.5012    3.7077 C   0  0  0  0  0  0  0  0  0  0  0  0
    2.9376   -3.1891    2.1547 C   0  0  0  0  0  0  0  0  0  0  0  0
    2.3450   -3.0850    0.9719 C   0  0  0  0  0  0  0  0  0  0  0  0
    3.0236   -3.2124   -0.2703 C   0  0  0  0  0  0  0  0  0  0  0  0
    4.3667   -3.0230   -0.2692 C   0  0  0  0  0  0  0  0  0  0  0  0
    5.0069   -2.6304   -1.6211 C   0  0  0  0  0  0  0  0  0  0  0  0
    5.7748   -1.3455   -1.4086 C   0  0  0  0  0  0  0  0  0  0  0  0
    5.8325   -3.7588   -2.1968 C   0  0  0  0  0  0  0  0  0  0  0  0
    4.0837   -2.3169   -2.8357 C   0  0  0  0  0  0  0  0  0  0  0  0
    2.6833   -2.0350   -2.4219 C   0  0  0  0  0  0  0  0  0  0  0  0
    2.2270   -3.2059   -1.5491 C   0  0  0  0  0  0  0  0  0  0  0  0
    5.1652   -3.0456    1.1027 C   0  0  2  0  0  0  0  0  0  0  0  0
    5.4113   -1.7150    1.5932 O   0  0  0  0  0  0  0  0  0  0  0  0
    4.3301   -0.7565    1.6982 C   0  0  0  0  0  0  0  0  0  0  0  0
    3.4053   -0.8305    2.9601 C   0  0  0  0  0  0  0  0  0  0  0  0
    2.5299   -2.1113    3.1408 C   0  0  0  0  0  0  0  0  0  0  0  0
    7.8769   -3.0491   -0.6036 H   0  0  0  0  0  0  0  0  0  0  0  0
    8.7040   -3.7262    0.7850 H   0  0  0  0  0  0  0  0  0  0  0  0
    7.9371   -2.1599    0.8750 H   0  0  0  0  0  0  0  0  0  0  0  0
    6.8898   -3.7272    2.0951 H   0  0  0  0  0  0  0  0  0  0  0  0
    7.3531   -5.8409    0.7226 H   0  0  0  0  0  0  0  0  0  0  0  0
    5.7615   -7.0334    2.1565 H   0  0  0  0  0  0  0  0  0  0  0  0
    6.3333   -5.7359    3.1397 H   0  0  0  0  0  0  0  0  0  0  0  0
    3.7511   -5.7854    3.8658 H   0  0  0  0  0  0  0  0  0  0  0  0
    4.0306   -7.0309    0.7200 H   0  0  0  0  0  0  0  0  0  0  0  0
    3.2801   -5.6137    0.1197 H   0  0  0  0  0  0  0  0  0  0  0  0
    5.8426   -3.9784    3.9577 H   0  0  0  0  0  0  0  0  0  0  0  0
    4.2031   -3.8522    4.4735 H   0  0  0  0  0  0  0  0  0  0  0  0
    5.1099   -2.4583    3.9162 H   0  0  0  0  0  0  0  0  0  0  0  0
    1.4694   -2.4402    0.9320 H   0  0  0  0  0  0  0  0  0  0  0  0
    6.3449   -1.1952   -2.3133 H   0  0  0  0  0  0  0  0  0  0  0  0
    6.4786   -1.3386   -0.5847 H   0  0  0  0  0  0  0  0  0  0  0  0
    5.1152   -0.4804   -1.2825 H   0  0  0  0  0  0  0  0  0  0  0  0
    6.4134   -3.4547   -3.0790 H   0  0  0  0  0  0  0  0  0  0  0  0
    5.1960   -4.6011   -2.4794 H   0  0  0  0  0  0  0  0  0  0  0  0
    6.5015   -4.1589   -1.4655 H   0  0  0  0  0  0  0  0  0  0  0  0
    4.4491   -1.4746   -3.4294 H   0  0  0  0  0  0  0  0  0  0  0  0
    4.0185   -3.1430   -3.5427 H   0  0  0  0  0  0  0  0  0  0  0  0
    2.6752   -1.0878   -1.8736 H   0  0  0  0  0  0  0  0  0  0  0  0
    2.0426   -1.9106   -3.2921 H   0  0  0  0  0  0  0  0  0  0  0  0
    2.3435   -4.1476   -2.0833 H   0  0  0  0  0  0  0  0  0  0  0  0
    1.1603   -3.1222   -1.3240 H   0  0  0  0  0  0  0  0  0  0  0  0
    4.8164    0.2159    1.7485 H   0  0  0  0  0  0  0  0  0  0  0  0
    3.7324   -0.7095    0.7875 H   0  0  0  0  0  0  0  0  0  0  0  0
    4.0002   -0.6599    3.8597 H   0  0  0  0  0  0  0  0  0  0  0  0
    2.7311    0.0306    2.9276 H   0  0  0  0  0  0  0  0  0  0  0  0
    1.4882   -1.8327    2.9573 H   0  0  0  0  0  0  0  0  0  0  0  0
    2.5329   -2.4530    4.1758 H   0  0  0  0  0  0  0  0  0  0  0  0
  1  2  1  0
  1 26  1  0
  1 27  1  0
  1 28  1  0
  2 21  1  0
  2  3  1  0
  2 29  1  1
  3  8  1  0
  3  4  1  0
  3 30  1  6
  4  5  1  0
  4 31  1  0
  4 32  1  0
  5  6  1  1
  5  7  1  0
  5  9  1  0
  6 33  1  0
  7  8  1  0
  7 34  1  0
  7 35  1  0
  9 21  1  0
  9 10  1  1
  9 11  1  0
 10 36  1  0
 10 37  1  0
 10 38  1  0
 11 25  1  0
 11 12  2  0
 12 13  1  0
 12 39  1  0
 13 20  1  0
 13 14  2  0
 14 15  1  0
 14 21  1  0
 15 16  1  0
 15 17  1  0
 15 18  1  0
 16 40  1  0
 16 41  1  0
 16 42  1  0
 17 43  1  0
 17 44  1  0
 17 45  1  0
 18 19  1  0
 18 46  1  0
 18 47  1  0
 19 20  1  0
 19 48  1  0
 19 49  1  0
 20 50  1  0
 20 51  1  0
 21 22  1  1
 22 23  1  0
 23 24  1  0
 23 52  1  0
 23 53  1  0
 24 25  1  0
 24 54  1  0
 24 55  1  0
 25 56  1  0
 25 57  1  0
M  END
>  <i_m_ct_stereo_status>  (48) 
1

>  <s_m_source_file>  (48) 
/var/tmp/pbs.5076255.sched01/tmp3z6s85wa/08w76y650.sdf

>  <i_m_source_file_index>  (48) 
23

>  <i_lp_mmshare_version>  (48) 
48012

>  <i_f3d_flags>  (48) 
0

>  <s_epik_input>  (48) 
W0NIM11bQ0BASF0xW0NASF0oT1tDSDJdMilbQ0gyXVtDQEBdMihbT0hdKVtDQF0oW0NAQF0xMzQpKFtDSDNdKUMoW0NIMl1bQ0gyXVtDSDJdTzQpPVtDSF1DNT1DM0MoW0NIM10pKFtDSDNdKVtDSDJdW0NIMl1bQ0gyXTU=

>  <s_epik_cmdline>  (48) 
J2VwaWtfcHl0aG9uJywgJy1waHQnLCAnMi4wJywgJy1waCcsICc3LjAnLCAnLXRuJywgJzgnLCAnLW1hJywgJzIwMCcsICctaW1hZScsICc8aW5maWxlLm1hZT4nLCAnLW9tYWUnLCAnPG91dGZpbGUubWFlPic=

>  <r_lp_tautomer_probability>  (48) 
1

>  <r_epik_Ionization_Penalty>  (48) 
3.48609e-08

>  <r_epik_Ionization_Penalty_Charging>  (48) 
0

>  <r_epik_Ionization_Penalty_Neutral>  (48) 
3.48609e-08

>  <r_epik_State_Penalty>  (48) 
-0

>  <r_epik_Charging_Adjusted_Penalty>  (48) 
0

>  <i_epik_Tot_Q>  (48) 
0

>  <i_epik_Tot_abs_Q>  (48) 
0

>  <s_lp_Force_Field>  (48) 
OPLS3e

>  <r_lp_Energy>  (48) 
105.934

>  <b_lp_Chiralities_Consistent>  (48) 
1

>  <s_lp_Variant>  (48) 
14:0-1

>  <s_i_glide_gridfile>  (48) 
pfpi4k_grid

>  <i_i_glide_lignum>  (48) 
23

>  <i_i_glide_rotatable_bonds>  (48) 
1

>  <r_i_docking_score>  (48) 
-2.78522

>  <r_i_glide_ligand_efficiency>  (48) 
-0.111409

>  <r_i_glide_ligand_efficiency_sa>  (48) 
-0.325761

>  <r_i_glide_ligand_efficiency_ln>  (48) 
-0.66018

>  <r_i_glide_gscore>  (48) 
-2.78522

>  <r_i_glide_lipo>  (48) 
-1.00307

>  <r_i_glide_hbond>  (48) 
0

>  <r_i_glide_metal>  (48) 
-0

>  <r_i_glide_rewards>  (48) 
-1.06031

>  <r_i_glide_evdw>  (48) 
-14.3748

>  <r_i_glide_ecoul>  (48) 
-0.0206339

>  <r_i_glide_erotb>  (48) 
0

>  <r_i_glide_esite>  (48) 
0

>  <r_i_glide_emodel>  (48) 
-16.5768

>  <r_i_glide_energy>  (48) 
-14.3954

>  <r_i_glide_einternal>  (48) 
0.00704768

>  <r_i_glide_intrahb_reward>  (48) 
-0

>  <i_i_glide_confnum>  (48) 
2

>  <i_i_glide_posenum>  (48) 
6

>  <r_i_glide_eff_state_penalty>  (48) 
0

>  <ligand_id>  (48) 
14

>  <original_smiles>  (48) 
CC1C2CC(O)(CO2)C2(C)C3=CC4=C(C(C)(C)CCC4)C12OCCC3

>  <smiles>  (48) 
[H]OC12C([H])([H])OC([H])(C1([H])[H])C([H])(C([H])([H])[H])C13OC([H])([H])C([H])([H])C([H])([H])C(=C([H])C4=C1C(C([H])([H])[H])(C([H])([H])[H])C([H])([H])C([H])([H])C4([H])[H])C32C([H])([H])[H]

$$$$
14:0:1
     RDKit          3D

 57 61  0  0  1  0  0  0  0  0999 V2000
    5.7039   -5.5303    4.6901 C   0  0  0  0  0  0  0  0  0  0  0  0
    4.3042   -4.8844    4.5549 C   0  0  2  0  0  0  0  0  0  0  0  0
    3.0666   -5.8233    4.7281 C   0  0  1  0  0  0  0  0  0  0  0  0
    1.9607   -5.0793    5.4738 C   0  0  0  0  0  0  0  0  0  0  0  0
    1.5830   -4.0718    4.3845 C   0  0  2  0  0  0  0  0  0  0  0  0
    0.3672   -3.4322    4.7250 O   0  0  0  0  0  0  0  0  0  0  0  0
    1.3311   -5.1624    3.3216 C   0  0  0  0  0  0  0  0  0  0  0  0
    2.4089   -6.0900    3.4879 O   0  0  0  0  0  0  0  0  0  0  0  0
    2.7404   -2.9988    4.1048 C   0  0  2  0  0  0  0  0  0  0  0  0
    2.9745   -2.2650    5.4847 C   0  0  0  0  0  0  0  0  0  0  0  0
    2.3462   -1.9619    3.0442 C   0  0  0  0  0  0  0  0  0  0  0  0
    2.2725   -2.2974    1.7513 C   0  0  0  0  0  0  0  0  0  0  0  0
    2.9484   -3.4634    1.2392 C   0  0  0  0  0  0  0  0  0  0  0  0
    3.9060   -4.0824    1.9918 C   0  0  0  0  0  0  0  0  0  0  0  0
    4.9179   -5.0475    1.2737 C   0  0  0  0  0  0  0  0  0  0  0  0
    6.3692   -4.5930    1.5497 C   0  0  0  0  0  0  0  0  0  0  0  0
    4.6552   -6.5370    1.6124 C   0  0  0  0  0  0  0  0  0  0  0  0
    4.8250   -5.0285   -0.2912 C   0  0  0  0  0  0  0  0  0  0  0  0
    4.1076   -3.8318   -0.8924 C   0  0  0  0  0  0  0  0  0  0  0  0
    2.7504   -3.7622   -0.2281 C   0  0  0  0  0  0  0  0  0  0  0  0
    4.0516   -3.6992    3.5356 C   0  0  2  0  0  0  0  0  0  0  0  0
    5.1116   -2.7344    3.7172 O   0  0  0  0  0  0  0  0  0  0  0  0
    5.1607   -1.5305    2.9188 C   0  0  0  0  0  0  0  0  0  0  0  0
    4.2632   -0.3287    3.3607 C   0  0  0  0  0  0  0  0  0  0  0  0
    2.7140   -0.5070    3.2903 C   0  0  0  0  0  0  0  0  0  0  0  0
    6.0595   -6.1204    3.8561 H   0  0  0  0  0  0  0  0  0  0  0  0
    5.7400   -6.1830    5.5627 H   0  0  0  0  0  0  0  0  0  0  0  0
    6.4501   -4.7547    4.8627 H   0  0  0  0  0  0  0  0  0  0  0  0
    4.3519   -4.3955    5.5222 H   0  0  0  0  0  0  0  0  0  0  0  0
    3.3298   -6.7532    5.2319 H   0  0  0  0  0  0  0  0  0  0  0  0
    1.1337   -5.7590    5.6861 H   0  0  0  0  0  0  0  0  0  0  0  0
    2.2517   -4.6963    6.4478 H   0  0  0  0  0  0  0  0  0  0  0  0
    0.1404   -2.8525    4.0127 H   0  0  0  0  0  0  0  0  0  0  0  0
    0.4116   -5.7032    3.5597 H   0  0  0  0  0  0  0  0  0  0  0  0
    1.1861   -4.8227    2.3023 H   0  0  0  0  0  0  0  0  0  0  0  0
    3.1430   -2.8977    6.3456 H   0  0  0  0  0  0  0  0  0  0  0  0
    2.1130   -1.6562    5.7545 H   0  0  0  0  0  0  0  0  0  0  0  0
    3.8486   -1.6264    5.5058 H   0  0  0  0  0  0  0  0  0  0  0  0
    2.1382   -1.5042    1.0302 H   0  0  0  0  0  0  0  0  0  0  0  0
    7.0988   -5.3073    1.1657 H   0  0  0  0  0  0  0  0  0  0  0  0
    6.5932   -4.4373    2.5932 H   0  0  0  0  0  0  0  0  0  0  0  0
    6.5625   -3.6349    1.0632 H   0  0  0  0  0  0  0  0  0  0  0  0
    5.4108   -7.1852    1.1649 H   0  0  0  0  0  0  0  0  0  0  0  0
    3.6868   -6.8488    1.2177 H   0  0  0  0  0  0  0  0  0  0  0  0
    4.6014   -6.7820    2.6606 H   0  0  0  0  0  0  0  0  0  0  0  0
    5.8154   -5.0971   -0.7390 H   0  0  0  0  0  0  0  0  0  0  0  0
    4.3088   -5.9123   -0.6697 H   0  0  0  0  0  0  0  0  0  0  0  0
    4.6683   -2.9093   -0.7243 H   0  0  0  0  0  0  0  0  0  0  0  0
    3.9970   -3.9507   -1.9711 H   0  0  0  0  0  0  0  0  0  0  0  0
    2.2161   -4.7082   -0.3367 H   0  0  0  0  0  0  0  0  0  0  0  0
    2.1396   -2.9971   -0.7058 H   0  0  0  0  0  0  0  0  0  0  0  0
    6.1907   -1.1834    2.9991 H   0  0  0  0  0  0  0  0  0  0  0  0
    5.0371   -1.7408    1.8593 H   0  0  0  0  0  0  0  0  0  0  0  0
    4.5607   -0.0035    4.3599 H   0  0  0  0  0  0  0  0  0  0  0  0
    4.5219    0.5237    2.7279 H   0  0  0  0  0  0  0  0  0  0  0  0
    2.3394    0.1053    2.4693 H   0  0  0  0  0  0  0  0  0  0  0  0
    2.2303   -0.1042    4.1775 H   0  0  0  0  0  0  0  0  0  0  0  0
  1  2  1  0
  1 26  1  0
  1 27  1  0
  1 28  1  0
  2 21  1  0
  2  3  1  0
  2 29  1  1
  3  8  1  0
  3  4  1  0
  3 30  1  1
  4  5  1  0
  4 31  1  0
  4 32  1  0
  5  6  1  1
  5  7  1  0
  5  9  1  0
  6 33  1  0
  7  8  1  0
  7 34  1  0
  7 35  1  0
  9 21  1  0
  9 10  1  1
  9 11  1  0
 10 36  1  0
 10 37  1  0
 10 38  1  0
 11 25  1  0
 11 12  2  0
 12 13  1  0
 12 39  1  0
 13 20  1  0
 13 14  2  0
 14 15  1  0
 14 21  1  0
 15 16  1  0
 15 17  1  0
 15 18  1  0
 16 40  1  0
 16 41  1  0
 16 42  1  0
 17 43  1  0
 17 44  1  0
 17 45  1  0
 18 19  1  0
 18 46  1  0
 18 47  1  0
 19 20  1  0
 19 48  1  0
 19 49  1  0
 20 50  1  0
 20 51  1  0
 21 22  1  6
 22 23  1  0
 23 24  1  0
 23 52  1  0
 23 53  1  0
 24 25  1  0
 24 54  1  0
 24 55  1  0
 25 56  1  0
 25 57  1  0
M  END
>  <i_m_ct_stereo_status>  (49) 
1

>  <s_m_source_file>  (49) 
/var/tmp/pbs.5076255.sched01/tmp3z6s85wa/08w76y650.sdf

>  <i_m_source_file_index>  (49) 
23

>  <i_lp_mmshare_version>  (49) 
48012

>  <i_f3d_flags>  (49) 
0

>  <s_epik_input>  (49) 
W0NIM11bQ0BASF0xW0NASF0oT1tDSDJdMilbQ0gyXVtDQEBdMihbT0hdKVtDQF0oW0NAQF0xMzQpKFtDSDNdKUMoW0NIMl1bQ0gyXVtDSDJdTzQpPVtDSF1DNT1DM0MoW0NIM10pKFtDSDNdKVtDSDJdW0NIMl1bQ0gyXTU=

>  <s_epik_cmdline>  (49) 
J2VwaWtfcHl0aG9uJywgJy1waHQnLCAnMi4wJywgJy1waCcsICc3LjAnLCAnLXRuJywgJzgnLCAnLW1hJywgJzIwMCcsICctaW1hZScsICc8aW5maWxlLm1hZT4nLCAnLW9tYWUnLCAnPG91dGZpbGUubWFlPic=

>  <r_lp_tautomer_probability>  (49) 
1

>  <r_epik_Ionization_Penalty>  (49) 
3.48609e-08

>  <r_epik_Ionization_Penalty_Charging>  (49) 
0

>  <r_epik_Ionization_Penalty_Neutral>  (49) 
3.48609e-08

>  <r_epik_State_Penalty>  (49) 
-0

>  <r_epik_Charging_Adjusted_Penalty>  (49) 
0

>  <i_epik_Tot_Q>  (49) 
0

>  <i_epik_Tot_abs_Q>  (49) 
0

>  <s_lp_Force_Field>  (49) 
OPLS3e

>  <r_lp_Energy>  (49) 
105.934

>  <b_lp_Chiralities_Consistent>  (49) 
1

>  <s_lp_Variant>  (49) 
14:0-1

>  <s_i_glide_gridfile>  (49) 
pfpi4k_grid

>  <i_i_glide_lignum>  (49) 
23

>  <i_i_glide_rotatable_bonds>  (49) 
1

>  <r_i_docking_score>  (49) 
-2.59856

>  <r_i_glide_ligand_efficiency>  (49) 
-0.103942

>  <r_i_glide_ligand_efficiency_sa>  (49) 
-0.303929

>  <r_i_glide_ligand_efficiency_ln>  (49) 
-0.615936

>  <r_i_glide_gscore>  (49) 
-2.59856

>  <r_i_glide_lipo>  (49) 
-0.326045

>  <r_i_glide_hbond>  (49) 
0

>  <r_i_glide_metal>  (49) 
-0

>  <r_i_glide_rewards>  (49) 
-1.06031

>  <r_i_glide_evdw>  (49) 
-17.943

>  <r_i_glide_ecoul>  (49) 
-2.10035

>  <r_i_glide_erotb>  (49) 
0

>  <r_i_glide_esite>  (49) 
0

>  <r_i_glide_emodel>  (49) 
-22.9708

>  <r_i_glide_energy>  (49) 
-20.0433

>  <r_i_glide_einternal>  (49) 
0.0197546

>  <r_i_glide_intrahb_reward>  (49) 
-0

>  <i_i_glide_confnum>  (49) 
1

>  <i_i_glide_posenum>  (49) 
35

>  <r_i_glide_eff_state_penalty>  (49) 
0

>  <ligand_id>  (49) 
14

>  <original_smiles>  (49) 
CC1C2CC(O)(CO2)C2(C)C3=CC4=C(C(C)(C)CCC4)C12OCCC3

>  <smiles>  (49) 
[H]OC12C([H])([H])OC([H])(C1([H])[H])C([H])(C([H])([H])[H])C13OC([H])([H])C([H])([H])C([H])([H])C(=C([H])C4=C1C(C([H])([H])[H])(C([H])([H])[H])C([H])([H])C([H])([H])C4([H])[H])C32C([H])([H])[H]

$$$$
14:0:2
     RDKit          3D

 57 61  0  0  1  0  0  0  0  0999 V2000
    5.7278   -5.5198    4.6748 C   0  0  0  0  0  0  0  0  0  0  0  0
    4.3247   -4.8797    4.5498 C   0  0  2  0  0  0  0  0  0  0  0  0
    3.0930   -5.8237    4.7346 C   0  0  1  0  0  0  0  0  0  0  0  0
    1.9929   -5.0826    5.4901 C   0  0  0  0  0  0  0  0  0  0  0  0
    1.5967   -4.0789    4.4035 C   0  0  2  0  0  0  0  0  0  0  0  0
    0.3781   -3.4569    4.7701 O   0  0  0  0  0  0  0  0  0  0  0  0
    1.3386   -5.1705    3.3447 C   0  0  0  0  0  0  0  0  0  0  0  0
    2.4219   -6.0942    3.5021 O   0  0  0  0  0  0  0  0  0  0  0  0
    2.7474   -3.0005    4.1101 C   0  0  2  0  0  0  0  0  0  0  0  0
    2.9927   -2.2612    5.4857 C   0  0  0  0  0  0  0  0  0  0  0  0
    2.3423   -1.9676    3.0499 C   0  0  0  0  0  0  0  0  0  0  0  0
    2.2600   -2.3071    1.7579 C   0  0  0  0  0  0  0  0  0  0  0  0
    2.9351   -3.4718    1.2428 C   0  0  0  0  0  0  0  0  0  0  0  0
    3.9015   -4.0853    1.9891 C   0  0  0  0  0  0  0  0  0  0  0  0
    4.9115   -5.0489    1.2641 C   0  0  0  0  0  0  0  0  0  0  0  0
    6.3633   -4.5879    1.5269 C   0  0  0  0  0  0  0  0  0  0  0  0
    4.6554   -6.5381    1.6090 C   0  0  0  0  0  0  0  0  0  0  0  0
    4.8081   -5.0338   -0.3013 C   0  0  0  0  0  0  0  0  0  0  0  0
    4.0787   -3.8410   -0.8975 C   0  0  0  0  0  0  0  0  0  0  0  0
    2.7264   -3.7757   -0.2220 C   0  0  0  0  0  0  0  0  0  0  0  0
    4.0582   -3.6972    3.5304 C   0  0  2  0  0  0  0  0  0  0  0  0
    5.1169   -2.7287    3.7005 O   0  0  0  0  0  0  0  0  0  0  0  0
    5.1561   -1.5268    2.8984 C   0  0  0  0  0  0  0  0  0  0  0  0
    4.2581   -0.3267    3.3443 C   0  0  0  0  0  0  0  0  0  0  0  0
    2.7086   -0.5109    3.2877 C   0  0  0  0  0  0  0  0  0  0  0  0
    6.0781   -6.1108    3.8391 H   0  0  0  0  0  0  0  0  0  0  0  0
    5.7732   -6.1705    5.5487 H   0  0  0  0  0  0  0  0  0  0  0  0
    6.4724   -4.7416    4.8397 H   0  0  0  0  0  0  0  0  0  0  0  0
    4.3792   -4.3882    5.5153 H   0  0  0  0  0  0  0  0  0  0  0  0
    3.3631   -6.7512    5.2394 H   0  0  0  0  0  0  0  0  0  0  0  0
    1.1701   -5.7651    5.7117 H   0  0  0  0  0  0  0  0  0  0  0  0
    2.2928   -4.6966    6.4619 H   0  0  0  0  0  0  0  0  0  0  0  0
    0.5632   -2.8354    5.4578 H   0  0  0  0  0  0  0  0  0  0  0  0
    0.4229   -5.7130    3.5905 H   0  0  0  0  0  0  0  0  0  0  0  0
    1.1833   -4.8306    2.3279 H   0  0  0  0  0  0  0  0  0  0  0  0
    3.1722   -2.8909    6.3466 H   0  0  0  0  0  0  0  0  0  0  0  0
    2.1373   -1.6471    5.7614 H   0  0  0  0  0  0  0  0  0  0  0  0
    3.8669   -1.6225    5.4948 H   0  0  0  0  0  0  0  0  0  0  0  0
    2.1157   -1.5161    1.0362 H   0  0  0  0  0  0  0  0  0  0  0  0
    7.0922   -5.3008    1.1387 H   0  0  0  0  0  0  0  0  0  0  0  0
    6.5974   -4.4271    2.5677 H   0  0  0  0  0  0  0  0  0  0  0  0
    6.5490   -3.6311    1.0356 H   0  0  0  0  0  0  0  0  0  0  0  0
    5.4089   -7.1859    1.1571 H   0  0  0  0  0  0  0  0  0  0  0  0
    3.6849   -6.8540    1.2233 H   0  0  0  0  0  0  0  0  0  0  0  0
    4.6111   -6.7813    2.6584 H   0  0  0  0  0  0  0  0  0  0  0  0
    5.7954   -5.0992   -0.7563 H   0  0  0  0  0  0  0  0  0  0  0  0
    4.2894   -5.9203   -0.6721 H   0  0  0  0  0  0  0  0  0  0  0  0
    4.6367   -2.9158   -0.7365 H   0  0  0  0  0  0  0  0  0  0  0  0
    3.9592   -3.9622   -1.9752 H   0  0  0  0  0  0  0  0  0  0  0  0
    2.1971   -4.7252   -0.3235 H   0  0  0  0  0  0  0  0  0  0  0  0
    2.1060   -3.0166   -0.6970 H   0  0  0  0  0  0  0  0  0  0  0  0
    6.1860   -1.1769    2.9690 H   0  0  0  0  0  0  0  0  0  0  0  0
    5.0243   -1.7399    1.8403 H   0  0  0  0  0  0  0  0  0  0  0  0
    4.5632    0.0025    4.3400 H   0  0  0  0  0  0  0  0  0  0  0  0
    4.5085    0.5251    2.7071 H   0  0  0  0  0  0  0  0  0  0  0  0
    2.3255    0.0979    2.4678 H   0  0  0  0  0  0  0  0  0  0  0  0
    2.2307   -0.1052    4.1767 H   0  0  0  0  0  0  0  0  0  0  0  0
  1  2  1  0
  1 26  1  0
  1 27  1  0
  1 28  1  0
  2 21  1  0
  2  3  1  0
  2 29  1  1
  3  8  1  0
  3  4  1  0
  3 30  1  1
  4  5  1  0
  4 31  1  0
  4 32  1  0
  5  6  1  1
  5  7  1  0
  5  9  1  0
  6 33  1  0
  7  8  1  0
  7 34  1  0
  7 35  1  0
  9 21  1  0
  9 10  1  1
  9 11  1  0
 10 36  1  0
 10 37  1  0
 10 38  1  0
 11 25  1  0
 11 12  2  0
 12 13  1  0
 12 39  1  0
 13 20  1  0
 13 14  2  0
 14 15  1  0
 14 21  1  0
 15 16  1  0
 15 17  1  0
 15 18  1  0
 16 40  1  0
 16 41  1  0
 16 42  1  0
 17 43  1  0
 17 44  1  0
 17 45  1  0
 18 19  1  0
 18 46  1  0
 18 47  1  0
 19 20  1  0
 19 48  1  0
 19 49  1  0
 20 50  1  0
 20 51  1  0
 21 22  1  6
 22 23  1  0
 23 24  1  0
 23 52  1  0
 23 53  1  0
 24 25  1  0
 24 54  1  0
 24 55  1  0
 25 56  1  0
 25 57  1  0
M  END
>  <i_m_ct_stereo_status>  (50) 
1

>  <s_m_source_file>  (50) 
/var/tmp/pbs.5076255.sched01/tmp3z6s85wa/08w76y650.sdf

>  <i_m_source_file_index>  (50) 
23

>  <i_lp_mmshare_version>  (50) 
48012

>  <i_f3d_flags>  (50) 
0

>  <s_epik_input>  (50) 
W0NIM11bQ0BASF0xW0NASF0oT1tDSDJdMilbQ0gyXVtDQEBdMihbT0hdKVtDQF0oW0NAQF0xMzQpKFtDSDNdKUMoW0NIMl1bQ0gyXVtDSDJdTzQpPVtDSF1DNT1DM0MoW0NIM10pKFtDSDNdKVtDSDJdW0NIMl1bQ0gyXTU=

>  <s_epik_cmdline>  (50) 
J2VwaWtfcHl0aG9uJywgJy1waHQnLCAnMi4wJywgJy1waCcsICc3LjAnLCAnLXRuJywgJzgnLCAnLW1hJywgJzIwMCcsICctaW1hZScsICc8aW5maWxlLm1hZT4nLCAnLW9tYWUnLCAnPG91dGZpbGUubWFlPic=

>  <r_lp_tautomer_probability>  (50) 
1

>  <r_epik_Ionization_Penalty>  (50) 
3.48609e-08

>  <r_epik_Ionization_Penalty_Charging>  (50) 
0

>  <r_epik_Ionization_Penalty_Neutral>  (50) 
3.48609e-08

>  <r_epik_State_Penalty>  (50) 
-0

>  <r_epik_Charging_Adjusted_Penalty>  (50) 
0

>  <i_epik_Tot_Q>  (50) 
0

>  <i_epik_Tot_abs_Q>  (50) 
0

>  <s_lp_Force_Field>  (50) 
OPLS3e

>  <r_lp_Energy>  (50) 
105.934

>  <b_lp_Chiralities_Consistent>  (50) 
1

>  <s_lp_Variant>  (50) 
14:0-1

>  <s_i_glide_gridfile>  (50) 
pfpi4k_grid

>  <i_i_glide_lignum>  (50) 
23

>  <i_i_glide_rotatable_bonds>  (50) 
1

>  <r_i_docking_score>  (50) 
-2.15331

>  <r_i_glide_ligand_efficiency>  (50) 
-0.0861325

>  <r_i_glide_ligand_efficiency_sa>  (50) 
-0.251853

>  <r_i_glide_ligand_efficiency_ln>  (50) 
-0.5104

>  <r_i_glide_gscore>  (50) 
-2.15331

>  <r_i_glide_lipo>  (50) 
-0.327801

>  <r_i_glide_hbond>  (50) 
0

>  <r_i_glide_metal>  (50) 
-0

>  <r_i_glide_rewards>  (50) 
-1.06031

>  <r_i_glide_evdw>  (50) 
-17.9088

>  <r_i_glide_ecoul>  (50) 
0.86825

>  <r_i_glide_erotb>  (50) 
0

>  <r_i_glide_esite>  (50) 
0

>  <r_i_glide_emodel>  (50) 
-19.4254

>  <r_i_glide_energy>  (50) 
-17.0405

>  <r_i_glide_einternal>  (50) 
0.022908

>  <r_i_glide_intrahb_reward>  (50) 
-0

>  <i_i_glide_confnum>  (50) 
1

>  <i_i_glide_posenum>  (50) 
1

>  <r_i_glide_eff_state_penalty>  (50) 
0

>  <ligand_id>  (50) 
14

>  <original_smiles>  (50) 
CC1C2CC(O)(CO2)C2(C)C3=CC4=C(C(C)(C)CCC4)C12OCCC3

>  <smiles>  (50) 
[H]OC12C([H])([H])OC([H])(C1([H])[H])C([H])(C([H])([H])[H])C13OC([H])([H])C([H])([H])C([H])([H])C(=C([H])C4=C1C(C([H])([H])[H])(C([H])([H])[H])C([H])([H])C([H])([H])C4([H])[H])C32C([H])([H])[H]

$$$$
15:0:0
     RDKit          3D

 43 46  0  0  1  0  0  0  0  0999 V2000
    1.7267  -10.6974    5.2802 O   0  0  0  0  0  0  0  0  0  0  0  0
    0.9490   -9.5854    5.6676 C   0  0  0  0  0  0  0  0  0  0  0  0
    0.6353   -8.7033    4.4445 C   0  0  2  0  0  0  0  0  0  0  0  0
    1.7526   -7.8582    4.1665 O   0  0  0  0  0  0  0  0  0  0  0  0
    1.3435   -6.5607    3.8606 C   0  0  1  0  0  0  0  0  0  0  0  0
    1.9915   -6.1316    2.5823 N   0  0  0  0  0  0  0  0  0  0  0  0
    2.3121   -6.9029    1.4884 C   0  0  0  0  0  0  0  0  0  0  0  0
    2.8216   -6.2576    0.4824 N   0  0  0  0  0  0  0  0  0  0  0  0
    2.9115   -4.9556    0.9221 C   0  0  0  0  0  0  0  0  0  0  0  0
    3.3976   -3.7684    0.3262 C   0  0  0  0  0  0  0  0  0  0  0  0
    3.8972   -3.8052   -0.9325 N   0  0  0  0  0  0  0  0  0  0  0  0
    4.3494   -2.6039   -1.6237 C   0  0  2  0  0  0  0  0  0  0  0  0
    3.2450   -1.6018   -1.9063 C   0  0  0  0  0  0  0  0  0  0  0  0
    3.8179   -0.7943   -3.0596 C   0  0  0  0  0  0  0  0  0  0  0  0
    4.5843   -1.7192   -3.8216 O   0  0  0  0  0  0  0  0  0  0  0  0
    4.8514   -2.8901   -3.0448 C   0  0  0  0  0  0  0  0  0  0  0  0
    3.3441   -2.6282    1.0635 N   0  0  0  0  0  0  0  0  0  0  0  0
    2.7980   -2.6554    2.2838 C   0  0  0  0  0  0  0  0  0  0  0  0
    2.2917   -3.6956    2.9605 N   0  0  0  0  0  0  0  0  0  0  0  0
    2.3848   -4.8528    2.2411 C   0  0  0  0  0  0  0  0  0  0  0  0
   -0.1801   -6.5892    3.7436 C   0  0  1  0  0  0  0  0  0  0  0  0
   -0.6445   -6.8731    2.4265 O   0  0  0  0  0  0  0  0  0  0  0  0
   -0.4987   -7.7167    4.7015 C   0  0  1  0  0  0  0  0  0  0  0  0
   -1.7772   -8.2672    4.4615 O   0  0  0  0  0  0  0  0  0  0  0  0
    3.8486   -4.6548   -1.4886 H   0  0  0  0  0  0  0  0  0  0  0  0
    1.7580  -11.3145    6.0104 H   0  0  0  0  0  0  0  0  0  0  0  0
    0.0258   -9.9953    6.0714 H   0  0  0  0  0  0  0  0  0  0  0  0
    1.4255   -9.0096    6.4690 H   0  0  0  0  0  0  0  0  0  0  0  0
    0.3925   -9.3098    3.5642 H   0  0  0  0  0  0  0  0  0  0  0  0
    1.7147   -5.8826    4.6261 H   0  0  0  0  0  0  0  0  0  0  0  0
    2.1041   -7.9576    1.4363 H   0  0  0  0  0  0  0  0  0  0  0  0
    5.1468   -2.1294   -1.0452 H   0  0  0  0  0  0  0  0  0  0  0  0
    2.3340   -2.1073   -2.2288 H   0  0  0  0  0  0  0  0  0  0  0  0
    3.0119   -0.9843   -1.0408 H   0  0  0  0  0  0  0  0  0  0  0  0
    3.0368   -0.3364   -3.6630 H   0  0  0  0  0  0  0  0  0  0  0  0
    4.4658   -0.0017   -2.6857 H   0  0  0  0  0  0  0  0  0  0  0  0
    5.9100   -3.1574   -3.0641 H   0  0  0  0  0  0  0  0  0  0  0  0
    4.2842   -3.6953   -3.5081 H   0  0  0  0  0  0  0  0  0  0  0  0
    2.7804   -1.7073    2.8010 H   0  0  0  0  0  0  0  0  0  0  0  0
   -0.5737   -5.6338    4.0831 H   0  0  0  0  0  0  0  0  0  0  0  0
   -0.3452   -7.7443    2.1944 H   0  0  0  0  0  0  0  0  0  0  0  0
   -0.4338   -7.3409    5.7202 H   0  0  0  0  0  0  0  0  0  0  0  0
   -1.8254   -9.1661    4.7862 H   0  0  0  0  0  0  0  0  0  0  0  0
  1  2  1  0
  1 26  1  0
  2  3  1  0
  2 27  1  0
  2 28  1  0
  3 23  1  0
  3  4  1  0
  3 29  1  6
  4  5  1  0
  5 21  1  0
  5 30  1  1
  5  6  1  0
  6  7  1  0
  6 20  1  0
  7  8  2  0
  7 31  1  0
  8  9  1  0
  9 10  1  0
  9 20  2  0
 10 17  2  0
 10 11  1  0
 11 12  1  0
 11 25  1  0
 12 16  1  0
 12 13  1  0
 12 32  1  1
 13 14  1  0
 13 33  1  0
 13 34  1  0
 14 15  1  0
 14 35  1  0
 14 36  1  0
 15 16  1  0
 16 37  1  0
 16 38  1  0
 17 18  1  0
 18 39  1  0
 18 19  2  0
 19 20  1  0
 21 22  1  0
 21 23  1  0
 21 40  1  1
 22 41  1  0
 23 24  1  0
 23 42  1  1
 24 43  1  0
M  END
>  <i_m_ct_stereo_status>  (51) 
1

>  <s_m_source_file>  (51) 
/var/tmp/pbs.5076255.sched01/tmp3z6s85wa/08w76y650.sdf

>  <i_m_source_file_index>  (51) 
24

>  <i_lp_mmshare_version>  (51) 
48012

>  <i_f3d_flags>  (51) 
0

>  <s_epik_input>  (51) 
W09IXVtDSDJdW0NAQEhdMU9bQ0BIXShbQ0BASF0oW09IXSlbQ0BIXTFbT0hdKW4oW2NIXW4yKWMoYzIzKW5bY0hdW25IXWNcMz1OXFtDQEBIXTRbQ0gyXVtDSDJdT1tDSDJdNA==

>  <s_epik_cmdline>  (51) 
J2VwaWtfcHl0aG9uJywgJy1waHQnLCAnMi4wJywgJy1waCcsICc3LjAnLCAnLXRuJywgJzgnLCAnLW1hJywgJzIwMCcsICctaW1hZScsICc8aW5maWxlLm1hZT4nLCAnLW9tYWUnLCAnPG91dGZpbGUubWFlPic=

>  <r_lp_tautomer_probability>  (51) 
1

>  <r_epik_Ionization_Penalty>  (51) 
0.000816752

>  <r_epik_Ionization_Penalty_Charging>  (51) 
0

>  <r_epik_Ionization_Penalty_Neutral>  (51) 
0.000816752

>  <r_epik_State_Penalty>  (51) 
-0

>  <r_epik_Charging_Adjusted_Penalty>  (51) 
0

>  <i_epik_Tot_Q>  (51) 
0

>  <i_epik_Tot_abs_Q>  (51) 
0

>  <s_epik_Chemistry_Notes>  (51) 
This compound contains an acetal/aminal-like group ( X-CH(R)-Y where X, Y are N, S, or O) that may be acid/base labile, releasing an aldehyde.

>  <s_lp_Force_Field>  (51) 
OPLS3e

>  <r_lp_Energy>  (51) 
19.0954

>  <b_lp_Chiralities_Consistent>  (51) 
1

>  <s_lp_Variant>  (51) 
15:0-1

>  <s_i_glide_gridfile>  (51) 
pfpi4k_grid

>  <i_i_glide_lignum>  (51) 
24

>  <i_i_glide_rotatable_bonds>  (51) 
7

>  <r_i_docking_score>  (51) 
-4.20731

>  <r_i_glide_ligand_efficiency>  (51) 
-0.175304

>  <r_i_glide_ligand_efficiency_sa>  (51) 
-0.505666

>  <r_i_glide_ligand_efficiency_ln>  (51) 
-1.007

>  <r_i_glide_gscore>  (51) 
-4.20731

>  <r_i_glide_lipo>  (51) 
-0.244175

>  <r_i_glide_hbond>  (51) 
-0.284218

>  <r_i_glide_metal>  (51) 
-0

>  <r_i_glide_rewards>  (51) 
-1.10911

>  <r_i_glide_evdw>  (51) 
-23.4011

>  <r_i_glide_ecoul>  (51) 
-13.2907

>  <r_i_glide_erotb>  (51) 
0.664292

>  <r_i_glide_esite>  (51) 
-0.0704456

>  <r_i_glide_emodel>  (51) 
-46.5499

>  <r_i_glide_energy>  (51) 
-36.6918

>  <r_i_glide_einternal>  (51) 
2.22556

>  <r_i_glide_intrahb_reward>  (51) 
-0

>  <i_i_glide_confnum>  (51) 
2

>  <i_i_glide_posenum>  (51) 
1

>  <r_i_glide_eff_state_penalty>  (51) 
0

>  <ligand_id>  (51) 
15

>  <original_smiles>  (51) 
OCC1OC(n2cnc3c(=NC4CCOC4)[nH]cnc32)C(O)C1O

>  <smiles>  (51) 
[H]OC([H])([H])C1([H])OC([H])(n2c([H])nc3c(N([H])C4([H])C([H])([H])OC([H])([H])C4([H])[H])nc([H])nc32)C([H])(O[H])C1([H])O[H]

$$$$
15:0:1
     RDKit          3D

 43 46  0  0  1  0  0  0  0  0999 V2000
    8.6015   -2.3217   -1.1102 O   0  0  0  0  0  0  0  0  0  0  0  0
    7.5920   -3.2975   -1.2291 C   0  0  0  0  0  0  0  0  0  0  0  0
    6.2109   -2.6281   -1.1697 C   0  0  2  0  0  0  0  0  0  0  0  0
    5.8626   -2.3761    0.1947 O   0  0  0  0  0  0  0  0  0  0  0  0
    4.5187   -2.6889    0.4305 C   0  0  1  0  0  0  0  0  0  0  0  0
    3.8602   -1.5374    1.1156 N   0  0  0  0  0  0  0  0  0  0  0  0
    4.1708   -0.2060    1.0028 C   0  0  0  0  0  0  0  0  0  0  0  0
    3.4039    0.6106    1.6770 N   0  0  0  0  0  0  0  0  0  0  0  0
    2.5050   -0.2214    2.3158 C   0  0  0  0  0  0  0  0  0  0  0  0
    1.4232    0.0109    3.1998 C   0  0  0  0  0  0  0  0  0  0  0  0
    1.1310    1.2645    3.6108 N   0  0  0  0  0  0  0  0  0  0  0  0
   -0.2113    1.6343    4.0426 C   0  0  2  0  0  0  0  0  0  0  0  0
   -1.1836    1.8465    2.8939 C   0  0  0  0  0  0  0  0  0  0  0  0
   -2.2415    2.7439    3.5314 C   0  0  0  0  0  0  0  0  0  0  0  0
   -1.5451    3.5614    4.4689 O   0  0  0  0  0  0  0  0  0  0  0  0
   -0.2488    3.0135    4.7137 C   0  0  0  0  0  0  0  0  0  0  0  0
    0.7428   -1.0686    3.6624 N   0  0  0  0  0  0  0  0  0  0  0  0
    1.1244   -2.2960    3.2818 C   0  0  0  0  0  0  0  0  0  0  0  0
    2.1177   -2.6593    2.4644 N   0  0  0  0  0  0  0  0  0  0  0  0
    2.7885   -1.5732    1.9844 C   0  0  0  0  0  0  0  0  0  0  0  0
    3.8760   -2.9833   -0.9347 C   0  0  1  0  0  0  0  0  0  0  0  0
    3.3331   -1.8318   -1.5732 O   0  0  0  0  0  0  0  0  0  0  0  0
    5.0837   -3.5266   -1.6792 C   0  0  1  0  0  0  0  0  0  0  0  0
    4.9335   -3.5150   -3.0875 O   0  0  0  0  0  0  0  0  0  0  0  0
    1.7527    2.0347    3.4010 H   0  0  0  0  0  0  0  0  0  0  0  0
    9.4110   -2.6416   -1.5080 H   0  0  0  0  0  0  0  0  0  0  0  0
    7.7292   -3.7712   -2.1996 H   0  0  0  0  0  0  0  0  0  0  0  0
    7.6964   -4.0683   -0.4636 H   0  0  0  0  0  0  0  0  0  0  0  0
    6.1980   -1.6926   -1.7297 H   0  0  0  0  0  0  0  0  0  0  0  0
    4.4701   -3.5201    1.1384 H   0  0  0  0  0  0  0  0  0  0  0  0
    4.9738    0.1353    0.3731 H   0  0  0  0  0  0  0  0  0  0  0  0
   -0.6151    0.8923    4.7363 H   0  0  0  0  0  0  0  0  0  0  0  0
   -0.7086    2.3827    2.0694 H   0  0  0  0  0  0  0  0  0  0  0  0
   -1.6038    0.9166    2.5065 H   0  0  0  0  0  0  0  0  0  0  0  0
   -2.7736    3.3523    2.8008 H   0  0  0  0  0  0  0  0  0  0  0  0
   -2.9707    2.1449    4.0759 H   0  0  0  0  0  0  0  0  0  0  0  0
   -0.0383    2.9492    5.7841 H   0  0  0  0  0  0  0  0  0  0  0  0
    0.4786    3.6944    4.2632 H   0  0  0  0  0  0  0  0  0  0  0  0
    0.5611   -3.1099    3.7123 H   0  0  0  0  0  0  0  0  0  0  0  0
    3.0907   -3.7249   -0.8160 H   0  0  0  0  0  0  0  0  0  0  0  0
    2.5299   -1.5497   -1.1343 H   0  0  0  0  0  0  0  0  0  0  0  0
    5.2677   -4.5505   -1.3610 H   0  0  0  0  0  0  0  0  0  0  0  0
    4.1850   -4.0581   -3.2946 H   0  0  0  0  0  0  0  0  0  0  0  0
  1  2  1  0
  1 26  1  0
  2  3  1  0
  2 27  1  0
  2 28  1  0
  3 23  1  0
  3  4  1  0
  3 29  1  6
  4  5  1  0
  5 21  1  0
  5 30  1  1
  5  6  1  0
  6  7  1  0
  6 20  1  0
  7  8  2  0
  7 31  1  0
  8  9  1  0
  9 10  1  0
  9 20  2  0
 10 17  2  0
 10 11  1  0
 11 12  1  0
 11 25  1  0
 12 16  1  0
 12 13  1  0
 12 32  1  1
 13 14  1  0
 13 33  1  0
 13 34  1  0
 14 15  1  0
 14 35  1  0
 14 36  1  0
 15 16  1  0
 16 37  1  0
 16 38  1  0
 17 18  1  0
 18 39  1  0
 18 19  2  0
 19 20  1  0
 21 22  1  0
 21 23  1  0
 21 40  1  1
 22 41  1  0
 23 24  1  0
 23 42  1  1
 24 43  1  0
M  END
>  <i_m_ct_stereo_status>  (52) 
1

>  <s_m_source_file>  (52) 
/var/tmp/pbs.5076255.sched01/tmp3z6s85wa/08w76y650.sdf

>  <i_m_source_file_index>  (52) 
24

>  <i_lp_mmshare_version>  (52) 
48012

>  <i_f3d_flags>  (52) 
0

>  <s_epik_input>  (52) 
W09IXVtDSDJdW0NAQEhdMU9bQ0BIXShbQ0BASF0oW09IXSlbQ0BIXTFbT0hdKW4oW2NIXW4yKWMoYzIzKW5bY0hdW25IXWNcMz1OXFtDQEBIXTRbQ0gyXVtDSDJdT1tDSDJdNA==

>  <s_epik_cmdline>  (52) 
J2VwaWtfcHl0aG9uJywgJy1waHQnLCAnMi4wJywgJy1waCcsICc3LjAnLCAnLXRuJywgJzgnLCAnLW1hJywgJzIwMCcsICctaW1hZScsICc8aW5maWxlLm1hZT4nLCAnLW9tYWUnLCAnPG91dGZpbGUubWFlPic=

>  <r_lp_tautomer_probability>  (52) 
1

>  <r_epik_Ionization_Penalty>  (52) 
0.000816752

>  <r_epik_Ionization_Penalty_Charging>  (52) 
0

>  <r_epik_Ionization_Penalty_Neutral>  (52) 
0.000816752

>  <r_epik_State_Penalty>  (52) 
-0

>  <r_epik_Charging_Adjusted_Penalty>  (52) 
0

>  <i_epik_Tot_Q>  (52) 
0

>  <i_epik_Tot_abs_Q>  (52) 
0

>  <s_epik_Chemistry_Notes>  (52) 
This compound contains an acetal/aminal-like group ( X-CH(R)-Y where X, Y are N, S, or O) that may be acid/base labile, releasing an aldehyde.

>  <s_lp_Force_Field>  (52) 
OPLS3e

>  <r_lp_Energy>  (52) 
19.0954

>  <b_lp_Chiralities_Consistent>  (52) 
1

>  <s_lp_Variant>  (52) 
15:0-1

>  <s_i_glide_gridfile>  (52) 
pfpi4k_grid

>  <i_i_glide_lignum>  (52) 
24

>  <i_i_glide_rotatable_bonds>  (52) 
7

>  <r_i_docking_score>  (52) 
-3.85859

>  <r_i_glide_ligand_efficiency>  (52) 
-0.160775

>  <r_i_glide_ligand_efficiency_sa>  (52) 
-0.463755

>  <r_i_glide_ligand_efficiency_ln>  (52) 
-0.923539

>  <r_i_glide_gscore>  (52) 
-3.85859

>  <r_i_glide_lipo>  (52) 
-0.0928739

>  <r_i_glide_hbond>  (52) 
0

>  <r_i_glide_metal>  (52) 
-0

>  <r_i_glide_rewards>  (52) 
-1.33242

>  <r_i_glide_evdw>  (52) 
-23.8508

>  <r_i_glide_ecoul>  (52) 
-10.966

>  <r_i_glide_erotb>  (52) 
0.465005

>  <r_i_glide_esite>  (52) 
-0.0608715

>  <r_i_glide_emodel>  (52) 
-43.1282

>  <r_i_glide_energy>  (52) 
-34.8167

>  <r_i_glide_einternal>  (52) 
3.26523

>  <r_i_glide_intrahb_reward>  (52) 
-0

>  <i_i_glide_confnum>  (52) 
2

>  <i_i_glide_posenum>  (52) 
19

>  <r_i_glide_eff_state_penalty>  (52) 
0

>  <ligand_id>  (52) 
15

>  <original_smiles>  (52) 
OCC1OC(n2cnc3c(=NC4CCOC4)[nH]cnc32)C(O)C1O

>  <smiles>  (52) 
[H]OC([H])([H])C1([H])OC([H])(n2c([H])nc3c(N([H])C4([H])C([H])([H])OC([H])([H])C4([H])[H])nc([H])nc32)C([H])(O[H])C1([H])O[H]

$$$$
15:0:2
     RDKit          3D

 43 46  0  0  1  0  0  0  0  0999 V2000
    3.8406   -3.4551   -3.7727 O   0  0  0  0  0  0  0  0  0  0  0  0
    2.8524   -3.1600   -2.8076 C   0  0  0  0  0  0  0  0  0  0  0  0
    3.4461   -3.3154   -1.4014 C   0  0  2  0  0  0  0  0  0  0  0  0
    2.4084   -3.2257   -0.4312 O   0  0  0  0  0  0  0  0  0  0  0  0
    2.8449   -2.5022    0.6844 C   0  0  1  0  0  0  0  0  0  0  0  0
    2.6078   -3.2738    1.9465 N   0  0  0  0  0  0  0  0  0  0  0  0
    2.7816   -2.8114    3.2358 C   0  0  0  0  0  0  0  0  0  0  0  0
    2.5426   -3.6821    4.1831 N   0  0  0  0  0  0  0  0  0  0  0  0
    2.1970   -4.8329    3.4940 C   0  0  0  0  0  0  0  0  0  0  0  0
    1.8412   -6.1380    3.9005 C   0  0  0  0  0  0  0  0  0  0  0  0
    1.7664   -6.4445    5.2143 N   0  0  0  0  0  0  0  0  0  0  0  0
    1.4699   -7.7966    5.6728 C   0  0  2  0  0  0  0  0  0  0  0  0
    0.0547   -8.2473    5.3555 C   0  0  0  0  0  0  0  0  0  0  0  0
   -0.1795   -9.3313    6.3977 C   0  0  0  0  0  0  0  0  0  0  0  0
    0.5192   -8.8957    7.5587 O   0  0  0  0  0  0  0  0  0  0  0  0
    1.4818   -7.9014    7.2024 C   0  0  0  0  0  0  0  0  0  0  0  0
    1.5582   -7.0511    2.9352 N   0  0  0  0  0  0  0  0  0  0  0  0
    1.6030   -6.6939    1.6486 C   0  0  0  0  0  0  0  0  0  0  0  0
    1.9072   -5.5065    1.1300 N   0  0  0  0  0  0  0  0  0  0  0  0
    2.2184   -4.5883    2.0940 C   0  0  0  0  0  0  0  0  0  0  0  0
    4.3402   -2.2297    0.4929 C   0  0  1  0  0  0  0  0  0  0  0  0
    5.1537   -3.2575    1.0406 O   0  0  0  0  0  0  0  0  0  0  0  0
    4.4267   -2.2044   -1.0177 C   0  0  1  0  0  0  0  0  0  0  0  0
    5.7437   -2.4137   -1.5040 O   0  0  0  0  0  0  0  0  0  0  0  0
    1.9194   -5.7460    5.9295 H   0  0  0  0  0  0  0  0  0  0  0  0
    4.0600   -4.3752   -3.6575 H   0  0  0  0  0  0  0  0  0  0  0  0
    2.4582   -2.1536   -2.9553 H   0  0  0  0  0  0  0  0  0  0  0  0
    2.0173   -3.8489   -2.9444 H   0  0  0  0  0  0  0  0  0  0  0  0
    3.9150   -4.2922   -1.2751 H   0  0  0  0  0  0  0  0  0  0  0  0
    2.2351   -1.6086    0.7934 H   0  0  0  0  0  0  0  0  0  0  0  0
    3.1185   -1.8061    3.4569 H   0  0  0  0  0  0  0  0  0  0  0  0
    2.1924   -8.5043    5.2541 H   0  0  0  0  0  0  0  0  0  0  0  0
   -0.6422   -7.4205    5.5030 H   0  0  0  0  0  0  0  0  0  0  0  0
   -0.0603   -8.6274    4.3386 H   0  0  0  0  0  0  0  0  0  0  0  0
   -1.2360   -9.4590    6.6164 H   0  0  0  0  0  0  0  0  0  0  0  0
    0.2306  -10.2832    6.0572 H   0  0  0  0  0  0  0  0  0  0  0  0
    2.4764   -8.1337    7.5923 H   0  0  0  0  0  0  0  0  0  0  0  0
    1.1430   -6.9723    7.6635 H   0  0  0  0  0  0  0  0  0  0  0  0
    1.3500   -7.4682    0.9415 H   0  0  0  0  0  0  0  0  0  0  0  0
    4.5986   -1.2793    0.9555 H   0  0  0  0  0  0  0  0  0  0  0  0
    4.8305   -4.0896    0.7208 H   0  0  0  0  0  0  0  0  0  0  0  0
    4.0529   -1.2477   -1.3786 H   0  0  0  0  0  0  0  0  0  0  0  0
    5.6717   -2.7348   -2.3921 H   0  0  0  0  0  0  0  0  0  0  0  0
  1  2  1  0
  1 26  1  0
  2  3  1  0
  2 27  1  0
  2 28  1  0
  3 23  1  0
  3  4  1  0
  3 29  1  6
  4  5  1  0
  5 21  1  0
  5 30  1  1
  5  6  1  0
  6  7  1  0
  6 20  1  0
  7  8  2  0
  7 31  1  0
  8  9  1  0
  9 10  1  0
  9 20  2  0
 10 17  2  0
 10 11  1  0
 11 12  1  0
 11 25  1  0
 12 16  1  0
 12 13  1  0
 12 32  1  6
 13 14  1  0
 13 33  1  0
 13 34  1  0
 14 15  1  0
 14 35  1  0
 14 36  1  0
 15 16  1  0
 16 37  1  0
 16 38  1  0
 17 18  1  0
 18 39  1  0
 18 19  2  0
 19 20  1  0
 21 22  1  0
 21 23  1  0
 21 40  1  1
 22 41  1  0
 23 24  1  0
 23 42  1  6
 24 43  1  0
M  END
>  <i_m_ct_stereo_status>  (53) 
1

>  <s_m_source_file>  (53) 
/var/tmp/pbs.5076255.sched01/tmp3z6s85wa/08w76y650.sdf

>  <i_m_source_file_index>  (53) 
24

>  <i_lp_mmshare_version>  (53) 
48012

>  <i_f3d_flags>  (53) 
0

>  <s_epik_input>  (53) 
W09IXVtDSDJdW0NAQEhdMU9bQ0BIXShbQ0BASF0oW09IXSlbQ0BIXTFbT0hdKW4oW2NIXW4yKWMoYzIzKW5bY0hdW25IXWNcMz1OXFtDQEBIXTRbQ0gyXVtDSDJdT1tDSDJdNA==

>  <s_epik_cmdline>  (53) 
J2VwaWtfcHl0aG9uJywgJy1waHQnLCAnMi4wJywgJy1waCcsICc3LjAnLCAnLXRuJywgJzgnLCAnLW1hJywgJzIwMCcsICctaW1hZScsICc8aW5maWxlLm1hZT4nLCAnLW9tYWUnLCAnPG91dGZpbGUubWFlPic=

>  <r_lp_tautomer_probability>  (53) 
1

>  <r_epik_Ionization_Penalty>  (53) 
0.000816752

>  <r_epik_Ionization_Penalty_Charging>  (53) 
0

>  <r_epik_Ionization_Penalty_Neutral>  (53) 
0.000816752

>  <r_epik_State_Penalty>  (53) 
-0

>  <r_epik_Charging_Adjusted_Penalty>  (53) 
0

>  <i_epik_Tot_Q>  (53) 
0

>  <i_epik_Tot_abs_Q>  (53) 
0

>  <s_epik_Chemistry_Notes>  (53) 
This compound contains an acetal/aminal-like group ( X-CH(R)-Y where X, Y are N, S, or O) that may be acid/base labile, releasing an aldehyde.

>  <s_lp_Force_Field>  (53) 
OPLS3e

>  <r_lp_Energy>  (53) 
19.0954

>  <b_lp_Chiralities_Consistent>  (53) 
1

>  <s_lp_Variant>  (53) 
15:0-1

>  <s_i_glide_gridfile>  (53) 
pfpi4k_grid

>  <i_i_glide_lignum>  (53) 
24

>  <i_i_glide_rotatable_bonds>  (53) 
7

>  <r_i_docking_score>  (53) 
-3.4691

>  <r_i_glide_ligand_efficiency>  (53) 
-0.144546

>  <r_i_glide_ligand_efficiency_sa>  (53) 
-0.416943

>  <r_i_glide_ligand_efficiency_ln>  (53) 
-0.830316

>  <r_i_glide_gscore>  (53) 
-3.4691

>  <r_i_glide_lipo>  (53) 
-0.0592403

>  <r_i_glide_hbond>  (53) 
-0.0630803

>  <r_i_glide_metal>  (53) 
-0

>  <r_i_glide_rewards>  (53) 
-1.60911

>  <r_i_glide_evdw>  (53) 
-22.3807

>  <r_i_glide_ecoul>  (53) 
-7.78137

>  <r_i_glide_erotb>  (53) 
0.664292

>  <r_i_glide_esite>  (53) 
-0.115732

>  <r_i_glide_emodel>  (53) 
-43.0849

>  <r_i_glide_energy>  (53) 
-30.162

>  <r_i_glide_einternal>  (53) 
2.08004

>  <r_i_glide_intrahb_reward>  (53) 
-0.5

>  <i_i_glide_confnum>  (53) 
4

>  <i_i_glide_posenum>  (53) 
4

>  <r_i_glide_eff_state_penalty>  (53) 
0

>  <ligand_id>  (53) 
15

>  <original_smiles>  (53) 
OCC1OC(n2cnc3c(=NC4CCOC4)[nH]cnc32)C(O)C1O

>  <smiles>  (53) 
[H]OC([H])([H])C1([H])OC([H])(n2c([H])nc3c(N([H])C4([H])C([H])([H])OC([H])([H])C4([H])[H])nc([H])nc32)C([H])(O[H])C1([H])O[H]

$$$$
16:0:0
     RDKit          3D

 81 85  0  0  1  0  0  0  0  0999 V2000
    0.4658   -8.8808    6.0755 C   0  0  0  0  0  0  0  0  0  0  0  0
    0.5354   -9.6371    4.7355 C   0  0  2  0  0  0  0  0  0  0  0  0
    1.2673  -10.9738    4.8391 C   0  0  0  0  0  0  0  0  0  0  0  0
    2.7484  -10.7294    5.1435 C   0  0  0  0  0  0  0  0  0  0  0  0
    3.4574   -9.8430    4.0875 C   0  0  2  0  0  0  0  0  0  0  0  0
    3.7370  -10.7210    2.8555 C   0  0  0  0  0  0  0  0  0  0  0  0
    4.8040   -9.4121    4.6979 C   0  0  0  0  0  0  0  0  0  0  0  0
    5.5468   -8.4210    3.8058 C   0  0  0  0  0  0  0  0  0  0  0  0
    4.7443   -7.1165    3.5097 C   0  0  2  0  0  0  0  0  0  0  0  0
    4.9304   -6.2347    4.7797 C   0  0  0  0  0  0  0  0  0  0  0  0
    3.2209   -7.3853    3.4233 C   0  0  0  0  0  0  0  0  0  0  0  0
    2.6485   -8.5881    3.6706 C   0  0  0  0  0  0  0  0  0  0  0  0
    1.1190   -8.7760    3.6134 C   0  0  1  0  0  0  0  0  0  0  0  0
    0.6766   -9.2650    2.2384 C   0  0  0  0  0  0  0  0  0  0  0  0
    2.4054   -6.1343    3.0520 C   0  0  0  0  0  0  0  0  0  0  0  0
    2.9967   -5.3283    1.8989 C   0  0  0  0  0  0  0  0  0  0  0  0
    2.2569   -4.9149    1.0144 O   0  0  0  0  0  0  0  0  0  0  0  0
    4.5178   -5.0460    1.9433 C   0  0  2  0  0  0  0  0  0  0  0  0
    5.1043   -3.9327    0.9485 C   0  0  2  0  0  0  0  0  0  0  0  0
    4.4604   -2.5968    1.4331 C   0  0  0  0  0  0  0  0  0  0  0  0
    4.7554   -4.1469   -0.5705 C   0  0  0  0  0  0  0  0  0  0  0  0
    5.4539   -3.2172   -1.5863 C   0  0  1  0  0  0  0  0  0  0  0  0
    4.8046   -1.9713   -1.7087 O   0  0  0  0  0  0  0  0  0  0  0  0
    6.9563   -3.0701   -1.2726 C   0  0  1  0  0  0  0  0  0  0  0  0
    7.6215   -2.2561   -2.1662 O   0  0  0  0  0  0  0  0  0  0  0  0
    7.4128   -2.8264    0.1621 C   0  0  0  0  0  0  0  0  0  0  0  0
    8.9613   -3.0307    0.2237 C   0  0  0  0  0  0  0  0  0  0  0  0
    7.1880   -1.3465    0.5295 C   0  0  0  0  0  0  0  0  0  0  0  0
    6.6697   -3.8400    1.1018 C   0  0  2  0  0  0  0  0  0  0  0  0
    7.3052   -5.2556    1.1046 C   0  0  0  0  0  0  0  0  0  0  0  0
    6.7749   -6.1205    2.2492 C   0  0  0  0  0  0  0  0  0  0  0  0
    5.2592   -6.4140    2.1660 C   0  0  1  0  0  0  0  0  0  0  0  0
    5.0070   -7.3809    0.9679 C   0  0  0  0  0  0  0  0  0  0  0  0
    1.4406   -8.5065    6.3857 H   0  0  0  0  0  0  0  0  0  0  0  0
    0.0799   -9.5211    6.8689 H   0  0  0  0  0  0  0  0  0  0  0  0
   -0.1999   -8.0203    5.9967 H   0  0  0  0  0  0  0  0  0  0  0  0
   -0.5012   -9.8415    4.4661 H   0  0  0  0  0  0  0  0  0  0  0  0
    0.7982  -11.5770    5.6097 H   0  0  0  0  0  0  0  0  0  0  0  0
    1.1530  -11.5593    3.9263 H   0  0  0  0  0  0  0  0  0  0  0  0
    2.8360  -10.2807    6.1314 H   0  0  0  0  0  0  0  0  0  0  0  0
    3.2591  -11.6893    5.2309 H   0  0  0  0  0  0  0  0  0  0  0  0
    4.5203  -11.4584    3.0413 H   0  0  0  0  0  0  0  0  0  0  0  0
    4.0479  -10.1251    1.9963 H   0  0  0  0  0  0  0  0  0  0  0  0
    2.8645  -11.2864    2.5319 H   0  0  0  0  0  0  0  0  0  0  0  0
    4.6402   -8.9695    5.6781 H   0  0  0  0  0  0  0  0  0  0  0  0
    5.4289  -10.2873    4.8729 H   0  0  0  0  0  0  0  0  0  0  0  0
    6.4992   -8.1734    4.2776 H   0  0  0  0  0  0  0  0  0  0  0  0
    5.8307   -8.9634    2.9108 H   0  0  0  0  0  0  0  0  0  0  0  0
    5.9770   -6.0266    5.0048 H   0  0  0  0  0  0  0  0  0  0  0  0
    4.5272   -6.7422    5.6571 H   0  0  0  0  0  0  0  0  0  0  0  0
    4.4034   -5.2825    4.7446 H   0  0  0  0  0  0  0  0  0  0  0  0
    0.6171   -7.8263    3.7528 H   0  0  0  0  0  0  0  0  0  0  0  0
    1.0444   -8.6044    1.4509 H   0  0  0  0  0  0  0  0  0  0  0  0
   -0.4136   -9.3003    2.1532 H   0  0  0  0  0  0  0  0  0  0  0  0
    1.0319  -10.2689    2.0071 H   0  0  0  0  0  0  0  0  0  0  0  0
    1.3986   -6.3808    2.7206 H   0  0  0  0  0  0  0  0  0  0  0  0
    2.3126   -5.4886    3.9233 H   0  0  0  0  0  0  0  0  0  0  0  0
    4.6361   -4.5332    2.8893 H   0  0  0  0  0  0  0  0  0  0  0  0
    4.6106   -1.7542    0.7735 H   0  0  0  0  0  0  0  0  0  0  0  0
    4.8529   -2.2935    2.4050 H   0  0  0  0  0  0  0  0  0  0  0  0
    3.3794   -2.6599    1.5354 H   0  0  0  0  0  0  0  0  0  0  0  0
    5.0648   -5.1416   -0.8599 H   0  0  0  0  0  0  0  0  0  0  0  0
    3.6807   -4.1032   -0.7587 H   0  0  0  0  0  0  0  0  0  0  0  0
    5.3634   -3.6825   -2.5711 H   0  0  0  0  0  0  0  0  0  0  0  0
    4.6488   -1.6393   -0.8322 H   0  0  0  0  0  0  0  0  0  0  0  0
    7.4373   -3.9814   -1.4919 H   0  0  0  0  0  0  0  0  0  0  0  0
    7.8866   -2.7365   -2.9487 H   0  0  0  0  0  0  0  0  0  0  0  0
    9.3348   -3.0364    1.2470 H   0  0  0  0  0  0  0  0  0  0  0  0
    9.4994   -2.2507   -0.3155 H   0  0  0  0  0  0  0  0  0  0  0  0
    9.2840   -3.9580   -0.2476 H   0  0  0  0  0  0  0  0  0  0  0  0
    7.0257   -1.2163    1.5991 H   0  0  0  0  0  0  0  0  0  0  0  0
    6.3516   -0.8980   -0.0046 H   0  0  0  0  0  0  0  0  0  0  0  0
    8.0496   -0.7285    0.2611 H   0  0  0  0  0  0  0  0  0  0  0  0
    6.8665   -3.4495    2.0780 H   0  0  0  0  0  0  0  0  0  0  0  0
    7.1663   -5.7588    0.1453 H   0  0  0  0  0  0  0  0  0  0  0  0
    8.3823   -5.2226    1.2705 H   0  0  0  0  0  0  0  0  0  0  0  0
    7.3408   -7.0535    2.2745 H   0  0  0  0  0  0  0  0  0  0  0  0
    7.0115   -5.5963    3.1741 H   0  0  0  0  0  0  0  0  0  0  0  0
    5.2857   -6.9270    0.0353 H   0  0  0  0  0  0  0  0  0  0  0  0
    3.9676   -7.6892    0.8586 H   0  0  0  0  0  0  0  0  0  0  0  0
    5.6061   -8.2880    1.0053 H   0  0  0  0  0  0  0  0  0  0  0  0
  1  2  1  0
  1 34  1  0
  1 35  1  0
  1 36  1  0
  2 13  1  0
  2  3  1  0
  2 37  1  6
  3  4  1  0
  3 38  1  0
  3 39  1  0
  4  5  1  0
  4 40  1  0
  4 41  1  0
  5 12  1  0
  5  6  1  6
  5  7  1  0
  6 42  1  0
  6 43  1  0
  6 44  1  0
  7  8  1  0
  7 45  1  0
  7 46  1  0
  8  9  1  0
  8 47  1  0
  8 48  1  0
  9 32  1  0
  9 10  1  1
  9 11  1  0
 10 49  1  0
 10 50  1  0
 10 51  1  0
 11 12  2  0
 11 15  1  0
 12 13  1  0
 13 14  1  0
 13 52  1  1
 14 53  1  0
 14 54  1  0
 14 55  1  0
 15 16  1  0
 15 56  1  0
 15 57  1  0
 16 17  2  0
 16 18  1  0
 18 32  1  0
 18 19  1  0
 18 58  1  1
 19 29  1  0
 19 20  1  1
 19 21  1  0
 20 59  1  0
 20 60  1  0
 20 61  1  0
 21 22  1  0
 21 62  1  0
 21 63  1  0
 22 23  1  0
 22 24  1  0
 22 64  1  6
 23 65  1  0
 24 25  1  0
 24 26  1  0
 24 66  1  6
 25 67  1  0
 26 27  1  0
 26 28  1  0
 26 29  1  0
 27 68  1  0
 27 69  1  0
 27 70  1  0
 28 71  1  0
 28 72  1  0
 28 73  1  0
 29 30  1  0
 29 74  1  1
 30 31  1  0
 30 75  1  0
 30 76  1  0
 31 32  1  0
 31 77  1  0
 31 78  1  0
 32 33  1  6
 33 79  1  0
 33 80  1  0
 33 81  1  0
M  END
>  <i_m_ct_stereo_status>  (54) 
1

>  <s_m_source_file>  (54) 
/var/tmp/pbs.5076255.sched01/tmp3z6s85wa/08w76y650.sdf

>  <i_m_source_file_index>  (54) 
25

>  <i_lp_mmshare_version>  (54) 
48012

>  <i_f3d_flags>  (54) 
0

>  <s_epik_input>  (54) 
W0NIMl0xW0NIMl1bQ0BASF0oW0NIM10pW0NASF0oW0NIM10pQyhbQ0BdMTJbQ0gzXSk9QzNbQ0BAXShbQ0gzXSkoW0NIMl1bQ0gyXTIpW0NAQF00KFtDSDNdKVtDQEhdKEMoPU8pW0NIMl0zKVtDQEBdNShbQ0gzXSlbQ0BASF0oW0NIMl1bQ0gyXTQpQyhbQ0gzXSkoW0NIM10pW0NASF0oW09IXSlbQ0BASF0oW0NIMl01KVtPSF0=

>  <s_epik_cmdline>  (54) 
J2VwaWtfcHl0aG9uJywgJy1waHQnLCAnMi4wJywgJy1waCcsICc3LjAnLCAnLXRuJywgJzgnLCAnLW1hJywgJzIwMCcsICctaW1hZScsICc8aW5maWxlLm1hZT4nLCAnLW9tYWUnLCAnPG91dGZpbGUubWFlPic=

>  <r_lp_tautomer_probability>  (54) 
1

>  <r_epik_Ionization_Penalty>  (54) 
1.08567e-06

>  <r_epik_Ionization_Penalty_Charging>  (54) 
0

>  <r_epik_Ionization_Penalty_Neutral>  (54) 
1.08567e-06

>  <r_epik_State_Penalty>  (54) 
-0

>  <r_epik_Charging_Adjusted_Penalty>  (54) 
0

>  <i_epik_Tot_Q>  (54) 
0

>  <i_epik_Tot_abs_Q>  (54) 
0

>  <s_lp_Force_Field>  (54) 
OPLS3e

>  <r_lp_Energy>  (54) 
94.8742

>  <b_lp_Chiralities_Consistent>  (54) 
1

>  <s_lp_Variant>  (54) 
16:0-1

>  <s_i_glide_gridfile>  (54) 
pfpi4k_grid

>  <i_i_glide_lignum>  (54) 
25

>  <i_i_glide_rotatable_bonds>  (54) 
2

>  <r_i_docking_score>  (54) 
-3.35039

>  <r_i_glide_ligand_efficiency>  (54) 
-0.101527

>  <r_i_glide_ligand_efficiency_sa>  (54) 
-0.325651

>  <r_i_glide_ligand_efficiency_ln>  (54) 
-0.745109

>  <r_i_glide_gscore>  (54) 
-3.35039

>  <r_i_glide_lipo>  (54) 
-0.696172

>  <r_i_glide_hbond>  (54) 
-0.0118751

>  <r_i_glide_metal>  (54) 
-0

>  <r_i_glide_rewards>  (54) 
-0.295225

>  <r_i_glide_evdw>  (54) 
-20.7058

>  <r_i_glide_ecoul>  (54) 
-8.72568

>  <r_i_glide_erotb>  (54) 
0

>  <r_i_glide_esite>  (54) 
-0.00297361

>  <r_i_glide_emodel>  (54) 
-35.5733

>  <r_i_glide_energy>  (54) 
-29.4315

>  <r_i_glide_einternal>  (54) 
1.38451

>  <r_i_glide_intrahb_reward>  (54) 
-0

>  <i_i_glide_confnum>  (54) 
1

>  <i_i_glide_posenum>  (54) 
15

>  <r_i_glide_eff_state_penalty>  (54) 
0

>  <ligand_id>  (54) 
16

>  <original_smiles>  (54) 
CC1CCC2(C)CCC3(C)C(=C2C1C)CC(=O)C1C2(C)CC(O)C(O)C(C)(C)C2CCC13C

>  <smiles>  (54) 
[H]OC1([H])C([H])([H])C2(C([H])([H])[H])C3([H])C(=O)C([H])([H])C4=C5C([H])(C([H])([H])[H])C([H])(C([H])([H])[H])C([H])([H])C([H])([H])C5(C([H])([H])[H])C([H])([H])C([H])([H])C4(C([H])([H])[H])C3(C([H])([H])[H])C([H])([H])C([H])([H])C2([H])C(C([H])([H])[H])(C([H])([H])[H])C1([H])O[H]

$$$$
16:0:1
     RDKit          3D

 81 85  0  0  1  0  0  0  0  0999 V2000
    0.8788   -9.8520    6.0318 C   0  0  0  0  0  0  0  0  0  0  0  0
    1.3842  -10.5721    4.7615 C   0  0  2  0  0  0  0  0  0  0  0  0
    2.5902  -11.4993    4.9529 C   0  0  0  0  0  0  0  0  0  0  0  0
    3.8118  -10.7062    5.3961 C   0  0  0  0  0  0  0  0  0  0  0  0
    4.2236   -9.6332    4.3634 C   0  0  2  0  0  0  0  0  0  0  0  0
    4.9380  -10.3455    3.1918 C   0  0  0  0  0  0  0  0  0  0  0  0
    5.2249   -8.7155    5.0845 C   0  0  0  0  0  0  0  0  0  0  0  0
    5.6124   -7.5168    4.2263 C   0  0  0  0  0  0  0  0  0  0  0  0
    4.4015   -6.6303    3.8082 C   0  0  2  0  0  0  0  0  0  0  0  0
    4.1108   -5.7362    5.0481 C   0  0  0  0  0  0  0  0  0  0  0  0
    3.1154   -7.4570    3.5990 C   0  0  0  0  0  0  0  0  0  0  0  0
    3.0247   -8.7951    3.8470 C   0  0  0  0  0  0  0  0  0  0  0  0
    1.6926   -9.5468    3.6654 C   0  0  1  0  0  0  0  0  0  0  0  0
    1.6217  -10.1856    2.2937 C   0  0  0  0  0  0  0  0  0  0  0  0
    1.9197   -6.6251    3.1105 C   0  0  0  0  0  0  0  0  0  0  0  0
    2.2728   -5.6749    1.9726 C   0  0  0  0  0  0  0  0  0  0  0  0
    1.5346   -5.6177    0.9906 O   0  0  0  0  0  0  0  0  0  0  0  0
    3.5466   -4.8181    2.1440 C   0  0  2  0  0  0  0  0  0  0  0  0
    3.7626   -3.5647    1.1598 C   0  0  2  0  0  0  0  0  0  0  0  0
    2.6307   -2.5758    1.5431 C   0  0  0  0  0  0  0  0  0  0  0  0
    3.6779   -3.8999   -0.3707 C   0  0  0  0  0  0  0  0  0  0  0  0
    4.1215   -2.8098   -1.3690 C   0  0  1  0  0  0  0  0  0  0  0  0
    3.1460   -1.8333   -1.6579 O   0  0  0  0  0  0  0  0  0  0  0  0
    5.4509   -2.1531   -0.9811 C   0  0  1  0  0  0  0  0  0  0  0  0
    5.6773   -1.0676   -1.8541 O   0  0  0  0  0  0  0  0  0  0  0  0
    5.5461   -1.6862    0.4932 C   0  0  0  0  0  0  0  0  0  0  0  0
    7.0123   -1.2560    0.7177 C   0  0  0  0  0  0  0  0  0  0  0  0
    4.7350   -0.3915    0.7954 C   0  0  0  0  0  0  0  0  0  0  0  0
    5.1525   -2.8747    1.4585 C   0  0  2  0  0  0  0  0  0  0  0  0
    6.2592   -3.9481    1.5529 C   0  0  0  0  0  0  0  0  0  0  0  0
    5.9984   -4.9442    2.6850 C   0  0  0  0  0  0  0  0  0  0  0  0
    4.7308   -5.7981    2.4751 C   0  0  1  0  0  0  0  0  0  0  0  0
    5.0063   -6.7874    1.2951 C   0  0  0  0  0  0  0  0  0  0  0  0
    1.6101   -9.1401    6.4253 H   0  0  0  0  0  0  0  0  0  0  0  0
    0.6321  -10.5637    6.8082 H   0  0  0  0  0  0  0  0  0  0  0  0
   -0.0477   -9.3044    5.8385 H   0  0  0  0  0  0  0  0  0  0  0  0
    0.5586  -11.2024    4.4359 H   0  0  0  0  0  0  0  0  0  0  0  0
    2.3699  -12.2727    5.6789 H   0  0  0  0  0  0  0  0  0  0  0  0
    2.7965  -12.0772    4.0505 H   0  0  0  0  0  0  0  0  0  0  0  0
    3.6117  -10.2498    6.3668 H   0  0  0  0  0  0  0  0  0  0  0  0
    4.6424  -11.3920    5.5708 H   0  0  0  0  0  0  0  0  0  0  0  0
    5.9128  -10.7267    3.4949 H   0  0  0  0  0  0  0  0  0  0  0  0
    5.0810   -9.6824    2.3413 H   0  0  0  0  0  0  0  0  0  0  0  0
    4.3873  -11.2082    2.8266 H   0  0  0  0  0  0  0  0  0  0  0  0
    4.8008   -8.3657    6.0246 H   0  0  0  0  0  0  0  0  0  0  0  0
    6.1180   -9.2791    5.3544 H   0  0  0  0  0  0  0  0  0  0  0  0
    6.3415   -6.9140    4.7703 H   0  0  0  0  0  0  0  0  0  0  0  0
    6.1679   -7.9107    3.3810 H   0  0  0  0  0  0  0  0  0  0  0  0
    4.9678   -5.1421    5.3536 H   0  0  0  0  0  0  0  0  0  0  0  0
    3.8518   -6.3550    5.9044 H   0  0  0  0  0  0  0  0  0  0  0  0
    3.2641   -5.0629    4.9291 H   0  0  0  0  0  0  0  0  0  0  0  0
    0.8491   -8.8641    3.7216 H   0  0  0  0  0  0  0  0  0  0  0  0
    1.8004   -9.4554    1.5024 H   0  0  0  0  0  0  0  0  0  0  0  0
    0.6407  -10.6335    2.1251 H   0  0  0  0  0  0  0  0  0  0  0  0
    2.3631  -10.9726    2.1831 H   0  0  0  0  0  0  0  0  0  0  0  0
    1.1317   -7.2487    2.7013 H   0  0  0  0  0  0  0  0  0  0  0  0
    1.4897   -6.0674    3.9416 H   0  0  0  0  0  0  0  0  0  0  0  0
    3.3730   -4.2992    3.0826 H   0  0  0  0  0  0  0  0  0  0  0  0
    2.4993   -1.7616    0.8437 H   0  0  0  0  0  0  0  0  0  0  0  0
    2.7926   -2.1302    2.5266 H   0  0  0  0  0  0  0  0  0  0  0  0
    1.6674   -3.0626    1.5919 H   0  0  0  0  0  0  0  0  0  0  0  0
    4.3404   -4.7295   -0.5738 H   0  0  0  0  0  0  0  0  0  0  0  0
    2.6935   -4.2541   -0.6574 H   0  0  0  0  0  0  0  0  0  0  0  0
    4.2777   -3.3083   -2.3236 H   0  0  0  0  0  0  0  0  0  0  0  0
    2.4919   -1.7637   -0.9667 H   0  0  0  0  0  0  0  0  0  0  0  0
    6.2359   -2.8929   -1.1536 H   0  0  0  0  0  0  0  0  0  0  0  0
    4.8942   -0.5364   -1.8192 H   0  0  0  0  0  0  0  0  0  0  0  0
    7.2027   -1.0549    1.7714 H   0  0  0  0  0  0  0  0  0  0  0  0
    7.2374   -0.3390    0.1710 H   0  0  0  0  0  0  0  0  0  0  0  0
    7.7306   -1.9918    0.3583 H   0  0  0  0  0  0  0  0  0  0  0  0
    4.4520   -0.3143    1.8451 H   0  0  0  0  0  0  0  0  0  0  0  0
    3.8347   -0.2912    0.2004 H   0  0  0  0  0  0  0  0  0  0  0  0
    5.3000    0.5112    0.5654 H   0  0  0  0  0  0  0  0  0  0  0  0
    5.0994   -2.4364    2.4584 H   0  0  0  0  0  0  0  0  0  0  0  0
    6.3957   -4.4606    0.6010 H   0  0  0  0  0  0  0  0  0  0  0  0
    7.2221   -3.5038    1.7747 H   0  0  0  0  0  0  0  0  0  0  0  0
    6.8780   -5.5809    2.7973 H   0  0  0  0  0  0  0  0  0  0  0  0
    5.9126   -4.3648    3.6044 H   0  0  0  0  0  0  0  0  0  0  0  0
    5.2080   -6.2882    0.3575 H   0  0  0  0  0  0  0  0  0  0  0  0
    4.1785   -7.4707    1.1134 H   0  0  0  0  0  0  0  0  0  0  0  0
    5.8962   -7.3944    1.4418 H   0  0  0  0  0  0  0  0  0  0  0  0
  1  2  1  0
  1 34  1  0
  1 35  1  0
  1 36  1  0
  2 13  1  0
  2  3  1  0
  2 37  1  6
  3  4  1  0
  3 38  1  0
  3 39  1  0
  4  5  1  0
  4 40  1  0
  4 41  1  0
  5 12  1  0
  5  6  1  6
  5  7  1  0
  6 42  1  0
  6 43  1  0
  6 44  1  0
  7  8  1  0
  7 45  1  0
  7 46  1  0
  8  9  1  0
  8 47  1  0
  8 48  1  0
  9 32  1  0
  9 10  1  1
  9 11  1  0
 10 49  1  0
 10 50  1  0
 10 51  1  0
 11 12  2  0
 11 15  1  0
 12 13  1  0
 13 14  1  0
 13 52  1  6
 14 53  1  0
 14 54  1  0
 14 55  1  0
 15 16  1  0
 15 56  1  0
 15 57  1  0
 16 17  2  0
 16 18  1  0
 18 32  1  0
 18 19  1  0
 18 58  1  1
 19 29  1  0
 19 20  1  1
 19 21  1  0
 20 59  1  0
 20 60  1  0
 20 61  1  0
 21 22  1  0
 21 62  1  0
 21 63  1  0
 22 23  1  0
 22 24  1  0
 22 64  1  6
 23 65  1  0
 24 25  1  0
 24 26  1  0
 24 66  1  1
 25 67  1  0
 26 27  1  0
 26 28  1  0
 26 29  1  0
 27 68  1  0
 27 69  1  0
 27 70  1  0
 28 71  1  0
 28 72  1  0
 28 73  1  0
 29 30  1  0
 29 74  1  1
 30 31  1  0
 30 75  1  0
 30 76  1  0
 31 32  1  0
 31 77  1  0
 31 78  1  0
 32 33  1  6
 33 79  1  0
 33 80  1  0
 33 81  1  0
M  END
>  <i_m_ct_stereo_status>  (55) 
1

>  <s_m_source_file>  (55) 
/var/tmp/pbs.5076255.sched01/tmp3z6s85wa/08w76y650.sdf

>  <i_m_source_file_index>  (55) 
25

>  <i_lp_mmshare_version>  (55) 
48012

>  <i_f3d_flags>  (55) 
0

>  <s_epik_input>  (55) 
W0NIMl0xW0NIMl1bQ0BASF0oW0NIM10pW0NASF0oW0NIM10pQyhbQ0BdMTJbQ0gzXSk9QzNbQ0BAXShbQ0gzXSkoW0NIMl1bQ0gyXTIpW0NAQF00KFtDSDNdKVtDQEhdKEMoPU8pW0NIMl0zKVtDQEBdNShbQ0gzXSlbQ0BASF0oW0NIMl1bQ0gyXTQpQyhbQ0gzXSkoW0NIM10pW0NASF0oW09IXSlbQ0BASF0oW0NIMl01KVtPSF0=

>  <s_epik_cmdline>  (55) 
J2VwaWtfcHl0aG9uJywgJy1waHQnLCAnMi4wJywgJy1waCcsICc3LjAnLCAnLXRuJywgJzgnLCAnLW1hJywgJzIwMCcsICctaW1hZScsICc8aW5maWxlLm1hZT4nLCAnLW9tYWUnLCAnPG91dGZpbGUubWFlPic=

>  <r_lp_tautomer_probability>  (55) 
1

>  <r_epik_Ionization_Penalty>  (55) 
1.08567e-06

>  <r_epik_Ionization_Penalty_Charging>  (55) 
0

>  <r_epik_Ionization_Penalty_Neutral>  (55) 
1.08567e-06

>  <r_epik_State_Penalty>  (55) 
-0

>  <r_epik_Charging_Adjusted_Penalty>  (55) 
0

>  <i_epik_Tot_Q>  (55) 
0

>  <i_epik_Tot_abs_Q>  (55) 
0

>  <s_lp_Force_Field>  (55) 
OPLS3e

>  <r_lp_Energy>  (55) 
94.8742

>  <b_lp_Chiralities_Consistent>  (55) 
1

>  <s_lp_Variant>  (55) 
16:0-1

>  <s_i_glide_gridfile>  (55) 
pfpi4k_grid

>  <i_i_glide_lignum>  (55) 
25

>  <i_i_glide_rotatable_bonds>  (55) 
2

>  <r_i_docking_score>  (55) 
-3.29927

>  <r_i_glide_ligand_efficiency>  (55) 
-0.099978

>  <r_i_glide_ligand_efficiency_sa>  (55) 
-0.320683

>  <r_i_glide_ligand_efficiency_ln>  (55) 
-0.733741

>  <r_i_glide_gscore>  (55) 
-3.29927

>  <r_i_glide_lipo>  (55) 
-0.586839

>  <r_i_glide_hbond>  (55) 
-0.128284

>  <r_i_glide_metal>  (55) 
-0

>  <r_i_glide_rewards>  (55) 
-0.295225

>  <r_i_glide_evdw>  (55) 
-21.4318

>  <r_i_glide_ecoul>  (55) 
-7.98631

>  <r_i_glide_erotb>  (55) 
0

>  <r_i_glide_esite>  (55) 
-0.0193893

>  <r_i_glide_emodel>  (55) 
-34.6041

>  <r_i_glide_energy>  (55) 
-29.4181

>  <r_i_glide_einternal>  (55) 
0.773367

>  <r_i_glide_intrahb_reward>  (55) 
-0

>  <i_i_glide_confnum>  (55) 
2

>  <i_i_glide_posenum>  (55) 
33

>  <r_i_glide_eff_state_penalty>  (55) 
0

>  <ligand_id>  (55) 
16

>  <original_smiles>  (55) 
CC1CCC2(C)CCC3(C)C(=C2C1C)CC(=O)C1C2(C)CC(O)C(O)C(C)(C)C2CCC13C

>  <smiles>  (55) 
[H]OC1([H])C([H])([H])C2(C([H])([H])[H])C3([H])C(=O)C([H])([H])C4=C5C([H])(C([H])([H])[H])C([H])(C([H])([H])[H])C([H])([H])C([H])([H])C5(C([H])([H])[H])C([H])([H])C([H])([H])C4(C([H])([H])[H])C3(C([H])([H])[H])C([H])([H])C([H])([H])C2([H])C(C([H])([H])[H])(C([H])([H])[H])C1([H])O[H]

$$$$
16:0:2
     RDKit          3D

 81 85  0  0  1  0  0  0  0  0999 V2000
    0.9464   -8.9840    7.1611 C   0  0  0  0  0  0  0  0  0  0  0  0
    0.2617   -9.2941    5.8158 C   0  0  2  0  0  0  0  0  0  0  0  0
    0.6218  -10.6737    5.2767 C   0  0  0  0  0  0  0  0  0  0  0  0
    2.1040  -10.7373    4.9046 C   0  0  0  0  0  0  0  0  0  0  0  0
    2.5172   -9.6736    3.8545 C   0  0  2  0  0  0  0  0  0  0  0  0
    2.0319  -10.1495    2.4749 C   0  0  0  0  0  0  0  0  0  0  0  0
    4.0566   -9.6406    3.8550 C   0  0  0  0  0  0  0  0  0  0  0  0
    4.6075   -8.5339    2.9637 C   0  0  0  0  0  0  0  0  0  0  0  0
    4.1218   -7.1066    3.3681 C   0  0  2  0  0  0  0  0  0  0  0  0
    5.0289   -6.6966    4.5656 C   0  0  0  0  0  0  0  0  0  0  0  0
    2.6782   -7.1252    3.9320 C   0  0  0  0  0  0  0  0  0  0  0  0
    1.9529   -8.2595    4.1498 C   0  0  0  0  0  0  0  0  0  0  0  0
    0.5300   -8.2139    4.7516 C   0  0  1  0  0  0  0  0  0  0  0  0
   -0.5551   -8.1886    3.6580 C   0  0  0  0  0  0  0  0  0  0  0  0
    2.1483   -5.7252    4.2726 C   0  0  0  0  0  0  0  0  0  0  0  0
    2.4140   -4.6789    3.1960 C   0  0  0  0  0  0  0  0  0  0  0  0
    1.5163   -3.9083    2.8830 O   0  0  0  0  0  0  0  0  0  0  0  0
    3.8364   -4.6413    2.5898 C   0  0  2  0  0  0  0  0  0  0  0  0
    4.2357   -3.3687    1.6998 C   0  0  2  0  0  0  0  0  0  0  0  0
    4.2091   -2.1774    2.7060 C   0  0  0  0  0  0  0  0  0  0  0  0
    3.2623   -3.0778    0.5076 C   0  0  0  0  0  0  0  0  0  0  0  0
    3.7052   -1.9945   -0.4858 C   0  0  1  0  0  0  0  0  0  0  0  0
    3.4097   -0.7117    0.0321 O   0  0  0  0  0  0  0  0  0  0  0  0
    5.1544   -2.1755   -0.9707 C   0  0  1  0  0  0  0  0  0  0  0  0
    5.4959   -1.1044   -1.8298 O   0  0  0  0  0  0  0  0  0  0  0  0
    6.2127   -2.3969    0.1462 C   0  0  0  0  0  0  0  0  0  0  0  0
    7.5547   -2.8019   -0.5259 C   0  0  0  0  0  0  0  0  0  0  0  0
    6.5383   -1.0810    0.8997 C   0  0  0  0  0  0  0  0  0  0  0  0
    5.7047   -3.5367    1.1272 C   0  0  2  0  0  0  0  0  0  0  0  0
    5.8781   -4.9541    0.5273 C   0  0  0  0  0  0  0  0  0  0  0  0
    5.6554   -6.0532    1.5669 C   0  0  0  0  0  0  0  0  0  0  0  0
    4.2132   -6.0925    2.1255 C   0  0  1  0  0  0  0  0  0  0  0  0
    3.2664   -6.5913    0.9868 C   0  0  0  0  0  0  0  0  0  0  0  0
    2.0246   -8.8599    7.0564 H   0  0  0  0  0  0  0  0  0  0  0  0
    0.7772   -9.7903    7.8794 H   0  0  0  0  0  0  0  0  0  0  0  0
    0.5546   -8.0672    7.6041 H   0  0  0  0  0  0  0  0  0  0  0  0
   -0.8092   -9.3155    6.0238 H   0  0  0  0  0  0  0  0  0  0  0  0
    0.3584  -11.4154    6.0252 H   0  0  0  0  0  0  0  0  0  0  0  0
    0.0103  -10.9265    4.4075 H   0  0  0  0  0  0  0  0  0  0  0  0
    2.7024  -10.6332    5.8066 H   0  0  0  0  0  0  0  0  0  0  0  0
    2.3350  -11.7336    4.5268 H   0  0  0  0  0  0  0  0  0  0  0  0
    2.6235  -11.0004    2.1314 H   0  0  0  0  0  0  0  0  0  0  0  0
    2.1139   -9.3668    1.7208 H   0  0  0  0  0  0  0  0  0  0  0  0
    0.9960  -10.4760    2.4832 H   0  0  0  0  0  0  0  0  0  0  0  0
    4.4282   -9.5077    4.8695 H   0  0  0  0  0  0  0  0  0  0  0  0
    4.4496  -10.6011    3.5230 H   0  0  0  0  0  0  0  0  0  0  0  0
    5.6977   -8.5714    2.9830 H   0  0  0  0  0  0  0  0  0  0  0  0
    4.3530   -8.8024    1.9451 H   0  0  0  0  0  0  0  0  0  0  0  0
    6.0907   -6.7116    4.3176 H   0  0  0  0  0  0  0  0  0  0  0  0
    4.9032   -7.3948    5.3925 H   0  0  0  0  0  0  0  0  0  0  0  0
    4.8025   -5.7213    4.9883 H   0  0  0  0  0  0  0  0  0  0  0  0
    0.4028   -7.2956    5.3159 H   0  0  0  0  0  0  0  0  0  0  0  0
   -0.3766   -7.3715    2.9581 H   0  0  0  0  0  0  0  0  0  0  0  0
   -1.5447   -8.0445    4.0961 H   0  0  0  0  0  0  0  0  0  0  0  0
   -0.6001   -9.1133    3.0816 H   0  0  0  0  0  0  0  0  0  0  0  0
    1.0677   -5.7167    4.3996 H   0  0  0  0  0  0  0  0  0  0  0  0
    2.5755   -5.3802    5.2147 H   0  0  0  0  0  0  0  0  0  0  0  0
    4.4626   -4.4709    3.4592 H   0  0  0  0  0  0  0  0  0  0  0  0
    4.2896   -1.1988    2.2518 H   0  0  0  0  0  0  0  0  0  0  0  0
    5.0240   -2.2406    3.4259 H   0  0  0  0  0  0  0  0  0  0  0  0
    3.2830   -2.1209    3.2758 H   0  0  0  0  0  0  0  0  0  0  0  0
    3.1376   -3.9624   -0.1012 H   0  0  0  0  0  0  0  0  0  0  0  0
    2.2646   -2.8108    0.8516 H   0  0  0  0  0  0  0  0  0  0  0  0
    3.0662   -2.0700   -1.3647 H   0  0  0  0  0  0  0  0  0  0  0  0
    2.4694   -0.6029   -0.0790 H   0  0  0  0  0  0  0  0  0  0  0  0
    5.1524   -3.0717   -1.5983 H   0  0  0  0  0  0  0  0  0  0  0  0
    4.7565   -0.9427   -2.3985 H   0  0  0  0  0  0  0  0  0  0  0  0
    8.2852   -3.1438    0.2109 H   0  0  0  0  0  0  0  0  0  0  0  0
    8.0203   -1.9787   -1.0699 H   0  0  0  0  0  0  0  0  0  0  0  0
    7.4204   -3.5859   -1.2712 H   0  0  0  0  0  0  0  0  0  0  0  0
    6.8693   -1.2703    1.9211 H   0  0  0  0  0  0  0  0  0  0  0  0
    5.7062   -0.3844    0.9384 H   0  0  0  0  0  0  0  0  0  0  0  0
    7.3447   -0.5273    0.4210 H   0  0  0  0  0  0  0  0  0  0  0  0
    6.3862   -3.5115    1.9791 H   0  0  0  0  0  0  0  0  0  0  0  0
    5.2370   -5.0940   -0.3380 H   0  0  0  0  0  0  0  0  0  0  0  0
    6.8959   -5.1141    0.1738 H   0  0  0  0  0  0  0  0  0  0  0  0
    5.9140   -7.0115    1.1176 H   0  0  0  0  0  0  0  0  0  0  0  0
    6.3749   -5.8818    2.3673 H   0  0  0  0  0  0  0  0  0  0  0  0
    3.2468   -5.9433    0.1227 H   0  0  0  0  0  0  0  0  0  0  0  0
    2.2315   -6.7103    1.3143 H   0  0  0  0  0  0  0  0  0  0  0  0
    3.5807   -7.5416    0.5682 H   0  0  0  0  0  0  0  0  0  0  0  0
  1  2  1  0
  1 34  1  0
  1 35  1  0
  1 36  1  0
  2 13  1  0
  2  3  1  0
  2 37  1  1
  3  4  1  0
  3 38  1  0
  3 39  1  0
  4  5  1  0
  4 40  1  0
  4 41  1  0
  5 12  1  0
  5  6  1  6
  5  7  1  0
  6 42  1  0
  6 43  1  0
  6 44  1  0
  7  8  1  0
  7 45  1  0
  7 46  1  0
  8  9  1  0
  8 47  1  0
  8 48  1  0
  9 32  1  0
  9 10  1  1
  9 11  1  0
 10 49  1  0
 10 50  1  0
 10 51  1  0
 11 12  2  0
 11 15  1  0
 12 13  1  0
 13 14  1  0
 13 52  1  1
 14 53  1  0
 14 54  1  0
 14 55  1  0
 15 16  1  0
 15 56  1  0
 15 57  1  0
 16 17  2  0
 16 18  1  0
 18 32  1  0
 18 19  1  0
 18 58  1  1
 19 29  1  0
 19 20  1  1
 19 21  1  0
 20 59  1  0
 20 60  1  0
 20 61  1  0
 21 22  1  0
 21 62  1  0
 21 63  1  0
 22 23  1  0
 22 24  1  0
 22 64  1  6
 23 65  1  0
 24 25  1  0
 24 26  1  0
 24 66  1  6
 25 67  1  0
 26 27  1  0
 26 28  1  0
 26 29  1  0
 27 68  1  0
 27 69  1  0
 27 70  1  0
 28 71  1  0
 28 72  1  0
 28 73  1  0
 29 30  1  0
 29 74  1  1
 30 31  1  0
 30 75  1  0
 30 76  1  0
 31 32  1  0
 31 77  1  0
 31 78  1  0
 32 33  1  6
 33 79  1  0
 33 80  1  0
 33 81  1  0
M  END
>  <i_m_ct_stereo_status>  (56) 
1

>  <s_m_source_file>  (56) 
/var/tmp/pbs.5076255.sched01/tmp3z6s85wa/08w76y650.sdf

>  <i_m_source_file_index>  (56) 
25

>  <i_lp_mmshare_version>  (56) 
48012

>  <i_f3d_flags>  (56) 
0

>  <s_epik_input>  (56) 
W0NIMl0xW0NIMl1bQ0BASF0oW0NIM10pW0NASF0oW0NIM10pQyhbQ0BdMTJbQ0gzXSk9QzNbQ0BAXShbQ0gzXSkoW0NIMl1bQ0gyXTIpW0NAQF00KFtDSDNdKVtDQEhdKEMoPU8pW0NIMl0zKVtDQEBdNShbQ0gzXSlbQ0BASF0oW0NIMl1bQ0gyXTQpQyhbQ0gzXSkoW0NIM10pW0NASF0oW09IXSlbQ0BASF0oW0NIMl01KVtPSF0=

>  <s_epik_cmdline>  (56) 
J2VwaWtfcHl0aG9uJywgJy1waHQnLCAnMi4wJywgJy1waCcsICc3LjAnLCAnLXRuJywgJzgnLCAnLW1hJywgJzIwMCcsICctaW1hZScsICc8aW5maWxlLm1hZT4nLCAnLW9tYWUnLCAnPG91dGZpbGUubWFlPic=

>  <r_lp_tautomer_probability>  (56) 
1

>  <r_epik_Ionization_Penalty>  (56) 
1.08567e-06

>  <r_epik_Ionization_Penalty_Charging>  (56) 
0

>  <r_epik_Ionization_Penalty_Neutral>  (56) 
1.08567e-06

>  <r_epik_State_Penalty>  (56) 
-0

>  <r_epik_Charging_Adjusted_Penalty>  (56) 
0

>  <i_epik_Tot_Q>  (56) 
0

>  <i_epik_Tot_abs_Q>  (56) 
0

>  <s_lp_Force_Field>  (56) 
OPLS3e

>  <r_lp_Energy>  (56) 
94.8742

>  <b_lp_Chiralities_Consistent>  (56) 
1

>  <s_lp_Variant>  (56) 
16:0-1

>  <s_i_glide_gridfile>  (56) 
pfpi4k_grid

>  <i_i_glide_lignum>  (56) 
25

>  <i_i_glide_rotatable_bonds>  (56) 
2

>  <r_i_docking_score>  (56) 
-2.63339

>  <r_i_glide_ligand_efficiency>  (56) 
-0.0797997

>  <r_i_glide_ligand_efficiency_sa>  (56) 
-0.25596

>  <r_i_glide_ligand_efficiency_ln>  (56) 
-0.585652

>  <r_i_glide_gscore>  (56) 
-2.63339

>  <r_i_glide_lipo>  (56) 
-0.460866

>  <r_i_glide_hbond>  (56) 
0

>  <r_i_glide_metal>  (56) 
-0

>  <r_i_glide_rewards>  (56) 
-0.295225

>  <r_i_glide_evdw>  (56) 
-29.3516

>  <r_i_glide_ecoul>  (56) 
-2.7203

>  <r_i_glide_erotb>  (56) 
0

>  <r_i_glide_esite>  (56) 
-0.00167365

>  <r_i_glide_emodel>  (56) 
-37.0382

>  <r_i_glide_energy>  (56) 
-32.0719

>  <r_i_glide_einternal>  (56) 
1.03145

>  <r_i_glide_intrahb_reward>  (56) 
-0

>  <i_i_glide_confnum>  (56) 
2

>  <i_i_glide_posenum>  (56) 
26

>  <r_i_glide_eff_state_penalty>  (56) 
0

>  <ligand_id>  (56) 
16

>  <original_smiles>  (56) 
CC1CCC2(C)CCC3(C)C(=C2C1C)CC(=O)C1C2(C)CC(O)C(O)C(C)(C)C2CCC13C

>  <smiles>  (56) 
[H]OC1([H])C([H])([H])C2(C([H])([H])[H])C3([H])C(=O)C([H])([H])C4=C5C([H])(C([H])([H])[H])C([H])(C([H])([H])[H])C([H])([H])C([H])([H])C5(C([H])([H])[H])C([H])([H])C([H])([H])C4(C([H])([H])[H])C3(C([H])([H])[H])C([H])([H])C([H])([H])C2([H])C(C([H])([H])[H])(C([H])([H])[H])C1([H])O[H]

$$$$
17:0:0
     RDKit          3D

 32 35  0  0  1  0  0  0  0  0999 V2000
   -2.0566   -8.5188    3.5428 C   0  0  0  0  0  0  0  0  0  0  0  0
   -0.7646   -8.0664    2.9475 C   0  0  0  0  0  0  0  0  0  0  0  0
   -0.5519   -6.7810    2.5288 N   0  0  0  0  0  0  0  0  0  0  0  0
    0.6994   -6.8297    2.0664 C   0  0  0  0  0  0  0  0  0  0  0  0
    1.4419   -5.8545    1.4862 N   0  0  0  0  0  0  0  0  0  0  0  0
    2.6726   -6.2183    1.1307 C   0  0  0  0  0  0  0  0  0  0  0  0
    3.2063   -7.5016    1.2871 C   0  0  0  0  0  0  0  0  0  0  0  0
    2.4487   -8.5069    1.8264 C   0  0  0  0  0  0  0  0  0  0  0  0
    1.1945   -8.1400    2.2320 N   0  0  0  0  0  0  0  0  0  0  0  0
    0.2440   -8.9199    2.8121 N   0  0  0  0  0  0  0  0  0  0  0  0
    4.5904   -7.5716    0.7289 C   0  0  0  0  0  0  0  0  0  0  0  0
    4.8601   -6.0788    0.4604 C   0  0  0  0  0  0  0  0  0  0  0  0
    3.5682   -5.3836    0.5026 N   0  0  0  0  0  0  0  0  0  0  0  0
    3.4842   -3.9309    0.4216 C   0  0  0  0  0  0  0  0  0  0  0  0
    3.9056   -3.4424   -0.9594 C   0  0  0  0  0  0  0  0  0  0  0  0
    5.3643   -3.1833   -1.3148 C   0  0  0  0  0  0  0  0  0  0  0  0
    4.4094   -2.0277   -1.1556 C   0  0  0  0  0  0  0  0  0  0  0  0
   -2.8294   -7.7704    3.4026 H   0  0  0  0  0  0  0  0  0  0  0  0
   -1.9515   -8.6528    4.6147 H   0  0  0  0  0  0  0  0  0  0  0  0
   -2.3882   -9.4568    3.0977 H   0  0  0  0  0  0  0  0  0  0  0  0
    2.7534   -9.5470    1.9381 H   0  0  0  0  0  0  0  0  0  0  0  0
    5.3008   -8.0251    1.4203 H   0  0  0  0  0  0  0  0  0  0  0  0
    4.5664   -8.1392   -0.2045 H   0  0  0  0  0  0  0  0  0  0  0  0
    5.4750   -5.6753    1.2702 H   0  0  0  0  0  0  0  0  0  0  0  0
    5.3935   -5.9226   -0.4823 H   0  0  0  0  0  0  0  0  0  0  0  0
    2.4890   -3.5442    0.6533 H   0  0  0  0  0  0  0  0  0  0  0  0
    4.1810   -3.5102    1.1465 H   0  0  0  0  0  0  0  0  0  0  0  0
    3.3011   -3.8506   -1.7708 H   0  0  0  0  0  0  0  0  0  0  0  0
    6.1149   -3.3459   -0.5414 H   0  0  0  0  0  0  0  0  0  0  0  0
    5.6926   -3.4166   -2.3285 H   0  0  0  0  0  0  0  0  0  0  0  0
    4.0963   -1.5071   -2.0602 H   0  0  0  0  0  0  0  0  0  0  0  0
    4.4969   -1.4102   -0.2635 H   0  0  0  0  0  0  0  0  0  0  0  0
  1  2  1  0
  1 18  1  0
  1 19  1  0
  1 20  1  0
  2 10  2  0
  2  3  1  0
  3  4  2  0
  4  9  1  0
  4  5  1  0
  5  6  2  0
  6 13  1  0
  6  7  1  0
  7  8  2  0
  7 11  1  0
  8  9  1  0
  8 21  1  0
  9 10  1  0
 11 12  1  0
 11 22  1  0
 11 23  1  0
 12 13  1  0
 12 24  1  0
 12 25  1  0
 13 14  1  0
 14 15  1  0
 14 26  1  0
 14 27  1  0
 15 17  1  0
 15 16  1  0
 15 28  1  0
 16 17  1  0
 16 29  1  0
 16 30  1  0
 17 31  1  0
 17 32  1  0
M  END
>  <i_m_ct_stereo_status>  (57) 
1

>  <s_m_source_file>  (57) 
/var/tmp/pbs.5076255.sched01/tmp3z6s85wa/08w76y650.sdf

>  <i_m_source_file_index>  (57) 
26

>  <i_lp_mmshare_version>  (57) 
48012

>  <i_f3d_flags>  (57) 
0

>  <s_epik_input>  (57) 
W0NIM11jKG4xKW5uKGMxMilbY0hdYzNjKG4yKU4oW0NIMl1bQ0gyXTMpW0NIMl1bQ0hdNFtDSDJdW0NIMl00

>  <s_epik_cmdline>  (57) 
J2VwaWtfcHl0aG9uJywgJy1waHQnLCAnMi4wJywgJy1waCcsICc3LjAnLCAnLXRuJywgJzgnLCAnLW1hJywgJzIwMCcsICctaW1hZScsICc8aW5maWxlLm1hZT4nLCAnLW9tYWUnLCAnPG91dGZpbGUubWFlPic=

>  <r_lp_tautomer_probability>  (57) 
1

>  <r_epik_Ionization_Penalty>  (57) 
0.000182626

>  <r_epik_Ionization_Penalty_Charging>  (57) 
0

>  <r_epik_Ionization_Penalty_Neutral>  (57) 
0.000182626

>  <r_epik_State_Penalty>  (57) 
-0

>  <r_epik_Charging_Adjusted_Penalty>  (57) 
0

>  <i_epik_Tot_Q>  (57) 
0

>  <i_epik_Tot_abs_Q>  (57) 
0

>  <s_lp_Force_Field>  (57) 
OPLS3e

>  <r_lp_Energy>  (57) 
18.9387

>  <b_lp_Chiralities_Consistent>  (57) 
1

>  <s_lp_Variant>  (57) 
17:0-1

>  <s_i_glide_gridfile>  (57) 
pfpi4k_grid

>  <i_i_glide_lignum>  (57) 
26

>  <i_i_glide_rotatable_bonds>  (57) 
2

>  <r_i_docking_score>  (57) 
-3.63502

>  <r_i_glide_ligand_efficiency>  (57) 
-0.213825

>  <r_i_glide_ligand_efficiency_sa>  (57) 
-0.549804

>  <r_i_glide_ligand_efficiency_ln>  (57) 
-0.948296

>  <r_i_glide_gscore>  (57) 
-3.63502

>  <r_i_glide_lipo>  (57) 
-0.338164

>  <r_i_glide_hbond>  (57) 
-0.277667

>  <r_i_glide_metal>  (57) 
-0

>  <r_i_glide_rewards>  (57) 
-1.84581

>  <r_i_glide_evdw>  (57) 
-20.4396

>  <r_i_glide_ecoul>  (57) 
-4.22148

>  <r_i_glide_erotb>  (57) 
0.649025

>  <r_i_glide_esite>  (57) 
-0.167203

>  <r_i_glide_emodel>  (57) 
-31.0993

>  <r_i_glide_energy>  (57) 
-24.661

>  <r_i_glide_einternal>  (57) 
0.143791

>  <r_i_glide_intrahb_reward>  (57) 
-0

>  <i_i_glide_confnum>  (57) 
1

>  <i_i_glide_posenum>  (57) 
15

>  <r_i_glide_eff_state_penalty>  (57) 
0

>  <ligand_id>  (57) 
17

>  <original_smiles>  (57) 
Cc1nc2nc3c(cn2n1)CCN3CC1CC1

>  <smiles>  (57) 
[H]c1c2c(nc3nc(C([H])([H])[H])nn13)N(C([H])([H])C1([H])C([H])([H])C1([H])[H])C([H])([H])C2([H])[H]

$$$$
17:0:1
     RDKit          3D

 32 35  0  0  1  0  0  0  0  0999 V2000
   -2.0241   -8.5393    3.4882 C   0  0  0  0  0  0  0  0  0  0  0  0
   -0.7296   -8.0646    2.9267 C   0  0  0  0  0  0  0  0  0  0  0  0
   -0.5430   -6.8050    2.4353 N   0  0  0  0  0  0  0  0  0  0  0  0
    0.7281   -6.8243    2.0221 C   0  0  0  0  0  0  0  0  0  0  0  0
    1.4597   -5.8633    1.4136 N   0  0  0  0  0  0  0  0  0  0  0  0
    2.7163   -6.2027    1.1369 C   0  0  0  0  0  0  0  0  0  0  0  0
    3.2972   -7.4460    1.4205 C   0  0  0  0  0  0  0  0  0  0  0  0
    2.5540   -8.4370    2.0040 C   0  0  0  0  0  0  0  0  0  0  0  0
    1.2666   -8.1010    2.3090 N   0  0  0  0  0  0  0  0  0  0  0  0
    0.3208   -8.8816    2.8897 N   0  0  0  0  0  0  0  0  0  0  0  0
    4.7191   -7.4919    0.9663 C   0  0  0  0  0  0  0  0  0  0  0  0
    4.9424   -6.0143    0.5927 C   0  0  0  0  0  0  0  0  0  0  0  0
    3.6255   -5.3795    0.5068 N   0  0  0  0  0  0  0  0  0  0  0  0
    3.4688   -3.9489    0.2982 C   0  0  0  0  0  0  0  0  0  0  0  0
    3.8610   -3.5557   -1.1169 C   0  0  0  0  0  0  0  0  0  0  0  0
    3.7261   -2.1188   -1.5728 C   0  0  0  0  0  0  0  0  0  0  0  0
    2.8074   -3.1715   -2.1330 C   0  0  0  0  0  0  0  0  0  0  0  0
   -2.8233   -7.8371    3.2641 H   0  0  0  0  0  0  0  0  0  0  0  0
   -1.9752   -8.6170    4.5727 H   0  0  0  0  0  0  0  0  0  0  0  0
   -2.2958   -9.5222    3.0922 H   0  0  0  0  0  0  0  0  0  0  0  0
    2.9019   -9.4439    2.2335 H   0  0  0  0  0  0  0  0  0  0  0  0
    5.4037   -7.8465    1.7393 H   0  0  0  0  0  0  0  0  0  0  0  0
    4.7790   -8.1402    0.0896 H   0  0  0  0  0  0  0  0  0  0  0  0
    5.4893   -5.5157    1.3960 H   0  0  0  0  0  0  0  0  0  0  0  0
    5.5240   -5.9126   -0.3273 H   0  0  0  0  0  0  0  0  0  0  0  0
    2.4596   -3.5920    0.5177 H   0  0  0  0  0  0  0  0  0  0  0  0
    4.1533   -3.4359    0.9709 H   0  0  0  0  0  0  0  0  0  0  0  0
    4.7443   -4.0627   -1.5005 H   0  0  0  0  0  0  0  0  0  0  0  0
    3.3218   -1.4148   -0.8476 H   0  0  0  0  0  0  0  0  0  0  0  0
    4.4862   -1.7207   -2.2461 H   0  0  0  0  0  0  0  0  0  0  0  0
    2.9690   -3.4889   -3.1637 H   0  0  0  0  0  0  0  0  0  0  0  0
    1.7773   -3.2067   -1.7849 H   0  0  0  0  0  0  0  0  0  0  0  0
  1  2  1  0
  1 18  1  0
  1 19  1  0
  1 20  1  0
  2 10  2  0
  2  3  1  0
  3  4  2  0
  4  9  1  0
  4  5  1  0
  5  6  2  0
  6 13  1  0
  6  7  1  0
  7  8  2  0
  7 11  1  0
  8  9  1  0
  8 21  1  0
  9 10  1  0
 11 12  1  0
 11 22  1  0
 11 23  1  0
 12 13  1  0
 12 24  1  0
 12 25  1  0
 13 14  1  0
 14 15  1  0
 14 26  1  0
 14 27  1  0
 15 17  1  0
 15 16  1  0
 15 28  1  0
 16 17  1  0
 16 29  1  0
 16 30  1  0
 17 31  1  0
 17 32  1  0
M  END
>  <i_m_ct_stereo_status>  (58) 
1

>  <s_m_source_file>  (58) 
/var/tmp/pbs.5076255.sched01/tmp3z6s85wa/08w76y650.sdf

>  <i_m_source_file_index>  (58) 
26

>  <i_lp_mmshare_version>  (58) 
48012

>  <i_f3d_flags>  (58) 
0

>  <s_epik_input>  (58) 
W0NIM11jKG4xKW5uKGMxMilbY0hdYzNjKG4yKU4oW0NIMl1bQ0gyXTMpW0NIMl1bQ0hdNFtDSDJdW0NIMl00

>  <s_epik_cmdline>  (58) 
J2VwaWtfcHl0aG9uJywgJy1waHQnLCAnMi4wJywgJy1waCcsICc3LjAnLCAnLXRuJywgJzgnLCAnLW1hJywgJzIwMCcsICctaW1hZScsICc8aW5maWxlLm1hZT4nLCAnLW9tYWUnLCAnPG91dGZpbGUubWFlPic=

>  <r_lp_tautomer_probability>  (58) 
1

>  <r_epik_Ionization_Penalty>  (58) 
0.000182626

>  <r_epik_Ionization_Penalty_Charging>  (58) 
0

>  <r_epik_Ionization_Penalty_Neutral>  (58) 
0.000182626

>  <r_epik_State_Penalty>  (58) 
-0

>  <r_epik_Charging_Adjusted_Penalty>  (58) 
0

>  <i_epik_Tot_Q>  (58) 
0

>  <i_epik_Tot_abs_Q>  (58) 
0

>  <s_lp_Force_Field>  (58) 
OPLS3e

>  <r_lp_Energy>  (58) 
18.9387

>  <b_lp_Chiralities_Consistent>  (58) 
1

>  <s_lp_Variant>  (58) 
17:0-1

>  <s_i_glide_gridfile>  (58) 
pfpi4k_grid

>  <i_i_glide_lignum>  (58) 
26

>  <i_i_glide_rotatable_bonds>  (58) 
2

>  <r_i_docking_score>  (58) 
-3.59776

>  <r_i_glide_ligand_efficiency>  (58) 
-0.211633

>  <r_i_glide_ligand_efficiency_sa>  (58) 
-0.544168

>  <r_i_glide_ligand_efficiency_ln>  (58) 
-0.938576

>  <r_i_glide_gscore>  (58) 
-3.59776

>  <r_i_glide_lipo>  (58) 
-0.274072

>  <r_i_glide_hbond>  (58) 
-0.282658

>  <r_i_glide_metal>  (58) 
-0

>  <r_i_glide_rewards>  (58) 
-1.84581

>  <r_i_glide_evdw>  (58) 
-21.2594

>  <r_i_glide_ecoul>  (58) 
-4.13394

>  <r_i_glide_erotb>  (58) 
0.649025

>  <r_i_glide_esite>  (58) 
-0.161185

>  <r_i_glide_emodel>  (58) 
-31.766

>  <r_i_glide_energy>  (58) 
-25.3934

>  <r_i_glide_einternal>  (58) 
0.233556

>  <r_i_glide_intrahb_reward>  (58) 
-0

>  <i_i_glide_confnum>  (58) 
4

>  <i_i_glide_posenum>  (58) 
9

>  <r_i_glide_eff_state_penalty>  (58) 
0

>  <ligand_id>  (58) 
17

>  <original_smiles>  (58) 
Cc1nc2nc3c(cn2n1)CCN3CC1CC1

>  <smiles>  (58) 
[H]c1c2c(nc3nc(C([H])([H])[H])nn13)N(C([H])([H])C1([H])C([H])([H])C1([H])[H])C([H])([H])C2([H])[H]

$$$$
17:0:2
     RDKit          3D

 32 35  0  0  1  0  0  0  0  0999 V2000
    1.3520   -7.8214    2.1161 C   0  0  0  0  0  0  0  0  0  0  0  0
    2.0757   -6.7491    1.3554 C   0  0  0  0  0  0  0  0  0  0  0  0
    1.4432   -5.8551    0.5201 N   0  0  0  0  0  0  0  0  0  0  0  0
    2.4269   -5.0599    0.0990 C   0  0  0  0  0  0  0  0  0  0  0  0
    2.4044   -3.9714   -0.7287 N   0  0  0  0  0  0  0  0  0  0  0  0
    3.5994   -3.4841   -1.0484 C   0  0  0  0  0  0  0  0  0  0  0  0
    4.8094   -3.9298   -0.5113 C   0  0  0  0  0  0  0  0  0  0  0  0
    4.8427   -4.9864    0.3632 C   0  0  0  0  0  0  0  0  0  0  0  0
    3.6386   -5.5437    0.6511 N   0  0  0  0  0  0  0  0  0  0  0  0
    3.3897   -6.6107    1.4761 N   0  0  0  0  0  0  0  0  0  0  0  0
    5.9544   -3.1231   -1.0105 C   0  0  0  0  0  0  0  0  0  0  0  0
    5.1946   -2.0137   -1.7593 C   0  0  0  0  0  0  0  0  0  0  0  0
    3.8194   -2.4643   -1.9425 N   0  0  0  0  0  0  0  0  0  0  0  0
    2.7833   -1.6180   -2.4925 C   0  0  0  0  0  0  0  0  0  0  0  0
    3.1075   -1.2374   -3.9263 C   0  0  0  0  0  0  0  0  0  0  0  0
    3.9333   -0.0047   -4.2518 C   0  0  0  0  0  0  0  0  0  0  0  0
    2.4828   -0.0336   -4.5885 C   0  0  0  0  0  0  0  0  0  0  0  0
    0.3335   -7.8985    1.7535 H   0  0  0  0  0  0  0  0  0  0  0  0
    1.2744   -7.5616    3.1693 H   0  0  0  0  0  0  0  0  0  0  0  0
    1.8521   -8.7880    2.0041 H   0  0  0  0  0  0  0  0  0  0  0  0
    5.7408   -5.4017    0.8169 H   0  0  0  0  0  0  0  0  0  0  0  0
    6.6016   -2.7326   -0.2168 H   0  0  0  0  0  0  0  0  0  0  0  0
    6.5405   -3.7167   -1.7137 H   0  0  0  0  0  0  0  0  0  0  0  0
    5.1405   -1.1153   -1.1450 H   0  0  0  0  0  0  0  0  0  0  0  0
    5.6751   -1.7620   -2.7076 H   0  0  0  0  0  0  0  0  0  0  0  0
    1.8068   -2.1098   -2.4705 H   0  0  0  0  0  0  0  0  0  0  0  0
    2.7531   -0.7073   -1.9078 H   0  0  0  0  0  0  0  0  0  0  0  0
    3.2652   -2.0882   -4.5782 H   0  0  0  0  0  0  0  0  0  0  0  0
    4.2500    0.6336   -3.4316 H   0  0  0  0  0  0  0  0  0  0  0  0
    4.5898   -0.0399   -5.1145 H   0  0  0  0  0  0  0  0  0  0  0  0
    2.2139   -0.1048   -5.6379 H   0  0  0  0  0  0  0  0  0  0  0  0
    1.8067    0.5482   -3.9737 H   0  0  0  0  0  0  0  0  0  0  0  0
  1  2  1  0
  1 18  1  0
  1 19  1  0
  1 20  1  0
  2 10  2  0
  2  3  1  0
  3  4  2  0
  4  9  1  0
  4  5  1  0
  5  6  2  0
  6 13  1  0
  6  7  1  0
  7  8  2  0
  7 11  1  0
  8  9  1  0
  8 21  1  0
  9 10  1  0
 11 12  1  0
 11 22  1  0
 11 23  1  0
 12 13  1  0
 12 24  1  0
 12 25  1  0
 13 14  1  0
 14 15  1  0
 14 26  1  0
 14 27  1  0
 15 17  1  0
 15 16  1  0
 15 28  1  0
 16 17  1  0
 16 29  1  0
 16 30  1  0
 17 31  1  0
 17 32  1  0
M  END
>  <i_m_ct_stereo_status>  (59) 
1

>  <s_m_source_file>  (59) 
/var/tmp/pbs.5076255.sched01/tmp3z6s85wa/08w76y650.sdf

>  <i_m_source_file_index>  (59) 
26

>  <i_lp_mmshare_version>  (59) 
48012

>  <i_f3d_flags>  (59) 
0

>  <s_epik_input>  (59) 
W0NIM11jKG4xKW5uKGMxMilbY0hdYzNjKG4yKU4oW0NIMl1bQ0gyXTMpW0NIMl1bQ0hdNFtDSDJdW0NIMl00

>  <s_epik_cmdline>  (59) 
J2VwaWtfcHl0aG9uJywgJy1waHQnLCAnMi4wJywgJy1waCcsICc3LjAnLCAnLXRuJywgJzgnLCAnLW1hJywgJzIwMCcsICctaW1hZScsICc8aW5maWxlLm1hZT4nLCAnLW9tYWUnLCAnPG91dGZpbGUubWFlPic=

>  <r_lp_tautomer_probability>  (59) 
1

>  <r_epik_Ionization_Penalty>  (59) 
0.000182626

>  <r_epik_Ionization_Penalty_Charging>  (59) 
0

>  <r_epik_Ionization_Penalty_Neutral>  (59) 
0.000182626

>  <r_epik_State_Penalty>  (59) 
-0

>  <r_epik_Charging_Adjusted_Penalty>  (59) 
0

>  <i_epik_Tot_Q>  (59) 
0

>  <i_epik_Tot_abs_Q>  (59) 
0

>  <s_lp_Force_Field>  (59) 
OPLS3e

>  <r_lp_Energy>  (59) 
18.9387

>  <b_lp_Chiralities_Consistent>  (59) 
1

>  <s_lp_Variant>  (59) 
17:0-1

>  <s_i_glide_gridfile>  (59) 
pfpi4k_grid

>  <i_i_glide_lignum>  (59) 
26

>  <i_i_glide_rotatable_bonds>  (59) 
2

>  <r_i_docking_score>  (59) 
-3.54149

>  <r_i_glide_ligand_efficiency>  (59) 
-0.208323

>  <r_i_glide_ligand_efficiency_sa>  (59) 
-0.535658

>  <r_i_glide_ligand_efficiency_ln>  (59) 
-0.923897

>  <r_i_glide_gscore>  (59) 
-3.54149

>  <r_i_glide_lipo>  (59) 
-0.554856

>  <r_i_glide_hbond>  (59) 
-0.154497

>  <r_i_glide_metal>  (59) 
-0

>  <r_i_glide_rewards>  (59) 
-1.84745

>  <r_i_glide_evdw>  (59) 
-19.7184

>  <r_i_glide_ecoul>  (59) 
-3.61211

>  <r_i_glide_erotb>  (59) 
0.649025

>  <r_i_glide_esite>  (59) 
-0.105983

>  <r_i_glide_emodel>  (59) 
-29.6059

>  <r_i_glide_energy>  (59) 
-23.3305

>  <r_i_glide_einternal>  (59) 
0.0196083

>  <r_i_glide_intrahb_reward>  (59) 
-0

>  <i_i_glide_confnum>  (59) 
1

>  <i_i_glide_posenum>  (59) 
16

>  <r_i_glide_eff_state_penalty>  (59) 
0

>  <ligand_id>  (59) 
17

>  <original_smiles>  (59) 
Cc1nc2nc3c(cn2n1)CCN3CC1CC1

>  <smiles>  (59) 
[H]c1c2c(nc3nc(C([H])([H])[H])nn13)N(C([H])([H])C1([H])C([H])([H])C1([H])[H])C([H])([H])C2([H])[H]

$$$$
18:0:0
     RDKit          3D

 35 38  0  0  1  0  0  0  0  0999 V2000
    4.6700   -6.1639    0.5470 C   0  0  0  0  0  0  0  0  0  0  0  0
    5.3776   -5.0200    0.5521 C   0  0  0  0  0  0  0  0  0  0  0  0
    6.8951   -5.0087    0.6642 C   0  0  0  0  0  0  0  0  0  0  0  0
    7.5645   -3.6742    0.2446 C   0  0  0  0  0  0  0  0  0  0  0  0
    6.7108   -2.4169    0.5962 C   0  0  2  0  0  0  0  0  0  0  0  0
    5.5214   -2.7207    1.5068 C   0  0  1  0  0  0  0  0  0  0  0  0
    4.8577   -1.3491    1.6921 C   0  0  0  0  0  0  0  0  0  0  0  0
    5.2023   -0.6407    0.3817 C   0  0  0  0  0  0  0  0  0  0  0  0
    5.8021   -1.7910   -0.4828 C   0  0  2  0  0  0  0  0  0  0  0  0
    4.7593   -2.9065   -0.8314 C   0  0  1  0  0  0  0  0  0  0  0  0
    3.3704   -2.3209   -1.2906 C   0  0  0  0  0  0  0  0  0  0  0  0
    2.9976   -2.7319   -2.7148 C   0  0  0  0  0  0  0  0  0  0  0  0
    4.5198   -3.0895   -3.5514 S   0  0  0  0  0  0  0  0  0  0  0  0
    5.2414   -3.7609   -2.0522 C   0  0  0  0  0  0  0  0  0  0  0  0
    4.7039   -3.6421    0.5630 C   0  0  1  0  0  0  0  0  0  0  0  0
    3.5924   -6.1690    0.5065 H   0  0  0  0  0  0  0  0  0  0  0  0
    5.1629   -7.1296    0.5785 H   0  0  0  0  0  0  0  0  0  0  0  0
    7.1345   -5.1980    1.7142 H   0  0  0  0  0  0  0  0  0  0  0  0
    7.3082   -5.8509    0.1051 H   0  0  0  0  0  0  0  0  0  0  0  0
    8.5196   -3.6069    0.7736 H   0  0  0  0  0  0  0  0  0  0  0  0
    7.8622   -3.6846   -0.8033 H   0  0  0  0  0  0  0  0  0  0  0  0
    7.3758   -1.6673    1.0308 H   0  0  0  0  0  0  0  0  0  0  0  0
    5.7692   -3.1827    2.4599 H   0  0  0  0  0  0  0  0  0  0  0  0
    3.7805   -1.4384    1.8362 H   0  0  0  0  0  0  0  0  0  0  0  0
    5.2716   -0.7984    2.5378 H   0  0  0  0  0  0  0  0  0  0  0  0
    4.3466   -0.0834   -0.0119 H   0  0  0  0  0  0  0  0  0  0  0  0
    5.9762    0.1131    0.5622 H   0  0  0  0  0  0  0  0  0  0  0  0
    6.3214   -1.4250   -1.3655 H   0  0  0  0  0  0  0  0  0  0  0  0
    2.5610   -2.5691   -0.5937 H   0  0  0  0  0  0  0  0  0  0  0  0
    3.3786   -1.2338   -1.3739 H   0  0  0  0  0  0  0  0  0  0  0  0
    2.3565   -3.6168   -2.7290 H   0  0  0  0  0  0  0  0  0  0  0  0
    2.4860   -1.9180   -3.2270 H   0  0  0  0  0  0  0  0  0  0  0  0
    6.3091   -3.7680   -2.2348 H   0  0  0  0  0  0  0  0  0  0  0  0
    4.9016   -4.7966   -1.9936 H   0  0  0  0  0  0  0  0  0  0  0  0
    3.6865   -3.7740    0.9265 H   0  0  0  0  0  0  0  0  0  0  0  0
  1  2  2  0
  1 16  1  0
  1 17  1  0
  2 15  1  0
  2  3  1  0
  3  4  1  0
  3 18  1  0
  3 19  1  0
  4  5  1  0
  4 20  1  0
  4 21  1  0
  5  9  1  0
  5  6  1  0
  5 22  1  1
  6 15  1  0
  6  7  1  0
  6 23  1  1
  7  8  1  0
  7 24  1  0
  7 25  1  0
  8  9  1  0
  8 26  1  0
  8 27  1  0
  9 10  1  0
  9 28  1  6
 10 14  1  6
 10 11  1  0
 10 15  1  0
 11 12  1  0
 11 29  1  0
 11 30  1  0
 12 13  1  0
 12 31  1  0
 12 32  1  0
 13 14  1  0
 14 33  1  0
 14 34  1  0
 15 35  1  1
M  END
>  <i_m_ct_stereo_status>  (60) 
1

>  <s_m_source_file>  (60) 
/var/tmp/pbs.5076255.sched01/tmp3z6s85wa/08w76y650.sdf

>  <i_m_source_file_index>  (60) 
27

>  <i_lp_mmshare_version>  (60) 
48012

>  <i_f3d_flags>  (60) 
0

>  <s_epik_input>  (60) 
W0NIMl0xW0NIMl1DKD1bQ0gyXSlbQ0BIXTJbQ0BIXShbQ0gyXVtDSDJdMylbQ0BASF0xW0NASF0zW0NAXTI0W0NIMl1bQ0gyXVNbQ0gyXTQ=

>  <s_epik_cmdline>  (60) 
J2VwaWtfcHl0aG9uJywgJy1waHQnLCAnMi4wJywgJy1waCcsICc3LjAnLCAnLXRuJywgJzgnLCAnLW1hJywgJzIwMCcsICctaW1hZScsICc8aW5maWxlLm1hZT4nLCAnLW9tYWUnLCAnPG91dGZpbGUubWFlPic=

>  <r_lp_tautomer_probability>  (60) 
1

>  <r_epik_Ionization_Penalty>  (60) 
0

>  <r_epik_Ionization_Penalty_Charging>  (60) 
0

>  <r_epik_Ionization_Penalty_Neutral>  (60) 
0

>  <r_epik_State_Penalty>  (60) 
-0

>  <r_epik_Charging_Adjusted_Penalty>  (60) 
0

>  <i_epik_Tot_Q>  (60) 
0

>  <i_epik_Tot_abs_Q>  (60) 
0

>  <s_lp_Force_Field>  (60) 
OPLS3e

>  <r_lp_Energy>  (60) 
48.988

>  <b_lp_Chiralities_Consistent>  (60) 
1

>  <s_lp_Variant>  (60) 
18:0-1

>  <s_i_glide_gridfile>  (60) 
pfpi4k_grid

>  <i_i_glide_lignum>  (60) 
27

>  <i_i_glide_rotatable_bonds>  (60) 
0

>  <r_i_docking_score>  (60) 
-4.51692

>  <r_i_glide_ligand_efficiency>  (60) 
-0.301128

>  <r_i_glide_ligand_efficiency_sa>  (60) 
-0.742646

>  <r_i_glide_ligand_efficiency_ln>  (60) 
-1.21814

>  <r_i_glide_gscore>  (60) 
-4.51692

>  <r_i_glide_lipo>  (60) 
-1.14771

>  <r_i_glide_hbond>  (60) 
0

>  <r_i_glide_metal>  (60) 
-0

>  <r_i_glide_rewards>  (60) 
-1.90654

>  <r_i_glide_evdw>  (60) 
-24.2483

>  <r_i_glide_ecoul>  (60) 
-1.66844

>  <r_i_glide_erotb>  (60) 
0

>  <r_i_glide_esite>  (60) 
0

>  <r_i_glide_emodel>  (60) 
-32.9286

>  <r_i_glide_energy>  (60) 
-25.9167

>  <r_i_glide_einternal>  (60) 
0

>  <r_i_glide_intrahb_reward>  (60) 
-0

>  <i_i_glide_confnum>  (60) 
2

>  <i_i_glide_posenum>  (60) 
19

>  <r_i_glide_eff_state_penalty>  (60) 
0

>  <ligand_id>  (60) 
18

>  <original_smiles>  (60) 
C=C1CCC2C3CCC2C2(CCSC2)C13

>  <smiles>  (60) 
[H]C([H])=C1C([H])([H])C([H])([H])C2([H])C3([H])C([H])([H])C([H])([H])C2([H])C2(C([H])([H])SC([H])([H])C2([H])[H])C13[H]

$$$$
18:0:1
     RDKit          3D

 35 38  0  0  1  0  0  0  0  0999 V2000
    2.4208   -2.1563    1.7847 C   0  0  0  0  0  0  0  0  0  0  0  0
    3.4060   -2.8682    1.2257 C   0  0  0  0  0  0  0  0  0  0  0  0
    3.5838   -4.3570    1.5092 C   0  0  0  0  0  0  0  0  0  0  0  0
    4.5049   -5.0976    0.5071 C   0  0  0  0  0  0  0  0  0  0  0  0
    5.6783   -4.2264   -0.0212 C   0  0  2  0  0  0  0  0  0  0  0  0
    5.8496   -2.8987    0.7179 C   0  0  1  0  0  0  0  0  0  0  0  0
    7.0325   -2.2449   -0.0265 C   0  0  0  0  0  0  0  0  0  0  0  0
    6.8897   -2.8032   -1.4483 C   0  0  0  0  0  0  0  0  0  0  0  0
    5.5171   -3.5156   -1.3837 C   0  0  2  0  0  0  0  0  0  0  0  0
    4.3455   -2.4950   -1.1718 C   0  0  1  0  0  0  0  0  0  0  0  0
    4.4373   -1.2051   -2.0278 C   0  0  0  0  0  0  0  0  0  0  0  0
    4.1848   -1.6145   -3.4732 C   0  0  0  0  0  0  0  0  0  0  0  0
    2.8404   -2.8171   -3.4450 S   0  0  0  0  0  0  0  0  0  0  0  0
    2.9969   -3.0983   -1.6604 C   0  0  0  0  0  0  0  0  0  0  0  0
    4.4981   -2.2229    0.3673 C   0  0  1  0  0  0  0  0  0  0  0  0
    2.3123   -1.0940    1.6097 H   0  0  0  0  0  0  0  0  0  0  0  0
    1.6835   -2.6253    2.4307 H   0  0  0  0  0  0  0  0  0  0  0  0
    4.0432   -4.4171    2.5005 H   0  0  0  0  0  0  0  0  0  0  0  0
    2.6135   -4.8425    1.5980 H   0  0  0  0  0  0  0  0  0  0  0  0
    4.9173   -5.9637    1.0282 H   0  0  0  0  0  0  0  0  0  0  0  0
    3.9264   -5.5186   -0.3199 H   0  0  0  0  0  0  0  0  0  0  0  0
    6.5887   -4.8270    0.0119 H   0  0  0  0  0  0  0  0  0  0  0  0
    6.0314   -2.9821    1.7873 H   0  0  0  0  0  0  0  0  0  0  0  0
    6.9644   -1.1586    0.0279 H   0  0  0  0  0  0  0  0  0  0  0  0
    7.9891   -2.5379    0.4133 H   0  0  0  0  0  0  0  0  0  0  0  0
    6.9666   -2.0552   -2.2400 H   0  0  0  0  0  0  0  0  0  0  0  0
    7.6840   -3.5310   -1.6308 H   0  0  0  0  0  0  0  0  0  0  0  0
    5.3632   -4.1992   -2.2144 H   0  0  0  0  0  0  0  0  0  0  0  0
    3.6289   -0.5359   -1.7243 H   0  0  0  0  0  0  0  0  0  0  0  0
    5.3809   -0.6372   -1.9192 H   0  0  0  0  0  0  0  0  0  0  0  0
    3.9325   -0.7877   -4.1335 H   0  0  0  0  0  0  0  0  0  0  0  0
    5.0512   -2.1305   -3.8779 H   0  0  0  0  0  0  0  0  0  0  0  0
    2.8583   -4.1627   -1.4586 H   0  0  0  0  0  0  0  0  0  0  0  0
    2.1587   -2.6079   -1.1781 H   0  0  0  0  0  0  0  0  0  0  0  0
    4.5173   -1.1554    0.5835 H   0  0  0  0  0  0  0  0  0  0  0  0
  1  2  2  0
  1 16  1  0
  1 17  1  0
  2 15  1  0
  2  3  1  0
  3  4  1  0
  3 18  1  0
  3 19  1  0
  4  5  1  0
  4 20  1  0
  4 21  1  0
  5  9  1  0
  5  6  1  0
  5 22  1  6
  6 15  1  0
  6  7  1  0
  6 23  1  1
  7  8  1  0
  7 24  1  0
  7 25  1  0
  8  9  1  0
  8 26  1  0
  8 27  1  0
  9 10  1  0
  9 28  1  6
 10 14  1  1
 10 11  1  0
 10 15  1  0
 11 12  1  0
 11 29  1  0
 11 30  1  0
 12 13  1  0
 12 31  1  0
 12 32  1  0
 13 14  1  0
 14 33  1  0
 14 34  1  0
 15 35  1  6
M  END
>  <i_m_ct_stereo_status>  (61) 
1

>  <s_m_source_file>  (61) 
/var/tmp/pbs.5076255.sched01/tmp3z6s85wa/08w76y650.sdf

>  <i_m_source_file_index>  (61) 
27

>  <i_lp_mmshare_version>  (61) 
48012

>  <i_f3d_flags>  (61) 
0

>  <s_epik_input>  (61) 
W0NIMl0xW0NIMl1DKD1bQ0gyXSlbQ0BIXTJbQ0BIXShbQ0gyXVtDSDJdMylbQ0BASF0xW0NASF0zW0NAXTI0W0NIMl1bQ0gyXVNbQ0gyXTQ=

>  <s_epik_cmdline>  (61) 
J2VwaWtfcHl0aG9uJywgJy1waHQnLCAnMi4wJywgJy1waCcsICc3LjAnLCAnLXRuJywgJzgnLCAnLW1hJywgJzIwMCcsICctaW1hZScsICc8aW5maWxlLm1hZT4nLCAnLW9tYWUnLCAnPG91dGZpbGUubWFlPic=

>  <r_lp_tautomer_probability>  (61) 
1

>  <r_epik_Ionization_Penalty>  (61) 
0

>  <r_epik_Ionization_Penalty_Charging>  (61) 
0

>  <r_epik_Ionization_Penalty_Neutral>  (61) 
0

>  <r_epik_State_Penalty>  (61) 
-0

>  <r_epik_Charging_Adjusted_Penalty>  (61) 
0

>  <i_epik_Tot_Q>  (61) 
0

>  <i_epik_Tot_abs_Q>  (61) 
0

>  <s_lp_Force_Field>  (61) 
OPLS3e

>  <r_lp_Energy>  (61) 
48.988

>  <b_lp_Chiralities_Consistent>  (61) 
1

>  <s_lp_Variant>  (61) 
18:0-1

>  <s_i_glide_gridfile>  (61) 
pfpi4k_grid

>  <i_i_glide_lignum>  (61) 
27

>  <i_i_glide_rotatable_bonds>  (61) 
0

>  <r_i_docking_score>  (61) 
-3.76515

>  <r_i_glide_ligand_efficiency>  (61) 
-0.25101

>  <r_i_glide_ligand_efficiency_sa>  (61) 
-0.619044

>  <r_i_glide_ligand_efficiency_ln>  (61) 
-1.0154

>  <r_i_glide_gscore>  (61) 
-3.76515

>  <r_i_glide_lipo>  (61) 
-0.672959

>  <r_i_glide_hbond>  (61) 
0

>  <r_i_glide_metal>  (61) 
-0

>  <r_i_glide_rewards>  (61) 
-1.90654

>  <r_i_glide_evdw>  (61) 
-24.362

>  <r_i_glide_ecoul>  (61) 
0.216267

>  <r_i_glide_erotb>  (61) 
0

>  <r_i_glide_esite>  (61) 
0

>  <r_i_glide_emodel>  (61) 
-30.0693

>  <r_i_glide_energy>  (61) 
-24.1457

>  <r_i_glide_einternal>  (61) 
0

>  <r_i_glide_intrahb_reward>  (61) 
-0

>  <i_i_glide_confnum>  (61) 
4

>  <i_i_glide_posenum>  (61) 
6

>  <r_i_glide_eff_state_penalty>  (61) 
0

>  <ligand_id>  (61) 
18

>  <original_smiles>  (61) 
C=C1CCC2C3CCC2C2(CCSC2)C13

>  <smiles>  (61) 
[H]C([H])=C1C([H])([H])C([H])([H])C2([H])C3([H])C([H])([H])C([H])([H])C2([H])C2(C([H])([H])SC([H])([H])C2([H])[H])C13[H]

$$$$
18:0:2
     RDKit          3D

 35 38  0  0  1  0  0  0  0  0999 V2000
    5.7970   -0.8569    1.9313 C   0  0  0  0  0  0  0  0  0  0  0  0
    4.8291   -1.7847    1.9151 C   0  0  0  0  0  0  0  0  0  0  0  0
    3.4818   -1.5444    2.5955 C   0  0  0  0  0  0  0  0  0  0  0  0
    2.3678   -2.4942    2.1042 C   0  0  0  0  0  0  0  0  0  0  0  0
    2.8545   -3.9410    1.8184 C   0  0  2  0  0  0  0  0  0  0  0  0
    4.3109   -4.1992    2.2138 C   0  0  1  0  0  0  0  0  0  0  0  0
    4.5505   -5.6424    1.7497 C   0  0  0  0  0  0  0  0  0  0  0  0
    3.6343   -5.7639    0.5235 C   0  0  0  0  0  0  0  0  0  0  0  0
    3.1250   -4.3124    0.3564 C   0  0  2  0  0  0  0  0  0  0  0  0
    4.3000   -3.3558   -0.0697 C   0  0  1  0  0  0  0  0  0  0  0  0
    5.2367   -3.9905   -1.1381 C   0  0  0  0  0  0  0  0  0  0  0  0
    6.0664   -2.9097   -1.8457 C   0  0  0  0  0  0  0  0  0  0  0  0
    5.0497   -1.4315   -1.9281 S   0  0  0  0  0  0  0  0  0  0  0  0
    3.7925   -2.0565   -0.7877 C   0  0  0  0  0  0  0  0  0  0  0  0
    5.0229   -3.1684    1.3100 C   0  0  1  0  0  0  0  0  0  0  0  0
    6.7605   -1.0358    1.4705 H   0  0  0  0  0  0  0  0  0  0  0  0
    5.6385    0.1043    2.3968 H   0  0  0  0  0  0  0  0  0  0  0  0
    3.6332   -1.7061    3.6617 H   0  0  0  0  0  0  0  0  0  0  0  0
    3.1905   -0.5096    2.4701 H   0  0  0  0  0  0  0  0  0  0  0  0
    1.5890   -2.5289    2.8648 H   0  0  0  0  0  0  0  0  0  0  0  0
    1.8716   -2.0833    1.2262 H   0  0  0  0  0  0  0  0  0  0  0  0
    2.1730   -4.6513    2.2690 H   0  0  0  0  0  0  0  0  0  0  0  0
    4.5205   -4.0662    3.2712 H   0  0  0  0  0  0  0  0  0  0  0  0
    5.5976   -5.8155    1.5080 H   0  0  0  0  0  0  0  0  0  0  0  0
    4.2560   -6.3645    2.5104 H   0  0  0  0  0  0  0  0  0  0  0  0
    4.1414   -6.1963   -0.3379 H   0  0  0  0  0  0  0  0  0  0  0  0
    2.8012   -6.4246    0.7356 H   0  0  0  0  0  0  0  0  0  0  0  0
    2.2623   -4.2602   -0.3157 H   0  0  0  0  0  0  0  0  0  0  0  0
    5.9129   -4.7417   -0.7240 H   0  0  0  0  0  0  0  0  0  0  0  0
    4.6316   -4.4733   -1.8903 H   0  0  0  0  0  0  0  0  0  0  0  0
    6.9505   -2.6893   -1.2669 H   0  0  0  0  0  0  0  0  0  0  0  0
    6.3723   -3.2505   -2.8402 H   0  0  0  0  0  0  0  0  0  0  0  0
    2.9344   -2.3043   -1.4067 H   0  0  0  0  0  0  0  0  0  0  0  0
    3.4501   -1.2282   -0.1574 H   0  0  0  0  0  0  0  0  0  0  0  0
    6.0935   -3.3668    1.2394 H   0  0  0  0  0  0  0  0  0  0  0  0
  1  2  2  0
  1 16  1  0
  1 17  1  0
  2 15  1  0
  2  3  1  0
  3  4  1  0
  3 18  1  0
  3 19  1  0
  4  5  1  0
  4 20  1  0
  4 21  1  0
  5  9  1  0
  5  6  1  0
  5 22  1  1
  6 15  1  0
  6  7  1  0
  6 23  1  1
  7  8  1  0
  7 24  1  0
  7 25  1  0
  8  9  1  0
  8 26  1  0
  8 27  1  0
  9 10  1  0
  9 28  1  6
 10 14  1  6
 10 11  1  0
 10 15  1  0
 11 12  1  0
 11 29  1  0
 11 30  1  0
 12 13  1  0
 12 31  1  0
 12 32  1  0
 13 14  1  0
 14 33  1  0
 14 34  1  0
 15 35  1  6
M  END
>  <i_m_ct_stereo_status>  (62) 
1

>  <s_m_source_file>  (62) 
/var/tmp/pbs.5076255.sched01/tmp3z6s85wa/08w76y650.sdf

>  <i_m_source_file_index>  (62) 
27

>  <i_lp_mmshare_version>  (62) 
48012

>  <i_f3d_flags>  (62) 
0

>  <s_epik_input>  (62) 
W0NIMl0xW0NIMl1DKD1bQ0gyXSlbQ0BIXTJbQ0BIXShbQ0gyXVtDSDJdMylbQ0BASF0xW0NASF0zW0NAXTI0W0NIMl1bQ0gyXVNbQ0gyXTQ=

>  <s_epik_cmdline>  (62) 
J2VwaWtfcHl0aG9uJywgJy1waHQnLCAnMi4wJywgJy1waCcsICc3LjAnLCAnLXRuJywgJzgnLCAnLW1hJywgJzIwMCcsICctaW1hZScsICc8aW5maWxlLm1hZT4nLCAnLW9tYWUnLCAnPG91dGZpbGUubWFlPic=

>  <r_lp_tautomer_probability>  (62) 
1

>  <r_epik_Ionization_Penalty>  (62) 
0

>  <r_epik_Ionization_Penalty_Charging>  (62) 
0

>  <r_epik_Ionization_Penalty_Neutral>  (62) 
0

>  <r_epik_State_Penalty>  (62) 
-0

>  <r_epik_Charging_Adjusted_Penalty>  (62) 
0

>  <i_epik_Tot_Q>  (62) 
0

>  <i_epik_Tot_abs_Q>  (62) 
0

>  <s_lp_Force_Field>  (62) 
OPLS3e

>  <r_lp_Energy>  (62) 
48.988

>  <b_lp_Chiralities_Consistent>  (62) 
1

>  <s_lp_Variant>  (62) 
18:0-1

>  <s_i_glide_gridfile>  (62) 
pfpi4k_grid

>  <i_i_glide_lignum>  (62) 
27

>  <i_i_glide_rotatable_bonds>  (62) 
0

>  <r_i_docking_score>  (62) 
-3.34371

>  <r_i_glide_ligand_efficiency>  (62) 
-0.222914

>  <r_i_glide_ligand_efficiency_sa>  (62) 
-0.549754

>  <r_i_glide_ligand_efficiency_ln>  (62) 
-0.901745

>  <r_i_glide_gscore>  (62) 
-3.34371

>  <r_i_glide_lipo>  (62) 
-0.333599

>  <r_i_glide_hbond>  (62) 
0

>  <r_i_glide_metal>  (62) 
-0

>  <r_i_glide_rewards>  (62) 
-1.90654

>  <r_i_glide_evdw>  (62) 
-19.3592

>  <r_i_glide_ecoul>  (62) 
-0.904125

>  <r_i_glide_erotb>  (62) 
0

>  <r_i_glide_esite>  (62) 
0

>  <r_i_glide_emodel>  (62) 
-25.3685

>  <r_i_glide_energy>  (62) 
-20.2633

>  <r_i_glide_einternal>  (62) 
0

>  <r_i_glide_intrahb_reward>  (62) 
-0

>  <i_i_glide_confnum>  (62) 
1

>  <i_i_glide_posenum>  (62) 
11

>  <r_i_glide_eff_state_penalty>  (62) 
0

>  <ligand_id>  (62) 
18

>  <original_smiles>  (62) 
C=C1CCC2C3CCC2C2(CCSC2)C13

>  <smiles>  (62) 
[H]C([H])=C1C([H])([H])C([H])([H])C2([H])C3([H])C([H])([H])C([H])([H])C2([H])C2(C([H])([H])SC([H])([H])C2([H])[H])C13[H]

$$$$
19:0:0
     RDKit          3D

 34 37  0  0  1  0  0  0  0  0999 V2000
    8.5598   -3.5747    0.3667 C   0  0  0  0  0  0  0  0  0  0  0  0
    8.2325   -2.6582   -0.6432 C   0  0  0  0  0  0  0  0  0  0  0  0
    6.9827   -2.5076   -1.1219 N   0  0  0  0  0  0  0  0  0  0  0  0
    5.9782   -3.2789   -0.6338 C   0  0  0  0  0  0  0  0  0  0  0  0
    4.6483   -3.1627   -1.1105 C   0  0  0  0  0  0  0  0  0  0  0  0
    4.2800   -2.1976   -2.1424 C   0  0  0  0  0  0  0  0  0  0  0  0
    4.6243   -0.9064   -2.1550 N   0  0  0  0  0  0  0  0  0  0  0  0
    4.0981   -0.2287   -3.2526 C   0  0  0  0  0  0  0  0  0  0  0  0
    3.3668   -1.0230   -4.0916 C   0  0  0  0  0  0  0  0  0  0  0  0
    3.2640   -2.6563   -3.5136 S   0  0  0  0  0  0  0  0  0  0  0  0
    3.6276   -3.9755   -0.5840 C   0  0  0  0  0  0  0  0  0  0  0  0
    3.8945   -4.9359    0.4062 C   0  0  0  0  0  0  0  0  0  0  0  0
    2.8229   -5.6787    0.8336 O   0  0  0  0  0  0  0  0  0  0  0  0
    3.0305   -6.8051    1.6720 C   0  0  0  0  0  0  0  0  0  0  0  0
    1.6684   -7.2891    2.1278 C   0  0  0  0  0  0  0  0  0  0  0  0
    0.4281   -7.0563    1.2834 C   0  0  0  0  0  0  0  0  0  0  0  0
    0.6210   -6.2811    2.5602 C   0  0  0  0  0  0  0  0  0  0  0  0
    5.2111   -5.0677    0.8930 C   0  0  0  0  0  0  0  0  0  0  0  0
    6.2358   -4.2468    0.3791 C   0  0  0  0  0  0  0  0  0  0  0  0
    7.5412   -4.3925    0.8843 C   0  0  0  0  0  0  0  0  0  0  0  0
    9.5652   -3.6350    0.7524 H   0  0  0  0  0  0  0  0  0  0  0  0
    8.9954   -2.0199   -1.0695 H   0  0  0  0  0  0  0  0  0  0  0  0
    4.2950    0.8300   -3.3547 H   0  0  0  0  0  0  0  0  0  0  0  0
    2.8537   -0.7312   -4.9918 H   0  0  0  0  0  0  0  0  0  0  0  0
    2.6154   -3.8837   -0.9527 H   0  0  0  0  0  0  0  0  0  0  0  0
    3.5339   -7.5999    1.1171 H   0  0  0  0  0  0  0  0  0  0  0  0
    3.6134   -6.5711    2.5639 H   0  0  0  0  0  0  0  0  0  0  0  0
    1.7049   -8.2097    2.7057 H   0  0  0  0  0  0  0  0  0  0  0  0
    0.5641   -6.5501    0.3298 H   0  0  0  0  0  0  0  0  0  0  0  0
   -0.3174   -7.8497    1.2790 H   0  0  0  0  0  0  0  0  0  0  0  0
   -0.0137   -6.5435    3.4045 H   0  0  0  0  0  0  0  0  0  0  0  0
    0.8958   -5.2282    2.4978 H   0  0  0  0  0  0  0  0  0  0  0  0
    5.4622   -5.7844    1.6618 H   0  0  0  0  0  0  0  0  0  0  0  0
    7.7596   -5.1064    1.6657 H   0  0  0  0  0  0  0  0  0  0  0  0
  1 20  2  0
  1  2  1  0
  1 21  1  0
  2  3  2  0
  2 22  1  0
  3  4  1  0
  4 19  2  0
  4  5  1  0
  5  6  1  0
  5 11  2  0
  6 10  1  0
  6  7  2  0
  7  8  1  0
  8  9  2  0
  8 23  1  0
  9 10  1  0
  9 24  1  0
 11 12  1  0
 11 25  1  0
 12 13  1  0
 12 18  2  0
 13 14  1  0
 14 15  1  0
 14 26  1  0
 14 27  1  0
 15 17  1  0
 15 16  1  0
 15 28  1  0
 16 17  1  0
 16 29  1  0
 16 30  1  0
 17 31  1  0
 17 32  1  0
 18 19  1  0
 18 33  1  0
 19 20  1  0
 20 34  1  0
M  END
>  <i_m_ct_stereo_status>  (63) 
1

>  <s_m_source_file>  (63) 
/var/tmp/pbs.5076255.sched01/tmp3z6s85wa/08w76y650.sdf

>  <i_m_source_file_index>  (63) 
28

>  <i_lp_mmshare_version>  (63) 
48012

>  <i_f3d_flags>  (63) 
0

>  <s_epik_input>  (63) 
bjFbY0hdW2NIXVtjSF1jKGMxMilbY0hdYyhPW0NIMl1bQ0hdM1tDSDJdW0NIMl0zKVtjSF1jMi1jNG5bY0hdW2NIXXM0

>  <s_epik_cmdline>  (63) 
J2VwaWtfcHl0aG9uJywgJy1waHQnLCAnMi4wJywgJy1waCcsICc3LjAnLCAnLXRuJywgJzgnLCAnLW1hJywgJzIwMCcsICctaW1hZScsICc8aW5maWxlLm1hZT4nLCAnLW9tYWUnLCAnPG91dGZpbGUubWFlPic=

>  <r_lp_tautomer_probability>  (63) 
1

>  <r_epik_Ionization_Penalty>  (63) 
0.000125003

>  <r_epik_Ionization_Penalty_Charging>  (63) 
0

>  <r_epik_Ionization_Penalty_Neutral>  (63) 
0.000125003

>  <r_epik_State_Penalty>  (63) 
-0

>  <r_epik_Charging_Adjusted_Penalty>  (63) 
0

>  <i_epik_Tot_Q>  (63) 
0

>  <i_epik_Tot_abs_Q>  (63) 
0

>  <s_lp_Force_Field>  (63) 
OPLS3e

>  <r_lp_Energy>  (63) 
36.2064

>  <b_lp_Chiralities_Consistent>  (63) 
1

>  <s_lp_Variant>  (63) 
19:0-1

>  <s_i_glide_gridfile>  (63) 
pfpi4k_grid

>  <i_i_glide_lignum>  (63) 
28

>  <i_i_glide_rotatable_bonds>  (63) 
4

>  <r_i_docking_score>  (63) 
-3.9187

>  <r_i_glide_ligand_efficiency>  (63) 
-0.195935

>  <r_i_glide_ligand_efficiency_sa>  (63) 
-0.53185

>  <r_i_glide_ligand_efficiency_ln>  (63) 
-0.980722

>  <r_i_glide_gscore>  (63) 
-3.9187

>  <r_i_glide_lipo>  (63) 
-1.15361

>  <r_i_glide_hbond>  (63) 
-0.123557

>  <r_i_glide_metal>  (63) 
-0

>  <r_i_glide_rewards>  (63) 
-1.4839

>  <r_i_glide_evdw>  (63) 
-33.3149

>  <r_i_glide_ecoul>  (63) 
-2.664

>  <r_i_glide_erotb>  (63) 
0.90771

>  <r_i_glide_esite>  (63) 
0

>  <r_i_glide_emodel>  (63) 
-44.48

>  <r_i_glide_energy>  (63) 
-35.9789

>  <r_i_glide_einternal>  (63) 
1.02592

>  <r_i_glide_intrahb_reward>  (63) 
-0

>  <i_i_glide_confnum>  (63) 
1

>  <i_i_glide_posenum>  (63) 
29

>  <r_i_glide_eff_state_penalty>  (63) 
0

>  <ligand_id>  (63) 
19

>  <original_smiles>  (63) 
c1cnc2c(-c3nccs3)cc(OCC3CC3)cc2c1

>  <smiles>  (63) 
[H]c1nc(-c2c([H])c(OC([H])([H])C3([H])C([H])([H])C3([H])[H])c([H])c3c([H])c([H])c([H])nc23)sc1[H]

$$$$
19:0:1
     RDKit          3D

 34 37  0  0  1  0  0  0  0  0999 V2000
    7.4361   -4.6645    1.1518 C   0  0  0  0  0  0  0  0  0  0  0  0
    7.3923   -3.6645    0.1688 C   0  0  0  0  0  0  0  0  0  0  0  0
    6.2600   -3.3183   -0.4716 N   0  0  0  0  0  0  0  0  0  0  0  0
    5.0875   -3.9260   -0.1607 C   0  0  0  0  0  0  0  0  0  0  0  0
    3.8700   -3.5624   -0.7966 C   0  0  0  0  0  0  0  0  0  0  0  0
    3.8082   -2.5111   -1.8116 C   0  0  0  0  0  0  0  0  0  0  0  0
    4.4269   -1.3254   -1.7492 N   0  0  0  0  0  0  0  0  0  0  0  0
    4.1637   -0.5290   -2.8602 C   0  0  0  0  0  0  0  0  0  0  0  0
    3.3370   -1.1158   -3.7785 C   0  0  0  0  0  0  0  0  0  0  0  0
    2.8422   -2.7054   -3.2811 S   0  0  0  0  0  0  0  0  0  0  0  0
    2.6730   -4.2242   -0.4571 C   0  0  0  0  0  0  0  0  0  0  0  0
    2.6428   -5.2622    0.4904 C   0  0  0  0  0  0  0  0  0  0  0  0
    1.4222   -5.8813    0.6752 O   0  0  0  0  0  0  0  0  0  0  0  0
    1.3548   -7.0986    1.4079 C   0  0  0  0  0  0  0  0  0  0  0  0
    0.8563   -6.8279    2.8128 C   0  0  0  0  0  0  0  0  0  0  0  0
    0.4749   -7.9957    3.6939 C   0  0  0  0  0  0  0  0  0  0  0  0
   -0.5949   -7.0813    3.1564 C   0  0  0  0  0  0  0  0  0  0  0  0
    3.8430   -5.6073    1.1535 C   0  0  0  0  0  0  0  0  0  0  0  0
    5.0496   -4.9527    0.8232 C   0  0  0  0  0  0  0  0  0  0  0  0
    6.2395   -5.3263    1.4813 C   0  0  0  0  0  0  0  0  0  0  0  0
    8.3634   -4.9208    1.6482 H   0  0  0  0  0  0  0  0  0  0  0  0
    8.2871   -3.1257   -0.1135 H   0  0  0  0  0  0  0  0  0  0  0  0
    4.5933    0.4605   -2.8926 H   0  0  0  0  0  0  0  0  0  0  0  0
    2.9589   -0.6998   -4.6949 H   0  0  0  0  0  0  0  0  0  0  0  0
    1.7550   -3.9673   -0.9665 H   0  0  0  0  0  0  0  0  0  0  0  0
    0.6421   -7.7451    0.8909 H   0  0  0  0  0  0  0  0  0  0  0  0
    2.2810   -7.6729    1.4379 H   0  0  0  0  0  0  0  0  0  0  0  0
    1.3492   -5.9970    3.3210 H   0  0  0  0  0  0  0  0  0  0  0  0
    0.5570   -8.9927    3.2626 H   0  0  0  0  0  0  0  0  0  0  0  0
    0.7045   -7.9259    4.7551 H   0  0  0  0  0  0  0  0  0  0  0  0
   -1.0729   -6.4072    3.8639 H   0  0  0  0  0  0  0  0  0  0  0  0
   -1.2352   -7.4639    2.3620 H   0  0  0  0  0  0  0  0  0  0  0  0
    3.8795   -6.3735    1.9138 H   0  0  0  0  0  0  0  0  0  0  0  0
    6.2379   -6.1033    2.2323 H   0  0  0  0  0  0  0  0  0  0  0  0
  1 20  2  0
  1  2  1  0
  1 21  1  0
  2  3  2  0
  2 22  1  0
  3  4  1  0
  4 19  2  0
  4  5  1  0
  5  6  1  0
  5 11  2  0
  6 10  1  0
  6  7  2  0
  7  8  1  0
  8  9  2  0
  8 23  1  0
  9 10  1  0
  9 24  1  0
 11 12  1  0
 11 25  1  0
 12 13  1  0
 12 18  2  0
 13 14  1  0
 14 15  1  0
 14 26  1  0
 14 27  1  0
 15 17  1  0
 15 16  1  0
 15 28  1  0
 16 17  1  0
 16 29  1  0
 16 30  1  0
 17 31  1  0
 17 32  1  0
 18 19  1  0
 18 33  1  0
 19 20  1  0
 20 34  1  0
M  END
>  <i_m_ct_stereo_status>  (64) 
1

>  <s_m_source_file>  (64) 
/var/tmp/pbs.5076255.sched01/tmp3z6s85wa/08w76y650.sdf

>  <i_m_source_file_index>  (64) 
28

>  <i_lp_mmshare_version>  (64) 
48012

>  <i_f3d_flags>  (64) 
0

>  <s_epik_input>  (64) 
bjFbY0hdW2NIXVtjSF1jKGMxMilbY0hdYyhPW0NIMl1bQ0hdM1tDSDJdW0NIMl0zKVtjSF1jMi1jNG5bY0hdW2NIXXM0

>  <s_epik_cmdline>  (64) 
J2VwaWtfcHl0aG9uJywgJy1waHQnLCAnMi4wJywgJy1waCcsICc3LjAnLCAnLXRuJywgJzgnLCAnLW1hJywgJzIwMCcsICctaW1hZScsICc8aW5maWxlLm1hZT4nLCAnLW9tYWUnLCAnPG91dGZpbGUubWFlPic=

>  <r_lp_tautomer_probability>  (64) 
1

>  <r_epik_Ionization_Penalty>  (64) 
0.000125003

>  <r_epik_Ionization_Penalty_Charging>  (64) 
0

>  <r_epik_Ionization_Penalty_Neutral>  (64) 
0.000125003

>  <r_epik_State_Penalty>  (64) 
-0

>  <r_epik_Charging_Adjusted_Penalty>  (64) 
0

>  <i_epik_Tot_Q>  (64) 
0

>  <i_epik_Tot_abs_Q>  (64) 
0

>  <s_lp_Force_Field>  (64) 
OPLS3e

>  <r_lp_Energy>  (64) 
36.2064

>  <b_lp_Chiralities_Consistent>  (64) 
1

>  <s_lp_Variant>  (64) 
19:0-1

>  <s_i_glide_gridfile>  (64) 
pfpi4k_grid

>  <i_i_glide_lignum>  (64) 
28

>  <i_i_glide_rotatable_bonds>  (64) 
4

>  <r_i_docking_score>  (64) 
-3.67208

>  <r_i_glide_ligand_efficiency>  (64) 
-0.183604

>  <r_i_glide_ligand_efficiency_sa>  (64) 
-0.498378

>  <r_i_glide_ligand_efficiency_ln>  (64) 
-0.919

>  <r_i_glide_gscore>  (64) 
-3.67208

>  <r_i_glide_lipo>  (64) 
-1.00768

>  <r_i_glide_hbond>  (64) 
-0.158011

>  <r_i_glide_metal>  (64) 
-0

>  <r_i_glide_rewards>  (64) 
-1.4839

>  <r_i_glide_evdw>  (64) 
-30.9849

>  <r_i_glide_ecoul>  (64) 
-2.53971

>  <r_i_glide_erotb>  (64) 
0.90771

>  <r_i_glide_esite>  (64) 
0

>  <r_i_glide_emodel>  (64) 
-41.2729

>  <r_i_glide_energy>  (64) 
-33.5246

>  <r_i_glide_einternal>  (64) 
1.54535

>  <r_i_glide_intrahb_reward>  (64) 
-0

>  <i_i_glide_confnum>  (64) 
1

>  <i_i_glide_posenum>  (64) 
2

>  <r_i_glide_eff_state_penalty>  (64) 
0

>  <ligand_id>  (64) 
19

>  <original_smiles>  (64) 
c1cnc2c(-c3nccs3)cc(OCC3CC3)cc2c1

>  <smiles>  (64) 
[H]c1nc(-c2c([H])c(OC([H])([H])C3([H])C([H])([H])C3([H])[H])c([H])c3c([H])c([H])c([H])nc23)sc1[H]

$$$$
19:0:2
     RDKit          3D

 34 37  0  0  1  0  0  0  0  0999 V2000
    8.3203   -3.6858    0.3275 C   0  0  0  0  0  0  0  0  0  0  0  0
    8.0420   -2.7693   -0.7089 C   0  0  0  0  0  0  0  0  0  0  0  0
    6.7926   -2.5797   -1.1762 N   0  0  0  0  0  0  0  0  0  0  0  0
    5.7607   -3.2975   -0.7071 C   0  0  0  0  0  0  0  0  0  0  0  0
    4.4288   -3.1176   -1.1864 C   0  0  0  0  0  0  0  0  0  0  0  0
    4.0936   -2.1417   -2.2019 C   0  0  0  0  0  0  0  0  0  0  0  0
    4.5430   -0.8820   -2.2707 N   0  0  0  0  0  0  0  0  0  0  0  0
    4.0394   -0.2141   -3.3889 C   0  0  0  0  0  0  0  0  0  0  0  0
    3.2293   -0.9758   -4.1780 C   0  0  0  0  0  0  0  0  0  0  0  0
    3.0169   -2.5713   -3.5359 S   0  0  0  0  0  0  0  0  0  0  0  0
    3.3769   -3.8792   -0.6502 C   0  0  0  0  0  0  0  0  0  0  0  0
    3.5754   -4.8502    0.3190 C   0  0  0  0  0  0  0  0  0  0  0  0
    2.4771   -5.5452    0.7845 O   0  0  0  0  0  0  0  0  0  0  0  0
    2.6332   -6.4543    1.8716 C   0  0  0  0  0  0  0  0  0  0  0  0
    2.8112   -5.7569    3.2161 C   0  0  0  0  0  0  0  0  0  0  0  0
    2.0203   -4.4978    3.5271 C   0  0  0  0  0  0  0  0  0  0  0  0
    3.5016   -4.4182    3.4044 C   0  0  0  0  0  0  0  0  0  0  0  0
    4.9361   -5.0660    0.7924 C   0  0  0  0  0  0  0  0  0  0  0  0
    5.9668   -4.2643    0.3197 C   0  0  0  0  0  0  0  0  0  0  0  0
    7.2826   -4.4439    0.8453 C   0  0  0  0  0  0  0  0  0  0  0  0
    9.3289   -3.7935    0.6996 H   0  0  0  0  0  0  0  0  0  0  0  0
    8.8375   -2.1989   -1.1612 H   0  0  0  0  0  0  0  0  0  0  0  0
    4.3231    0.8063   -3.5242 H   0  0  0  0  0  0  0  0  0  0  0  0
    2.7280   -0.6829   -5.0788 H   0  0  0  0  0  0  0  0  0  0  0  0
    2.3601   -3.7051   -0.9723 H   0  0  0  0  0  0  0  0  0  0  0  0
    1.7353   -7.0759    1.8948 H   0  0  0  0  0  0  0  0  0  0  0  0
    3.4569   -7.1419    1.6748 H   0  0  0  0  0  0  0  0  0  0  0  0
    2.8936   -6.4691    4.0429 H   0  0  0  0  0  0  0  0  0  0  0  0
    1.4204   -4.0959    2.7135 H   0  0  0  0  0  0  0  0  0  0  0  0
    1.6112   -4.3206    4.5250 H   0  0  0  0  0  0  0  0  0  0  0  0
    4.1059   -4.3308    4.2841 H   0  0  0  0  0  0  0  0  0  0  0  0
    3.8027   -3.7900    2.5705 H   0  0  0  0  0  0  0  0  0  0  0  0
    5.1252   -5.7686    1.5895 H   0  0  0  0  0  0  0  0  0  0  0  0
    7.4514   -5.1339    1.6562 H   0  0  0  0  0  0  0  0  0  0  0  0
  1 20  2  0
  1  2  1  0
  1 21  1  0
  2  3  2  0
  2 22  1  0
  3  4  1  0
  4 19  2  0
  4  5  1  0
  5  6  1  0
  5 11  2  0
  6 10  1  0
  6  7  2  0
  7  8  1  0
  8  9  2  0
  8 23  1  0
  9 10  1  0
  9 24  1  0
 11 12  1  0
 11 25  1  0
 12 13  1  0
 12 18  2  0
 13 14  1  0
 14 15  1  0
 14 26  1  0
 14 27  1  0
 15 17  1  0
 15 16  1  0
 15 28  1  0
 16 17  1  0
 16 29  1  0
 16 30  1  0
 17 31  1  0
 17 32  1  0
 18 19  1  0
 18 33  1  0
 19 20  1  0
 20 34  1  0
M  END
>  <i_m_ct_stereo_status>  (65) 
1

>  <s_m_source_file>  (65) 
/var/tmp/pbs.5076255.sched01/tmp3z6s85wa/08w76y650.sdf

>  <i_m_source_file_index>  (65) 
28

>  <i_lp_mmshare_version>  (65) 
48012

>  <i_f3d_flags>  (65) 
0

>  <s_epik_input>  (65) 
bjFbY0hdW2NIXVtjSF1jKGMxMilbY0hdYyhPW0NIMl1bQ0hdM1tDSDJdW0NIMl0zKVtjSF1jMi1jNG5bY0hdW2NIXXM0

>  <s_epik_cmdline>  (65) 
J2VwaWtfcHl0aG9uJywgJy1waHQnLCAnMi4wJywgJy1waCcsICc3LjAnLCAnLXRuJywgJzgnLCAnLW1hJywgJzIwMCcsICctaW1hZScsICc8aW5maWxlLm1hZT4nLCAnLW9tYWUnLCAnPG91dGZpbGUubWFlPic=

>  <r_lp_tautomer_probability>  (65) 
1

>  <r_epik_Ionization_Penalty>  (65) 
0.000125003

>  <r_epik_Ionization_Penalty_Charging>  (65) 
0

>  <r_epik_Ionization_Penalty_Neutral>  (65) 
0.000125003

>  <r_epik_State_Penalty>  (65) 
-0

>  <r_epik_Charging_Adjusted_Penalty>  (65) 
0

>  <i_epik_Tot_Q>  (65) 
0

>  <i_epik_Tot_abs_Q>  (65) 
0

>  <s_lp_Force_Field>  (65) 
OPLS3e

>  <r_lp_Energy>  (65) 
36.2064

>  <b_lp_Chiralities_Consistent>  (65) 
1

>  <s_lp_Variant>  (65) 
19:0-1

>  <s_i_glide_gridfile>  (65) 
pfpi4k_grid

>  <i_i_glide_lignum>  (65) 
28

>  <i_i_glide_rotatable_bonds>  (65) 
4

>  <r_i_docking_score>  (65) 
-3.57786

>  <r_i_glide_ligand_efficiency>  (65) 
-0.178893

>  <r_i_glide_ligand_efficiency_sa>  (65) 
-0.485591

>  <r_i_glide_ligand_efficiency_ln>  (65) 
-0.895421

>  <r_i_glide_gscore>  (65) 
-3.57786

>  <r_i_glide_lipo>  (65) 
-1.07334

>  <r_i_glide_hbond>  (65) 
-0.0729675

>  <r_i_glide_metal>  (65) 
-0

>  <r_i_glide_rewards>  (65) 
-1.4839

>  <r_i_glide_evdw>  (65) 
-30.4705

>  <r_i_glide_ecoul>  (65) 
-2.21229

>  <r_i_glide_erotb>  (65) 
0.90771

>  <r_i_glide_esite>  (65) 
0

>  <r_i_glide_emodel>  (65) 
-40.2939

>  <r_i_glide_energy>  (65) 
-32.6828

>  <r_i_glide_einternal>  (65) 
0.160771

>  <r_i_glide_intrahb_reward>  (65) 
-0

>  <i_i_glide_confnum>  (65) 
1

>  <i_i_glide_posenum>  (65) 
1

>  <r_i_glide_eff_state_penalty>  (65) 
0

>  <ligand_id>  (65) 
19

>  <original_smiles>  (65) 
c1cnc2c(-c3nccs3)cc(OCC3CC3)cc2c1

>  <smiles>  (65) 
[H]c1nc(-c2c([H])c(OC([H])([H])C3([H])C([H])([H])C3([H])[H])c([H])c3c([H])c([H])c([H])nc23)sc1[H]

$$$$
20:0:0
     RDKit          3D

 84 89  0  0  1  0  0  0  0  0999 V2000
    0.7970   -2.8697    5.5451 C   0  0  0  0  0  0  0  0  0  0  0  0
   -0.0447   -3.9478    5.9261 O   0  0  0  0  0  0  0  0  0  0  0  0
    0.5393   -5.2291    5.7136 C   0  0  2  0  0  0  0  0  0  0  0  0
    0.5435   -5.5533    4.2139 C   0  0  0  0  0  0  0  0  0  0  0  0
    1.0279   -6.9758    3.9570 C   0  0  0  0  0  0  0  0  0  0  0  0
    0.2155   -8.0655    4.7065 C   0  0  2  0  0  0  0  0  0  0  0  0
   -1.2357   -8.0250    4.1537 C   0  0  0  0  0  0  0  0  0  0  0  0
    0.1772   -7.7270    6.2300 C   0  0  1  0  0  0  0  0  0  0  0  0
    1.4985   -8.0380    6.9560 C   0  0  0  0  0  0  0  0  0  0  0  0
    1.8227   -9.5253    6.8531 C   0  0  0  0  0  0  0  0  0  0  0  0
    1.9298  -10.0167    5.3977 C   0  0  1  0  0  0  0  0  0  0  0  0
    0.7402   -9.5424    4.4873 C   0  0  2  0  0  0  0  0  0  0  0  0
    0.8920   -9.9803    2.9828 C   0  0  0  0  0  0  0  0  0  0  0  0
    2.3150   -9.7764    2.3621 C   0  0  1  0  0  0  0  0  0  0  0  0
    2.4998   -8.4396    2.0076 O   0  0  0  0  0  0  0  0  0  0  0  0
    3.3853  -10.3767    3.3115 C   0  0  1  0  0  0  0  0  0  0  0  0
    3.1397  -11.9181    3.4093 C   0  0  0  0  0  0  0  0  0  0  0  0
    4.8960  -10.1973    2.9371 C   0  0  1  0  0  0  0  0  0  0  0  0
    5.3745   -8.9661    2.0769 C   0  0  2  0  0  0  0  0  0  0  0  0
    6.7767   -9.2518    1.5294 C   0  0  0  0  0  0  0  0  0  0  0  0
    5.2120   -7.5078    2.6331 C   0  0  2  0  0  0  0  0  0  0  0  0
    5.4372   -6.5196    1.6069 O   0  0  0  0  0  0  0  0  0  0  0  0
    6.1381   -5.3959    2.1710 C   0  0  2  0  0  0  0  0  0  0  0  0
    6.8813   -4.5074    1.1474 C   0  0  0  0  0  0  0  0  0  0  0  0
    8.1387   -5.2093    0.5800 C   0  0  1  0  0  0  0  0  0  0  0  0
    9.0002   -4.0132   -0.4398 Cl  0  0  0  0  0  0  0  0  0  0  0  0
    8.9656   -5.5934    1.6761 O   0  0  0  0  0  0  0  0  0  0  0  0
    8.3684   -6.6324    2.4147 C   0  0  0  0  0  0  0  0  0  0  0  0
    7.1117   -6.0367    3.1672 C   0  0  2  0  0  0  0  0  0  0  0  0
    6.2085   -7.1148    3.7851 C   0  0  1  0  0  0  0  0  0  0  0  0
    5.3929   -6.5051    4.9653 C   0  0  0  0  0  0  0  0  0  0  0  0
    5.6520  -10.3715    4.2971 C   0  0  0  0  0  0  0  0  0  0  0  0
    4.5752  -10.2765    5.4142 C   0  0  0  0  0  0  0  0  0  0  0  0
    3.2977   -9.7499    4.7179 C   0  0  2  0  0  0  0  0  0  0  0  0
   -0.2927   -6.2677    6.4878 C   0  0  0  0  0  0  0  0  0  0  0  0
    0.3142   -1.9260    5.8004 H   0  0  0  0  0  0  0  0  0  0  0  0
    0.9956   -2.8554    4.4731 H   0  0  0  0  0  0  0  0  0  0  0  0
    1.7482   -2.9244    6.0746 H   0  0  0  0  0  0  0  0  0  0  0  0
    1.5577   -5.2392    6.0975 H   0  0  0  0  0  0  0  0  0  0  0  0
   -0.4572   -5.4418    3.8150 H   0  0  0  0  0  0  0  0  0  0  0  0
    1.1727   -4.8664    3.6523 H   0  0  0  0  0  0  0  0  0  0  0  0
    0.9384   -7.1303    2.8892 H   0  0  0  0  0  0  0  0  0  0  0  0
    2.0883   -7.0206    4.2029 H   0  0  0  0  0  0  0  0  0  0  0  0
   -1.8594   -8.7784    4.6280 H   0  0  0  0  0  0  0  0  0  0  0  0
   -1.2665   -8.1949    3.0824 H   0  0  0  0  0  0  0  0  0  0  0  0
   -1.7335   -7.0732    4.3034 H   0  0  0  0  0  0  0  0  0  0  0  0
   -0.5602   -8.4002    6.6752 H   0  0  0  0  0  0  0  0  0  0  0  0
    2.3250   -7.4535    6.5546 H   0  0  0  0  0  0  0  0  0  0  0  0
    1.4109   -7.7785    8.0117 H   0  0  0  0  0  0  0  0  0  0  0  0
    2.7286   -9.7683    7.4101 H   0  0  0  0  0  0  0  0  0  0  0  0
    1.0312  -10.0916    7.3423 H   0  0  0  0  0  0  0  0  0  0  0  0
    1.8468  -11.0992    5.5079 H   0  0  0  0  0  0  0  0  0  0  0  0
   -0.0783  -10.1577    4.8795 H   0  0  0  0  0  0  0  0  0  0  0  0
    0.6088  -11.0261    2.9429 H   0  0  0  0  0  0  0  0  0  0  0  0
    0.1513   -9.5100    2.3462 H   0  0  0  0  0  0  0  0  0  0  0  0
    2.3361  -10.3157    1.4146 H   0  0  0  0  0  0  0  0  0  0  0  0
    1.7789   -8.1705    1.5040 H   0  0  0  0  0  0  0  0  0  0  0  0
    3.8271  -12.4314    4.0918 H   0  0  0  0  0  0  0  0  0  0  0  0
    3.2649  -12.4017    2.4373 H   0  0  0  0  0  0  0  0  0  0  0  0
    2.1359  -12.1904    3.7538 H   0  0  0  0  0  0  0  0  0  0  0  0
    5.1438  -11.0481    2.3082 H   0  0  0  0  0  0  0  0  0  0  0  0
    4.7702   -8.9965    1.1601 H   0  0  0  0  0  0  0  0  0  0  0  0
    7.5234   -9.1401    2.3371 H   0  0  0  0  0  0  0  0  0  0  0  0
    7.0118   -8.4765    0.7880 H   0  0  0  0  0  0  0  0  0  0  0  0
    6.9124  -10.2070    1.0418 H   0  0  0  0  0  0  0  0  0  0  0  0
    4.2147   -7.3820    3.0221 H   0  0  0  0  0  0  0  0  0  0  0  0
    5.4145   -4.7387    2.7047 H   0  0  0  0  0  0  0  0  0  0  0  0
    6.2006   -4.1464    0.3515 H   0  0  0  0  0  0  0  0  0  0  0  0
    7.2413   -3.6107    1.6815 H   0  0  0  0  0  0  0  0  0  0  0  0
    7.8243   -6.0361   -0.0570 H   0  0  0  0  0  0  0  0  0  0  0  0
    8.1859   -7.4211    1.7609 H   0  0  0  0  0  0  0  0  0  0  0  0
    9.0519   -6.9839    3.1968 H   0  0  0  0  0  0  0  0  0  0  0  0
    7.4087   -5.3171    3.9376 H   0  0  0  0  0  0  0  0  0  0  0  0
    6.8388   -7.9073    4.1473 H   0  0  0  0  0  0  0  0  0  0  0  0
    4.7016   -5.7131    4.6661 H   0  0  0  0  0  0  0  0  0  0  0  0
    6.0562   -6.1006    5.7275 H   0  0  0  0  0  0  0  0  0  0  0  0
    4.7915   -7.2642    5.4482 H   0  0  0  0  0  0  0  0  0  0  0  0
    6.0874  -11.3743    4.3172 H   0  0  0  0  0  0  0  0  0  0  0  0
    6.4374   -9.6819    4.4626 H   0  0  0  0  0  0  0  0  0  0  0  0
    4.3754  -11.2516    5.8558 H   0  0  0  0  0  0  0  0  0  0  0  0
    4.8921   -9.6283    6.2307 H   0  0  0  0  0  0  0  0  0  0  0  0
    3.3944   -8.6731    4.6257 H   0  0  0  0  0  0  0  0  0  0  0  0
   -0.2799   -6.0521    7.5572 H   0  0  0  0  0  0  0  0  0  0  0  0
   -1.3288   -6.1523    6.1731 H   0  0  0  0  0  0  0  0  0  0  0  0
  1  2  1  0
  1 36  1  0
  1 37  1  0
  1 38  1  0
  2  3  1  0
  3 35  1  0
  3  4  1  0
  3 39  1  1
  4  5  1  0
  4 40  1  0
  4 41  1  0
  5  6  1  0
  5 42  1  0
  5 43  1  0
  6 12  1  0
  6  7  1  6
  6  8  1  0
  7 44  1  0
  7 45  1  0
  7 46  1  0
  8  9  1  0
  8 35  1  0
  8 47  1  1
  9 10  1  0
  9 48  1  0
  9 49  1  0
 10 11  1  0
 10 50  1  0
 10 51  1  0
 11 34  1  0
 11 12  1  0
 11 52  1  1
 12 13  1  0
 12 53  1  1
 13 14  1  0
 13 54  1  0
 13 55  1  0
 14 15  1  0
 14 16  1  0
 14 56  1  6
 15 57  1  0
 16 34  1  0
 16 17  1  1
 16 18  1  0
 17 58  1  0
 17 59  1  0
 17 60  1  0
 18 19  1  0
 18 32  1  0
 18 61  1  6
 19 20  1  0
 19 21  1  0
 19 62  1  6
 20 63  1  0
 20 64  1  0
 20 65  1  0
 21 30  1  0
 21 22  1  0
 21 66  1  1
 22 23  1  0
 23 29  1  0
 23 24  1  0
 23 67  1  1
 24 25  1  0
 24 68  1  0
 24 69  1  0
 25 26  1  0
 25 27  1  0
 25 70  1  6
 27 28  1  0
 28 29  1  0
 28 71  1  0
 28 72  1  0
 29 30  1  0
 29 73  1  1
 30 31  1  0
 30 74  1  1
 31 75  1  0
 31 76  1  0
 31 77  1  0
 32 33  1  0
 32 78  1  0
 32 79  1  0
 33 34  1  0
 33 80  1  0
 33 81  1  0
 34 82  1  6
 35 83  1  0
 35 84  1  0
M  END
>  <i_m_ct_stereo_status>  (66) 
1

>  <s_m_source_file>  (66) 
/var/tmp/pbs.5076255.sched01/tmp3z6s85wa/08w76y650.sdf

>  <i_m_source_file_index>  (66) 
29

>  <i_lp_mmshare_version>  (66) 
48012

>  <i_f3d_flags>  (66) 
0

>  <s_epik_input>  (66) 
W0NIM11PW0NASF0oW0NIMl1bQ0gyXTEpW0NIMl1bQ0BASF0oW0NAQF0xMltDSDNdKVtDSDJdW0NIMl1bQ0BIXTNbQ0BASF0yW0NIMl1bQ0BASF0oW09IXSlbQ0BdNChbQ0gzXSlbQ0BASF0zW0NIMl1bQ0gyXVtDQEBIXTRbQ0BIXShbQ0gzXSlbQ0BIXShPNSlbQ0BIXShbQ0gzXSlbQ0BIXShbQ0BIXTU2KVtDSDJdT1tDQEhdKENsKVtDSDJdNg==

>  <s_epik_cmdline>  (66) 
J2VwaWtfcHl0aG9uJywgJy1waHQnLCAnMi4wJywgJy1waCcsICc3LjAnLCAnLXRuJywgJzgnLCAnLW1hJywgJzIwMCcsICctaW1hZScsICc8aW5maWxlLm1hZT4nLCAnLW9tYWUnLCAnPG91dGZpbGUubWFlPic=

>  <r_lp_tautomer_probability>  (66) 
1

>  <r_epik_Ionization_Penalty>  (66) 
3.06278e-06

>  <r_epik_Ionization_Penalty_Charging>  (66) 
0

>  <r_epik_Ionization_Penalty_Neutral>  (66) 
3.06278e-06

>  <r_epik_State_Penalty>  (66) 
-0

>  <r_epik_Charging_Adjusted_Penalty>  (66) 
0

>  <i_epik_Tot_Q>  (66) 
0

>  <i_epik_Tot_abs_Q>  (66) 
0

>  <s_lp_Force_Field>  (66) 
OPLS3e

>  <r_lp_Energy>  (66) 
65.9435

>  <b_lp_Chiralities_Consistent>  (66) 
1

>  <s_lp_Variant>  (66) 
20:0-1

>  <s_i_glide_gridfile>  (66) 
pfpi4k_grid

>  <i_i_glide_lignum>  (66) 
29

>  <i_i_glide_rotatable_bonds>  (66) 
4

>  <r_i_docking_score>  (66) 
-1.71151

>  <r_i_glide_ligand_efficiency>  (66) 
-0.0489004

>  <r_i_glide_ligand_efficiency_sa>  (66) 
-0.159957

>  <r_i_glide_ligand_efficiency_ln>  (66) 
-0.375716

>  <r_i_glide_gscore>  (66) 
-1.71151

>  <r_i_glide_lipo>  (66) 
-0.46661

>  <r_i_glide_hbond>  (66) 
0

>  <r_i_glide_metal>  (66) 
-0

>  <r_i_glide_rewards>  (66) 
0

>  <r_i_glide_evdw>  (66) 
-22.4271

>  <r_i_glide_ecoul>  (66) 
-1.87687

>  <r_i_glide_erotb>  (66) 
0.157983

>  <r_i_glide_esite>  (66) 
0

>  <r_i_glide_emodel>  (66) 
-21.9215

>  <r_i_glide_energy>  (66) 
-24.304

>  <r_i_glide_einternal>  (66) 
5.60333

>  <r_i_glide_intrahb_reward>  (66) 
-0

>  <i_i_glide_confnum>  (66) 
1

>  <i_i_glide_posenum>  (66) 
13

>  <r_i_glide_eff_state_penalty>  (66) 
0

>  <ligand_id>  (66) 
20

>  <original_smiles>  (66) 
COC1CCC2(C)C(CCC3C2CC(O)C2(C)C(C(C)C4OC5CC(Cl)OCC5C4C)CCC32)C1

>  <smiles>  (66) 
[H]OC1([H])C([H])([H])C2([H])C([H])(C([H])([H])C([H])([H])C3([H])C([H])([H])C([H])(OC([H])([H])[H])C([H])([H])C([H])([H])C32C([H])([H])[H])C2([H])C([H])([H])C([H])([H])C([H])(C([H])(C([H])([H])[H])C3([H])OC4([H])C([H])([H])C([H])(Cl)OC([H])([H])C4([H])C3([H])C([H])([H])[H])C12C([H])([H])[H]

$$$$
20:0:1
     RDKit          3D

 84 89  0  0  1  0  0  0  0  0999 V2000
    0.8259   -2.8349    5.5180 C   0  0  0  0  0  0  0  0  0  0  0  0
   -0.0261   -3.9148    5.8782 O   0  0  0  0  0  0  0  0  0  0  0  0
    0.5512   -5.1975    5.6704 C   0  0  2  0  0  0  0  0  0  0  0  0
    0.5885   -5.5183    4.1734 C   0  0  0  0  0  0  0  0  0  0  0  0
    1.0868   -6.9332    3.9224 C   0  0  0  0  0  0  0  0  0  0  0  0
    0.2581   -8.0270    4.6497 C   0  0  2  0  0  0  0  0  0  0  0  0
   -1.1796   -7.9795    4.0745 C   0  0  0  0  0  0  0  0  0  0  0  0
    0.1869   -7.6955    6.1723 C   0  0  1  0  0  0  0  0  0  0  0  0
    1.4975   -8.0085    6.9228 C   0  0  0  0  0  0  0  0  0  0  0  0
    1.8201   -9.4956    6.8196 C   0  0  0  0  0  0  0  0  0  0  0  0
    1.9521   -9.9777    5.3652 C   0  0  1  0  0  0  0  0  0  0  0  0
    0.7795   -9.5001    4.4426 C   0  0  2  0  0  0  0  0  0  0  0  0
    0.9515   -9.9288    2.9423 C   0  0  0  0  0  0  0  0  0  0  0  0
    2.3683   -9.7359    2.3378 C   0  0  1  0  0  0  0  0  0  0  0  0
    2.5809   -8.3969    2.0045 O   0  0  0  0  0  0  0  0  0  0  0  0
    3.4371  -10.3159    3.3061 C   0  0  1  0  0  0  0  0  0  0  0  0
    3.1882  -11.8608    3.4043 C   0  0  0  0  0  0  0  0  0  0  0  0
    4.9581  -10.1464    2.9593 C   0  0  1  0  0  0  0  0  0  0  0  0
    5.4558   -8.9150    2.1076 C   0  0  2  0  0  0  0  0  0  0  0  0
    6.8490   -9.2097    1.5391 C   0  0  0  0  0  0  0  0  0  0  0  0
    5.3283   -7.4748    2.6949 C   0  0  2  0  0  0  0  0  0  0  0  0
    5.4982   -6.4670    1.6824 O   0  0  0  0  0  0  0  0  0  0  0  0
    6.2585   -5.3786    2.2211 C   0  0  2  0  0  0  0  0  0  0  0  0
    6.9521   -4.4816    1.1818 C   0  0  0  0  0  0  0  0  0  0  0  0
    8.1548   -5.1856    0.4996 C   0  0  1  0  0  0  0  0  0  0  0  0
    8.9526   -3.9525   -0.5760 Cl  0  0  0  0  0  0  0  0  0  0  0  0
    9.0498   -5.6117    1.5353 O   0  0  0  0  0  0  0  0  0  0  0  0
    8.5065   -6.6344    2.3282 C   0  0  0  0  0  0  0  0  0  0  0  0
    7.2895   -6.0700    3.1282 C   0  0  2  0  0  0  0  0  0  0  0  0
    6.3782   -7.1209    3.7809 C   0  0  1  0  0  0  0  0  0  0  0  0
    5.6695   -6.5240    5.0250 C   0  0  0  0  0  0  0  0  0  0  0  0
    5.6804  -10.3323    4.3257 C   0  0  0  0  0  0  0  0  0  0  0  0
    4.5961  -10.2425    5.4242 C   0  0  0  0  0  0  0  0  0  0  0  0
    3.3345   -9.6957    4.7173 C   0  0  2  0  0  0  0  0  0  0  0  0
   -0.2924   -6.2422    6.4250 C   0  0  0  0  0  0  0  0  0  0  0  0
    0.3397   -1.8905    5.7666 H   0  0  0  0  0  0  0  0  0  0  0  0
    1.0451   -2.8165    4.4490 H   0  0  0  0  0  0  0  0  0  0  0  0
    1.7686   -2.8894    6.0653 H   0  0  0  0  0  0  0  0  0  0  0  0
    1.5625   -5.2032    6.0740 H   0  0  0  0  0  0  0  0  0  0  0  0
   -0.4012   -5.4274    3.7474 H   0  0  0  0  0  0  0  0  0  0  0  0
    1.2178   -4.8212    3.6258 H   0  0  0  0  0  0  0  0  0  0  0  0
    0.9955   -7.0736    2.8531 H   0  0  0  0  0  0  0  0  0  0  0  0
    2.1430   -6.9782    4.1795 H   0  0  0  0  0  0  0  0  0  0  0  0
   -1.8146   -8.7292    4.5363 H   0  0  0  0  0  0  0  0  0  0  0  0
   -1.1887   -8.1465    3.0040 H   0  0  0  0  0  0  0  0  0  0  0  0
   -1.6746   -7.0263    4.2191 H   0  0  0  0  0  0  0  0  0  0  0  0
   -0.5628   -8.3679    6.6021 H   0  0  0  0  0  0  0  0  0  0  0  0
    2.3297   -7.4206    6.5367 H   0  0  0  0  0  0  0  0  0  0  0  0
    1.3902   -7.7496    7.9774 H   0  0  0  0  0  0  0  0  0  0  0  0
    2.7165   -9.7392    7.3897 H   0  0  0  0  0  0  0  0  0  0  0  0
    1.0194  -10.0615    7.2929 H   0  0  0  0  0  0  0  0  0  0  0  0
    1.8704  -11.0610    5.4599 H   0  0  0  0  0  0  0  0  0  0  0  0
   -0.0488  -10.1109    4.8053 H   0  0  0  0  0  0  0  0  0  0  0  0
    0.6891  -10.9838    2.8791 H   0  0  0  0  0  0  0  0  0  0  0  0
    0.2314   -9.4502    2.2892 H   0  0  0  0  0  0  0  0  0  0  0  0
    2.4393  -10.2795    1.3985 H   0  0  0  0  0  0  0  0  0  0  0  0
    3.5070   -8.2722    1.8282 H   0  0  0  0  0  0  0  0  0  0  0  0
    3.8578  -12.3735    4.1045 H   0  0  0  0  0  0  0  0  0  0  0  0
    3.3309  -12.3474    2.4428 H   0  0  0  0  0  0  0  0  0  0  0  0
    2.1777  -12.1279    3.7264 H   0  0  0  0  0  0  0  0  0  0  0  0
    5.2170  -11.0001    2.3325 H   0  0  0  0  0  0  0  0  0  0  0  0
    4.8517   -8.9237    1.1993 H   0  0  0  0  0  0  0  0  0  0  0  0
    7.6171   -9.1396    2.3263 H   0  0  0  0  0  0  0  0  0  0  0  0
    7.0616   -8.4639    0.7693 H   0  0  0  0  0  0  0  0  0  0  0  0
    6.9386  -10.1719    1.0437 H   0  0  0  0  0  0  0  0  0  0  0  0
    4.3419   -7.3848    3.1328 H   0  0  0  0  0  0  0  0  0  0  0  0
    5.6100   -4.7092    2.8072 H   0  0  0  0  0  0  0  0  0  0  0  0
    6.2495   -4.0894    0.4248 H   0  0  0  0  0  0  0  0  0  0  0  0
    7.3768   -3.5965    1.6976 H   0  0  0  0  0  0  0  0  0  0  0  0
    7.7885   -6.0159   -0.1267 H   0  0  0  0  0  0  0  0  0  0  0  0
    8.2709   -7.4177    1.6794 H   0  0  0  0  0  0  0  0  0  0  0  0
    9.2093   -7.0289    3.0502 H   0  0  0  0  0  0  0  0  0  0  0  0
    7.6596   -5.4011    3.9110 H   0  0  0  0  0  0  0  0  0  0  0  0
    7.0328   -7.9222    4.1037 H   0  0  0  0  0  0  0  0  0  0  0  0
    4.9889   -5.7110    4.7733 H   0  0  0  0  0  0  0  0  0  0  0  0
    6.3879   -6.1456    5.7509 H   0  0  0  0  0  0  0  0  0  0  0  0
    5.0757   -7.2823    5.5236 H   0  0  0  0  0  0  0  0  0  0  0  0
    6.1464  -11.3132    4.3527 H   0  0  0  0  0  0  0  0  0  0  0  0
    6.4548   -9.6235    4.5148 H   0  0  0  0  0  0  0  0  0  0  0  0
    4.3842  -11.2243    5.8479 H   0  0  0  0  0  0  0  0  0  0  0  0
    4.8963   -9.6054    6.2565 H   0  0  0  0  0  0  0  0  0  0  0  0
    3.4480   -8.6173    4.6443 H   0  0  0  0  0  0  0  0  0  0  0  0
   -0.2999   -6.0279    7.4945 H   0  0  0  0  0  0  0  0  0  0  0  0
   -1.3269   -6.1372    6.0972 H   0  0  0  0  0  0  0  0  0  0  0  0
  1  2  1  0
  1 36  1  0
  1 37  1  0
  1 38  1  0
  2  3  1  0
  3 35  1  0
  3  4  1  0
  3 39  1  1
  4  5  1  0
  4 40  1  0
  4 41  1  0
  5  6  1  0
  5 42  1  0
  5 43  1  0
  6 12  1  0
  6  7  1  6
  6  8  1  0
  7 44  1  0
  7 45  1  0
  7 46  1  0
  8  9  1  0
  8 35  1  0
  8 47  1  1
  9 10  1  0
  9 48  1  0
  9 49  1  0
 10 11  1  0
 10 50  1  0
 10 51  1  0
 11 34  1  0
 11 12  1  0
 11 52  1  1
 12 13  1  0
 12 53  1  1
 13 14  1  0
 13 54  1  0
 13 55  1  0
 14 15  1  0
 14 16  1  0
 14 56  1  6
 15 57  1  0
 16 34  1  0
 16 17  1  1
 16 18  1  0
 17 58  1  0
 17 59  1  0
 17 60  1  0
 18 19  1  0
 18 32  1  0
 18 61  1  6
 19 20  1  0
 19 21  1  0
 19 62  1  6
 20 63  1  0
 20 64  1  0
 20 65  1  0
 21 30  1  0
 21 22  1  0
 21 66  1  1
 22 23  1  0
 23 29  1  0
 23 24  1  0
 23 67  1  1
 24 25  1  0
 24 68  1  0
 24 69  1  0
 25 26  1  0
 25 27  1  0
 25 70  1  6
 27 28  1  0
 28 29  1  0
 28 71  1  0
 28 72  1  0
 29 30  1  0
 29 73  1  1
 30 31  1  0
 30 74  1  1
 31 75  1  0
 31 76  1  0
 31 77  1  0
 32 33  1  0
 32 78  1  0
 32 79  1  0
 33 34  1  0
 33 80  1  0
 33 81  1  0
 34 82  1  6
 35 83  1  0
 35 84  1  0
M  END
>  <i_m_ct_stereo_status>  (67) 
1

>  <s_m_source_file>  (67) 
/var/tmp/pbs.5076255.sched01/tmp3z6s85wa/08w76y650.sdf

>  <i_m_source_file_index>  (67) 
29

>  <i_lp_mmshare_version>  (67) 
48012

>  <i_f3d_flags>  (67) 
0

>  <s_epik_input>  (67) 
W0NIM11PW0NASF0oW0NIMl1bQ0gyXTEpW0NIMl1bQ0BASF0oW0NAQF0xMltDSDNdKVtDSDJdW0NIMl1bQ0BIXTNbQ0BASF0yW0NIMl1bQ0BASF0oW09IXSlbQ0BdNChbQ0gzXSlbQ0BASF0zW0NIMl1bQ0gyXVtDQEBIXTRbQ0BIXShbQ0gzXSlbQ0BIXShPNSlbQ0BIXShbQ0gzXSlbQ0BIXShbQ0BIXTU2KVtDSDJdT1tDQEhdKENsKVtDSDJdNg==

>  <s_epik_cmdline>  (67) 
J2VwaWtfcHl0aG9uJywgJy1waHQnLCAnMi4wJywgJy1waCcsICc3LjAnLCAnLXRuJywgJzgnLCAnLW1hJywgJzIwMCcsICctaW1hZScsICc8aW5maWxlLm1hZT4nLCAnLW9tYWUnLCAnPG91dGZpbGUubWFlPic=

>  <r_lp_tautomer_probability>  (67) 
1

>  <r_epik_Ionization_Penalty>  (67) 
3.06278e-06

>  <r_epik_Ionization_Penalty_Charging>  (67) 
0

>  <r_epik_Ionization_Penalty_Neutral>  (67) 
3.06278e-06

>  <r_epik_State_Penalty>  (67) 
-0

>  <r_epik_Charging_Adjusted_Penalty>  (67) 
0

>  <i_epik_Tot_Q>  (67) 
0

>  <i_epik_Tot_abs_Q>  (67) 
0

>  <s_lp_Force_Field>  (67) 
OPLS3e

>  <r_lp_Energy>  (67) 
65.9435

>  <b_lp_Chiralities_Consistent>  (67) 
1

>  <s_lp_Variant>  (67) 
20:0-1

>  <s_i_glide_gridfile>  (67) 
pfpi4k_grid

>  <i_i_glide_lignum>  (67) 
29

>  <i_i_glide_rotatable_bonds>  (67) 
4

>  <r_i_docking_score>  (67) 
-1.65329

>  <r_i_glide_ligand_efficiency>  (67) 
-0.047237

>  <r_i_glide_ligand_efficiency_sa>  (67) 
-0.154515

>  <r_i_glide_ligand_efficiency_ln>  (67) 
-0.362935

>  <r_i_glide_gscore>  (67) 
-1.65329

>  <r_i_glide_lipo>  (67) 
-0.460226

>  <r_i_glide_hbond>  (67) 
0

>  <r_i_glide_metal>  (67) 
-0

>  <r_i_glide_rewards>  (67) 
0

>  <r_i_glide_evdw>  (67) 
-22.5812

>  <r_i_glide_ecoul>  (67) 
-1.47994

>  <r_i_glide_erotb>  (67) 
0.157983

>  <r_i_glide_esite>  (67) 
0

>  <r_i_glide_emodel>  (67) 
-21.1578

>  <r_i_glide_energy>  (67) 
-24.0611

>  <r_i_glide_einternal>  (67) 
5.21966

>  <r_i_glide_intrahb_reward>  (67) 
-0

>  <i_i_glide_confnum>  (67) 
2

>  <i_i_glide_posenum>  (67) 
3

>  <r_i_glide_eff_state_penalty>  (67) 
0

>  <ligand_id>  (67) 
20

>  <original_smiles>  (67) 
COC1CCC2(C)C(CCC3C2CC(O)C2(C)C(C(C)C4OC5CC(Cl)OCC5C4C)CCC32)C1

>  <smiles>  (67) 
[H]OC1([H])C([H])([H])C2([H])C([H])(C([H])([H])C([H])([H])C3([H])C([H])([H])C([H])(OC([H])([H])[H])C([H])([H])C([H])([H])C32C([H])([H])[H])C2([H])C([H])([H])C([H])([H])C([H])(C([H])(C([H])([H])[H])C3([H])OC4([H])C([H])([H])C([H])(Cl)OC([H])([H])C4([H])C3([H])C([H])([H])[H])C12C([H])([H])[H]

$$$$
20:0:2
     RDKit          3D

 84 89  0  0  1  0  0  0  0  0999 V2000
    0.9275   -7.6340    9.9961 C   0  0  0  0  0  0  0  0  0  0  0  0
    0.2316   -7.8656    8.7833 O   0  0  0  0  0  0  0  0  0  0  0  0
    1.1007   -8.0350    7.6719 C   0  0  2  0  0  0  0  0  0  0  0  0
    0.2862   -7.8172    6.4006 C   0  0  0  0  0  0  0  0  0  0  0  0
    1.1199   -8.0900    5.1552 C   0  0  0  0  0  0  0  0  0  0  0  0
    1.7602   -9.5044    5.1099 C   0  0  2  0  0  0  0  0  0  0  0  0
    0.6008  -10.5294    5.0527 C   0  0  0  0  0  0  0  0  0  0  0  0
    2.5602   -9.7490    6.4164 C   0  0  1  0  0  0  0  0  0  0  0  0
    3.9080   -9.0040    6.4281 C   0  0  0  0  0  0  0  0  0  0  0  0
    4.7958   -9.4842    5.2818 C   0  0  0  0  0  0  0  0  0  0  0  0
    4.1330   -9.2918    3.9109 C   0  0  1  0  0  0  0  0  0  0  0  0
    2.6578   -9.8005    3.8527 C   0  0  2  0  0  0  0  0  0  0  0  0
    1.9690   -9.5244    2.4785 C   0  0  0  0  0  0  0  0  0  0  0  0
    2.1958   -8.1293    1.8786 C   0  0  1  0  0  0  0  0  0  0  0  0
    1.3875   -7.1279    2.4731 O   0  0  0  0  0  0  0  0  0  0  0  0
    3.7145   -7.7774    1.8922 C   0  0  1  0  0  0  0  0  0  0  0  0
    4.4479   -8.8110    0.9598 C   0  0  0  0  0  0  0  0  0  0  0  0
    4.1687   -6.3584    1.3968 C   0  0  1  0  0  0  0  0  0  0  0  0
    3.2016   -5.1031    1.5081 C   0  0  2  0  0  0  0  0  0  0  0  0
    3.5732   -4.0562    0.4635 C   0  0  0  0  0  0  0  0  0  0  0  0
    2.9485   -4.4813    2.9389 C   0  0  2  0  0  0  0  0  0  0  0  0
    1.9060   -3.4568    2.9150 O   0  0  0  0  0  0  0  0  0  0  0  0
    2.3001   -2.3542    3.7651 C   0  0  2  0  0  0  0  0  0  0  0  0
    1.6941   -0.9723    3.4633 C   0  0  0  0  0  0  0  0  0  0  0  0
    2.2506   -0.3453    2.1751 C   0  0  1  0  0  0  0  0  0  0  0  0
    1.6171    1.3039    2.0404 Cl  0  0  0  0  0  0  0  0  0  0  0  0
    3.6891   -0.2440    2.2732 O   0  0  0  0  0  0  0  0  0  0  0  0
    4.2769   -1.5457    2.3338 C   0  0  0  0  0  0  0  0  0  0  0  0
    3.8338   -2.3065    3.6374 C   0  0  2  0  0  0  0  0  0  0  0  0
    4.1622   -3.7851    3.6259 C   0  0  1  0  0  0  0  0  0  0  0  0
    4.3296   -4.3494    5.0524 C   0  0  0  0  0  0  0  0  0  0  0  0
    5.5849   -6.1986    2.0448 C   0  0  0  0  0  0  0  0  0  0  0  0
    5.6889   -7.2872    3.1520 C   0  0  0  0  0  0  0  0  0  0  0  0
    4.2653   -7.8667    3.3238 C   0  0  2  0  0  0  0  0  0  0  0  0
    1.7171   -9.4477    7.6752 C   0  0  0  0  0  0  0  0  0  0  0  0
    0.2094   -7.5696   10.8098 H   0  0  0  0  0  0  0  0  0  0  0  0
    1.4840   -6.6991    9.9545 H   0  0  0  0  0  0  0  0  0  0  0  0
    1.6222   -8.4343   10.2403 H   0  0  0  0  0  0  0  0  0  0  0  0
    1.8799   -7.2839    7.6810 H   0  0  0  0  0  0  0  0  0  0  0  0
   -0.5464   -8.4993    6.3803 H   0  0  0  0  0  0  0  0  0  0  0  0
   -0.1467   -6.8167    6.3509 H   0  0  0  0  0  0  0  0  0  0  0  0
    0.4025   -8.0068    4.3448 H   0  0  0  0  0  0  0  0  0  0  0  0
    1.8548   -7.3002    5.0582 H   0  0  0  0  0  0  0  0  0  0  0  0
    0.9744  -11.5562    5.0323 H   0  0  0  0  0  0  0  0  0  0  0  0
   -0.0560  -10.3701    4.1954 H   0  0  0  0  0  0  0  0  0  0  0  0
   -0.0649  -10.4725    5.9101 H   0  0  0  0  0  0  0  0  0  0  0  0
    2.8035  -10.8128    6.4482 H   0  0  0  0  0  0  0  0  0  0  0  0
    3.7722   -7.9251    6.3594 H   0  0  0  0  0  0  0  0  0  0  0  0
    4.4264   -9.1945    7.3678 H   0  0  0  0  0  0  0  0  0  0  0  0
    5.7727   -8.9965    5.3138 H   0  0  0  0  0  0  0  0  0  0  0  0
    5.0008  -10.5483    5.4128 H   0  0  0  0  0  0  0  0  0  0  0  0
    4.7318   -9.9425    3.2791 H   0  0  0  0  0  0  0  0  0  0  0  0
    2.7938  -10.8817    3.8795 H   0  0  0  0  0  0  0  0  0  0  0  0
    2.3292  -10.2715    1.7710 H   0  0  0  0  0  0  0  0  0  0  0  0
    0.9075   -9.7323    2.4803 H   0  0  0  0  0  0  0  0  0  0  0  0
    1.8393   -8.1200    0.8736 H   0  0  0  0  0  0  0  0  0  0  0  0
    1.8428   -6.3545    2.3897 H   0  0  0  0  0  0  0  0  0  0  0  0
    5.5285   -8.6909    0.9672 H   0  0  0  0  0  0  0  0  0  0  0  0
    4.1220   -8.7145   -0.0688 H   0  0  0  0  0  0  0  0  0  0  0  0
    4.2879   -9.8430    1.2390 H   0  0  0  0  0  0  0  0  0  0  0  0
    4.3087   -6.4428    0.3116 H   0  0  0  0  0  0  0  0  0  0  0  0
    2.2206   -5.4030    1.1192 H   0  0  0  0  0  0  0  0  0  0  0  0
    4.5556   -3.6310    0.6976 H   0  0  0  0  0  0  0  0  0  0  0  0
    2.8183   -3.2627    0.4866 H   0  0  0  0  0  0  0  0  0  0  0  0
    3.5786   -4.4094   -0.5591 H   0  0  0  0  0  0  0  0  0  0  0  0
    2.5844   -5.2900    3.5929 H   0  0  0  0  0  0  0  0  0  0  0  0
    2.0708   -2.6098    4.8107 H   0  0  0  0  0  0  0  0  0  0  0  0
    0.6147   -1.0385    3.4444 H   0  0  0  0  0  0  0  0  0  0  0  0
    1.9679   -0.3152    4.2804 H   0  0  0  0  0  0  0  0  0  0  0  0
    1.8810   -0.9099    1.2959 H   0  0  0  0  0  0  0  0  0  0  0  0
    3.9516   -1.9976    1.4300 H   0  0  0  0  0  0  0  0  0  0  0  0
    5.3693   -1.5470    2.2766 H   0  0  0  0  0  0  0  0  0  0  0  0
    4.3128   -1.8283    4.5128 H   0  0  0  0  0  0  0  0  0  0  0  0
    5.0627   -3.8072    3.0858 H   0  0  0  0  0  0  0  0  0  0  0  0
    3.4136   -4.2827    5.6556 H   0  0  0  0  0  0  0  0  0  0  0  0
    5.1258   -3.8055    5.5598 H   0  0  0  0  0  0  0  0  0  0  0  0
    4.6151   -5.4026    5.0374 H   0  0  0  0  0  0  0  0  0  0  0  0
    6.3473   -6.3575    1.2762 H   0  0  0  0  0  0  0  0  0  0  0  0
    5.8155   -5.2697    2.4773 H   0  0  0  0  0  0  0  0  0  0  0  0
    6.3937   -8.0800    2.8557 H   0  0  0  0  0  0  0  0  0  0  0  0
    6.0739   -6.8790    4.0936 H   0  0  0  0  0  0  0  0  0  0  0  0
    3.7136   -7.1864    3.9760 H   0  0  0  0  0  0  0  0  0  0  0  0
    2.3367   -9.6090    8.5535 H   0  0  0  0  0  0  0  0  0  0  0  0
    0.9220  -10.1840    7.7655 H   0  0  0  0  0  0  0  0  0  0  0  0
  1  2  1  0
  1 36  1  0
  1 37  1  0
  1 38  1  0
  2  3  1  0
  3 35  1  0
  3  4  1  0
  3 39  1  1
  4  5  1  0
  4 40  1  0
  4 41  1  0
  5  6  1  0
  5 42  1  0
  5 43  1  0
  6 12  1  0
  6  7  1  1
  6  8  1  0
  7 44  1  0
  7 45  1  0
  7 46  1  0
  8  9  1  0
  8 35  1  0
  8 47  1  1
  9 10  1  0
  9 48  1  0
  9 49  1  0
 10 11  1  0
 10 50  1  0
 10 51  1  0
 11 34  1  0
 11 12  1  0
 11 52  1  6
 12 13  1  0
 12 53  1  6
 13 14  1  0
 13 54  1  0
 13 55  1  0
 14 15  1  0
 14 16  1  0
 14 56  1  6
 15 57  1  0
 16 34  1  0
 16 17  1  6
 16 18  1  0
 17 58  1  0
 17 59  1  0
 17 60  1  0
 18 19  1  0
 18 32  1  0
 18 61  1  6
 19 20  1  0
 19 21  1  0
 19 62  1  6
 20 63  1  0
 20 64  1  0
 20 65  1  0
 21 30  1  0
 21 22  1  0
 21 66  1  1
 22 23  1  0
 23 29  1  0
 23 24  1  0
 23 67  1  1
 24 25  1  0
 24 68  1  0
 24 69  1  0
 25 26  1  0
 25 27  1  0
 25 70  1  6
 27 28  1  0
 28 29  1  0
 28 71  1  0
 28 72  1  0
 29 30  1  0
 29 73  1  1
 30 31  1  0
 30 74  1  6
 31 75  1  0
 31 76  1  0
 31 77  1  0
 32 33  1  0
 32 78  1  0
 32 79  1  0
 33 34  1  0
 33 80  1  0
 33 81  1  0
 34 82  1  1
 35 83  1  0
 35 84  1  0
M  END
>  <i_m_ct_stereo_status>  (68) 
1

>  <s_m_source_file>  (68) 
/var/tmp/pbs.5076255.sched01/tmp3z6s85wa/08w76y650.sdf

>  <i_m_source_file_index>  (68) 
29

>  <i_lp_mmshare_version>  (68) 
48012

>  <i_f3d_flags>  (68) 
0

>  <s_epik_input>  (68) 
W0NIM11PW0NASF0oW0NIMl1bQ0gyXTEpW0NIMl1bQ0BASF0oW0NAQF0xMltDSDNdKVtDSDJdW0NIMl1bQ0BIXTNbQ0BASF0yW0NIMl1bQ0BASF0oW09IXSlbQ0BdNChbQ0gzXSlbQ0BASF0zW0NIMl1bQ0gyXVtDQEBIXTRbQ0BIXShbQ0gzXSlbQ0BIXShPNSlbQ0BIXShbQ0gzXSlbQ0BIXShbQ0BIXTU2KVtDSDJdT1tDQEhdKENsKVtDSDJdNg==

>  <s_epik_cmdline>  (68) 
J2VwaWtfcHl0aG9uJywgJy1waHQnLCAnMi4wJywgJy1waCcsICc3LjAnLCAnLXRuJywgJzgnLCAnLW1hJywgJzIwMCcsICctaW1hZScsICc8aW5maWxlLm1hZT4nLCAnLW9tYWUnLCAnPG91dGZpbGUubWFlPic=

>  <r_lp_tautomer_probability>  (68) 
1

>  <r_epik_Ionization_Penalty>  (68) 
3.06278e-06

>  <r_epik_Ionization_Penalty_Charging>  (68) 
0

>  <r_epik_Ionization_Penalty_Neutral>  (68) 
3.06278e-06

>  <r_epik_State_Penalty>  (68) 
-0

>  <r_epik_Charging_Adjusted_Penalty>  (68) 
0

>  <i_epik_Tot_Q>  (68) 
0

>  <i_epik_Tot_abs_Q>  (68) 
0

>  <s_lp_Force_Field>  (68) 
OPLS3e

>  <r_lp_Energy>  (68) 
65.9435

>  <b_lp_Chiralities_Consistent>  (68) 
1

>  <s_lp_Variant>  (68) 
20:0-1

>  <s_i_glide_gridfile>  (68) 
pfpi4k_grid

>  <i_i_glide_lignum>  (68) 
29

>  <i_i_glide_rotatable_bonds>  (68) 
4

>  <r_i_docking_score>  (68) 
-1.47211

>  <r_i_glide_ligand_efficiency>  (68) 
-0.0420602

>  <r_i_glide_ligand_efficiency_sa>  (68) 
-0.137582

>  <r_i_glide_ligand_efficiency_ln>  (68) 
-0.32316

>  <r_i_glide_gscore>  (68) 
-1.47211

>  <r_i_glide_lipo>  (68) 
-0.198691

>  <r_i_glide_hbond>  (68) 
-0.0445217

>  <r_i_glide_metal>  (68) 
-0

>  <r_i_glide_rewards>  (68) 
0

>  <r_i_glide_evdw>  (68) 
-23.6635

>  <r_i_glide_ecoul>  (68) 
-1.43924

>  <r_i_glide_erotb>  (68) 
0.157983

>  <r_i_glide_esite>  (68) 
0

>  <r_i_glide_emodel>  (68) 
-22.042

>  <r_i_glide_energy>  (68) 
-25.1027

>  <r_i_glide_einternal>  (68) 
3.91738

>  <r_i_glide_intrahb_reward>  (68) 
-0

>  <i_i_glide_confnum>  (68) 
1

>  <i_i_glide_posenum>  (68) 
30

>  <r_i_glide_eff_state_penalty>  (68) 
0

>  <ligand_id>  (68) 
20

>  <original_smiles>  (68) 
COC1CCC2(C)C(CCC3C2CC(O)C2(C)C(C(C)C4OC5CC(Cl)OCC5C4C)CCC32)C1

>  <smiles>  (68) 
[H]OC1([H])C([H])([H])C2([H])C([H])(C([H])([H])C([H])([H])C3([H])C([H])([H])C([H])(OC([H])([H])[H])C([H])([H])C([H])([H])C32C([H])([H])[H])C2([H])C([H])([H])C([H])([H])C([H])(C([H])(C([H])([H])[H])C3([H])OC4([H])C([H])([H])C([H])(Cl)OC([H])([H])C4([H])C3([H])C([H])([H])[H])C12C([H])([H])[H]

$$$$
21:0:0
     RDKit          3D

 56 63  0  0  1  0  0  0  0  0999 V2000
    2.9492   -3.1554   -1.2627 C   0  0  0  0  0  0  0  0  0  0  0  0
    3.3683   -3.3511   -0.0037 C   0  0  0  0  0  0  0  0  0  0  0  0
    4.3102   -4.3956    0.3222 C   0  0  0  0  0  0  0  0  0  0  0  0
    5.3659   -4.6424   -0.2532 O   0  0  0  0  0  0  0  0  0  0  0  0
    3.8104   -5.1949    1.5172 C   0  0  1  0  0  0  0  0  0  0  0  0
    4.5319   -5.7349    2.6835 C   0  0  2  0  0  0  0  0  0  0  0  0
    4.3559   -7.2435    2.3033 C   0  0  0  0  0  0  0  0  0  0  0  0
    2.7361   -7.4885    2.0341 C   0  0  0  0  0  0  0  0  0  0  0  0
    1.7779   -6.1528    1.7297 C   0  0  1  0  0  0  0  0  0  0  0  0
    0.4627   -6.2496    2.2884 O   0  0  0  0  0  0  0  0  0  0  0  0
   -0.3103   -7.3468    1.8309 C   0  0  0  0  0  0  0  0  0  0  0  0
    2.5599   -4.8887    2.2785 C   0  0  1  0  0  0  0  0  0  0  0  0
    2.4648   -5.4724    3.5398 O   0  0  0  0  0  0  0  0  0  0  0  0
    3.7188   -5.7009    3.9872 C   0  0  2  0  0  0  0  0  0  0  0  0
    4.0820   -4.5664    4.8975 C   0  0  2  0  0  0  0  0  0  0  0  0
    4.7015   -5.1490    6.0672 O   0  0  0  0  0  0  0  0  0  0  0  0
    5.8972   -5.9354    5.9267 C   0  0  0  0  0  0  0  0  0  0  0  0
    2.7624   -3.8767    5.5486 C   0  0  0  0  0  0  0  0  0  0  0  0
    1.3245   -3.5822    4.8473 C   0  0  0  0  0  0  0  0  0  0  0  0
    1.0830   -3.1282    3.3378 C   0  0  0  0  0  0  0  0  0  0  0  0
    2.3197   -3.2863    2.4709 C   0  0  1  0  0  0  0  0  0  0  0  0
    3.1395   -1.9751    3.0442 C   0  0  1  0  0  0  0  0  0  0  0  0
    3.5040   -1.6026    4.3513 O   0  0  0  0  0  0  0  0  0  0  0  0
    4.2400   -2.2561    2.1311 C   0  0  1  0  0  0  0  0  0  0  0  0
    5.3817   -3.1747    2.7635 C   0  0  1  0  0  0  0  0  0  0  0  0
    5.2366   -3.8303    4.1475 C   0  0  2  0  0  0  0  0  0  0  0  0
    5.6368   -4.7166    2.9534 C   0  0  1  0  0  0  0  0  0  0  0  0
    2.9660   -2.5617    1.2169 C   0  0  1  0  0  0  0  0  0  0  0  0
    2.2272   -2.3845   -1.5092 H   0  0  0  0  0  0  0  0  0  0  0  0
    3.2882   -3.8019   -2.0622 H   0  0  0  0  0  0  0  0  0  0  0  0
    3.6839   -5.9495    0.7365 H   0  0  0  0  0  0  0  0  0  0  0  0
    4.9502   -7.4997    1.4274 H   0  0  0  0  0  0  0  0  0  0  0  0
    4.7150   -7.9017    3.0940 H   0  0  0  0  0  0  0  0  0  0  0  0
    2.6279   -8.1874    1.2050 H   0  0  0  0  0  0  0  0  0  0  0  0
    2.3365   -8.0071    2.9107 H   0  0  0  0  0  0  0  0  0  0  0  0
    1.6403   -6.0300    0.6534 H   0  0  0  0  0  0  0  0  0  0  0  0
   -1.2976   -7.2964    2.2917 H   0  0  0  0  0  0  0  0  0  0  0  0
    0.1231   -8.3095    2.1056 H   0  0  0  0  0  0  0  0  0  0  0  0
   -0.4420   -7.3110    0.7499 H   0  0  0  0  0  0  0  0  0  0  0  0
    3.6701   -6.6378    4.5474 H   0  0  0  0  0  0  0  0  0  0  0  0
    6.0613   -6.5387    6.8210 H   0  0  0  0  0  0  0  0  0  0  0  0
    6.7872   -5.3150    5.7971 H   0  0  0  0  0  0  0  0  0  0  0  0
    5.8604   -6.6342    5.0893 H   0  0  0  0  0  0  0  0  0  0  0  0
    2.4618   -4.5909    6.3189 H   0  0  0  0  0  0  0  0  0  0  0  0
    3.0560   -3.0332    6.1733 H   0  0  0  0  0  0  0  0  0  0  0  0
    0.7477   -4.5040    4.9467 H   0  0  0  0  0  0  0  0  0  0  0  0
    0.7714   -2.8893    5.4820 H   0  0  0  0  0  0  0  0  0  0  0  0
    0.2647   -3.7069    2.9276 H   0  0  0  0  0  0  0  0  0  0  0  0
    0.7257   -2.0955    3.3268 H   0  0  0  0  0  0  0  0  0  0  0  0
    2.6179   -1.0446    2.7680 H   0  0  0  0  0  0  0  0  0  0  0  0
    3.4023   -0.6661    4.4144 H   0  0  0  0  0  0  0  0  0  0  0  0
    4.6782   -1.3093    1.8028 H   0  0  0  0  0  0  0  0  0  0  0  0
    6.3126   -2.6499    2.6208 H   0  0  0  0  0  0  0  0  0  0  0  0
    5.9837   -3.4371    4.8309 H   0  0  0  0  0  0  0  0  0  0  0  0
    6.6595   -5.0841    2.9102 H   0  0  0  0  0  0  0  0  0  0  0  0
    2.4129   -1.6803    0.8575 H   0  0  0  0  0  0  0  0  0  0  0  0
  1  2  2  0
  1 29  1  0
  1 30  1  0
  2 28  1  0
  2  3  1  0
  3  4  2  0
  3  5  1  0
  5 12  1  0
  5  6  1  0
  5 31  1  6
  6 14  1  0
  6 27  1  0
  6  7  1  6
  7  8  1  0
  7 32  1  0
  7 33  1  0
  8  9  1  0
  8 34  1  0
  8 35  1  0
  9 10  1  0
  9 12  1  0
  9 36  1  6
 10 11  1  0
 11 37  1  0
 11 38  1  0
 11 39  1  0
 12 21  1  0
 12 13  1  1
 13 14  1  0
 14 15  1  0
 14 40  1  1
 15 26  1  0
 15 16  1  1
 15 18  1  0
 16 17  1  0
 17 41  1  0
 17 42  1  0
 17 43  1  0
 18 19  1  0
 18 44  1  0
 18 45  1  0
 19 20  1  0
 19 46  1  0
 19 47  1  0
 21 20  1  6
 20 48  1  0
 20 49  1  0
 21 28  1  0
 21 22  1  0
 22 23  1  0
 22 24  1  0
 22 50  1  6
 23 51  1  0
 24 25  1  0
 24 28  1  0
 24 52  1  6
 25 27  1  0
 25 26  1  0
 25 53  1  1
 26 27  1  0
 26 54  1  1
 27 55  1  1
 28 56  1  6
M  END
>  <i_m_ct_stereo_status>  (69) 
1

>  <s_m_source_file>  (69) 
/var/tmp/pbs.5076255.sched01/tmp3z6s85wa/08w76y650.sdf

>  <i_m_source_file_index>  (69) 
30

>  <i_lp_mmshare_version>  (69) 
48012

>  <i_f3d_flags>  (69) 
0

>  <s_epik_input>  (69) 
W0NIMl0xW0NIMl1bQ0BASF0oT1tDSDNdKVtDQEBdMihbQ0BASF0zW0NAXTE0NSlbQ0BAXTY3W0NASF0oQyg9W0NIMl0pQzM9TylbQ0BASF0oW0NAQEhdN1tPSF0pW0NASF04W0NASF0oW0NAQEhdNTgpW0NAQF0oW0NASF00TzIpKE9bQ0gzXSlbQ0gyXVtDSDJdW0NIMl02

>  <s_epik_cmdline>  (69) 
J2VwaWtfcHl0aG9uJywgJy1waHQnLCAnMi4wJywgJy1waCcsICc3LjAnLCAnLXRuJywgJzgnLCAnLW1hJywgJzIwMCcsICctaW1hZScsICc8aW5maWxlLm1hZT4nLCAnLW9tYWUnLCAnPG91dGZpbGUubWFlPic=

>  <r_lp_tautomer_probability>  (69) 
1

>  <r_epik_Ionization_Penalty>  (69) 
4.88944e-08

>  <r_epik_Ionization_Penalty_Charging>  (69) 
0

>  <r_epik_Ionization_Penalty_Neutral>  (69) 
4.88944e-08

>  <r_epik_State_Penalty>  (69) 
-0

>  <r_epik_Charging_Adjusted_Penalty>  (69) 
0

>  <i_epik_Tot_Q>  (69) 
0

>  <i_epik_Tot_abs_Q>  (69) 
0

>  <s_lp_Force_Field>  (69) 
OPLS3e

>  <r_lp_Energy>  (69) 
298.951

>  <b_lp_Chiralities_Consistent>  (69) 
1

>  <s_lp_Variant>  (69) 
21:0-1

>  <s_i_glide_gridfile>  (69) 
pfpi4k_grid

>  <i_i_glide_lignum>  (69) 
30

>  <i_i_glide_rotatable_bonds>  (69) 
3

>  <r_i_docking_score>  (69) 
-2.48027

>  <r_i_glide_ligand_efficiency>  (69) 
-0.0885812

>  <r_i_glide_ligand_efficiency_sa>  (69) 
-0.268985

>  <r_i_glide_ligand_efficiency_ln>  (69) 
-0.57252

>  <r_i_glide_gscore>  (69) 
-2.48027

>  <r_i_glide_lipo>  (69) 
-0.207048

>  <r_i_glide_hbond>  (69) 
-0.119346

>  <r_i_glide_metal>  (69) 
-0

>  <r_i_glide_rewards>  (69) 
-0.825984

>  <r_i_glide_evdw>  (69) 
-15.8799

>  <r_i_glide_ecoul>  (69) 
-3.55932

>  <r_i_glide_erotb>  (69) 
0

>  <r_i_glide_esite>  (69) 
0

>  <r_i_glide_emodel>  (69) 
-19.8891

>  <r_i_glide_energy>  (69) 
-19.4392

>  <r_i_glide_einternal>  (69) 
4.57907

>  <r_i_glide_intrahb_reward>  (69) 
-0

>  <i_i_glide_confnum>  (69) 
2

>  <i_i_glide_posenum>  (69) 
38

>  <r_i_glide_eff_state_penalty>  (69) 
0

>  <ligand_id>  (69) 
21

>  <original_smiles>  (69) 
C=C1C(=O)C2C34CCC(OC)C25OC3C2(OC)CCCC53C(O)C(C5C2C54)C13

>  <smiles>  (69) 
[H]OC1([H])C2([H])C3([H])C(=C([H])[H])C(=O)C4([H])C56OC7([H])C(OC([H])([H])[H])(C([H])([H])C([H])([H])C([H])([H])C135)C1([H])C2([H])C1([H])C74C([H])([H])C([H])([H])C6([H])OC([H])([H])[H]

$$$$
21:0:1
     RDKit          3D

 56 63  0  0  1  0  0  0  0  0999 V2000
    1.3600   -6.2183    0.4630 C   0  0  0  0  0  0  0  0  0  0  0  0
    2.4566   -5.4522    0.3213 C   0  0  0  0  0  0  0  0  0  0  0  0
    3.7586   -5.9796    0.6257 C   0  0  0  0  0  0  0  0  0  0  0  0
    4.2207   -7.0677    0.2723 O   0  0  0  0  0  0  0  0  0  0  0  0
    4.5293   -5.0020    1.4749 C   0  0  1  0  0  0  0  0  0  0  0  0
    5.9486   -4.6269    1.4312 C   0  0  2  0  0  0  0  0  0  0  0  0
    6.3198   -5.2931    2.7987 C   0  0  0  0  0  0  0  0  0  0  0  0
    5.2500   -4.7195    3.9320 C   0  0  0  0  0  0  0  0  0  0  0  0
    3.8194   -4.0455    3.3815 C   0  0  1  0  0  0  0  0  0  0  0  0
    3.3950   -2.9231    4.1534 O   0  0  0  0  0  0  0  0  0  0  0  0
    3.0702   -3.2164    5.5002 C   0  0  0  0  0  0  0  0  0  0  0  0
    4.0420   -3.6475    1.8671 C   0  0  1  0  0  0  0  0  0  0  0  0
    5.0316   -2.7782    2.3078 O   0  0  0  0  0  0  0  0  0  0  0  0
    6.1895   -3.1516    1.7309 C   0  0  2  0  0  0  0  0  0  0  0  0
    6.4443   -2.2931    0.5362 C   0  0  2  0  0  0  0  0  0  0  0  0
    7.8273   -1.8721    0.5251 O   0  0  0  0  0  0  0  0  0  0  0  0
    8.8821   -2.8559    0.5208 C   0  0  0  0  0  0  0  0  0  0  0  0
    5.6772   -0.8706    0.6865 C   0  0  0  0  0  0  0  0  0  0  0  0
    4.2095   -0.5741    1.3181 C   0  0  0  0  0  0  0  0  0  0  0  0
    2.9104   -1.5003    1.1759 C   0  0  0  0  0  0  0  0  0  0  0  0
    3.2471   -2.8984    0.6671 C   0  0  1  0  0  0  0  0  0  0  0  0
    3.5077   -2.4781   -0.9115 C   0  0  1  0  0  0  0  0  0  0  0  0
    4.3598   -1.5383   -1.5174 O   0  0  0  0  0  0  0  0  0  0  0  0
    3.7803   -3.8667   -1.2387 C   0  0  1  0  0  0  0  0  0  0  0  0
    5.3227   -4.2597   -1.1731 C   0  0  1  0  0  0  0  0  0  0  0  0
    6.3751   -3.2934   -0.6513 C   0  0  2  0  0  0  0  0  0  0  0  0
    6.3243   -4.7132   -0.0508 C   0  0  1  0  0  0  0  0  0  0  0  0
    2.5585   -4.0302   -0.2164 C   0  0  1  0  0  0  0  0  0  0  0  0
    0.3731   -5.8869    0.1695 H   0  0  0  0  0  0  0  0  0  0  0  0
    1.4263   -7.2203    0.8710 H   0  0  0  0  0  0  0  0  0  0  0  0
    4.3248   -5.7806    2.2181 H   0  0  0  0  0  0  0  0  0  0  0  0
    6.2798   -6.3825    2.7354 H   0  0  0  0  0  0  0  0  0  0  0  0
    7.3471   -5.0693    3.0715 H   0  0  0  0  0  0  0  0  0  0  0  0
    5.0021   -5.5320    4.6179 H   0  0  0  0  0  0  0  0  0  0  0  0
    5.7746   -3.9693    4.5284 H   0  0  0  0  0  0  0  0  0  0  0  0
    3.0098   -4.7813    3.4277 H   0  0  0  0  0  0  0  0  0  0  0  0
    2.7001   -2.3084    5.9738 H   0  0  0  0  0  0  0  0  0  0  0  0
    3.9364   -3.5567    6.0678 H   0  0  0  0  0  0  0  0  0  0  0  0
    2.2867   -3.9707    5.5578 H   0  0  0  0  0  0  0  0  0  0  0  0
    6.9286   -2.9398    2.4686 H   0  0  0  0  0  0  0  0  0  0  0  0
    9.8104   -2.4286    0.9074 H   0  0  0  0  0  0  0  0  0  0  0  0
    9.0932   -3.2173   -0.4875 H   0  0  0  0  0  0  0  0  0  0  0  0
    8.6674   -3.7207    1.1520 H   0  0  0  0  0  0  0  0  0  0  0  0
    6.3013   -0.3360    1.4023 H   0  0  0  0  0  0  0  0  0  0  0  0
    5.8445   -0.2706   -0.2088 H   0  0  0  0  0  0  0  0  0  0  0  0
    4.3581   -0.4523    2.3947 H   0  0  0  0  0  0  0  0  0  0  0  0
    3.9162    0.4270    0.9993 H   0  0  0  0  0  0  0  0  0  0  0  0
    2.3920   -1.5666    2.1350 H   0  0  0  0  0  0  0  0  0  0  0  0
    2.2177   -0.9897    0.5170 H   0  0  0  0  0  0  0  0  0  0  0  0
    2.5806   -2.1549   -1.4003 H   0  0  0  0  0  0  0  0  0  0  0  0
    5.2311   -1.7168   -1.1917 H   0  0  0  0  0  0  0  0  0  0  0  0
    3.4295   -4.0148   -2.2570 H   0  0  0  0  0  0  0  0  0  0  0  0
    5.5979   -4.6286   -2.1555 H   0  0  0  0  0  0  0  0  0  0  0  0
    7.0806   -3.0578   -1.4469 H   0  0  0  0  0  0  0  0  0  0  0  0
    7.1404   -5.3828   -0.2687 H   0  0  0  0  0  0  0  0  0  0  0  0
    1.5928   -3.7598   -0.6518 H   0  0  0  0  0  0  0  0  0  0  0  0
  1  2  2  0
  1 29  1  0
  1 30  1  0
  2 28  1  0
  2  3  1  0
  3  4  2  0
  3  5  1  0
  5 12  1  0
  5  6  1  0
  5 31  1  1
  6 14  1  0
  6 27  1  0
  6  7  1  1
  7  8  1  0
  7 32  1  0
  7 33  1  0
  8  9  1  0
  8 34  1  0
  8 35  1  0
  9 10  1  0
  9 12  1  0
  9 36  1  6
 10 11  1  0
 11 37  1  0
 11 38  1  0
 11 39  1  0
 12 21  1  0
 12 13  1  1
 13 14  1  0
 14 15  1  0
 14 40  1  1
 15 26  1  0
 15 16  1  1
 15 18  1  0
 16 17  1  0
 17 41  1  0
 17 42  1  0
 17 43  1  0
 18 19  1  0
 18 44  1  0
 18 45  1  0
 19 20  1  0
 19 46  1  0
 19 47  1  0
 21 20  1  1
 20 48  1  0
 20 49  1  0
 21 28  1  0
 21 22  1  0
 22 23  1  0
 22 24  1  0
 22 50  1  6
 23 51  1  0
 24 25  1  0
 24 28  1  0
 24 52  1  6
 25 27  1  0
 25 26  1  0
 25 53  1  6
 26 27  1  0
 26 54  1  6
 27 55  1  6
 28 56  1  6
M  END
>  <i_m_ct_stereo_status>  (70) 
1

>  <s_m_source_file>  (70) 
/var/tmp/pbs.5076255.sched01/tmp3z6s85wa/08w76y650.sdf

>  <i_m_source_file_index>  (70) 
30

>  <i_lp_mmshare_version>  (70) 
48012

>  <i_f3d_flags>  (70) 
0

>  <s_epik_input>  (70) 
W0NIMl0xW0NIMl1bQ0BASF0oT1tDSDNdKVtDQEBdMihbQ0BASF0zW0NAXTE0NSlbQ0BAXTY3W0NASF0oQyg9W0NIMl0pQzM9TylbQ0BASF0oW0NAQEhdN1tPSF0pW0NASF04W0NASF0oW0NAQEhdNTgpW0NAQF0oW0NASF00TzIpKE9bQ0gzXSlbQ0gyXVtDSDJdW0NIMl02

>  <s_epik_cmdline>  (70) 
J2VwaWtfcHl0aG9uJywgJy1waHQnLCAnMi4wJywgJy1waCcsICc3LjAnLCAnLXRuJywgJzgnLCAnLW1hJywgJzIwMCcsICctaW1hZScsICc8aW5maWxlLm1hZT4nLCAnLW9tYWUnLCAnPG91dGZpbGUubWFlPic=

>  <r_lp_tautomer_probability>  (70) 
1

>  <r_epik_Ionization_Penalty>  (70) 
4.88944e-08

>  <r_epik_Ionization_Penalty_Charging>  (70) 
0

>  <r_epik_Ionization_Penalty_Neutral>  (70) 
4.88944e-08

>  <r_epik_State_Penalty>  (70) 
-0

>  <r_epik_Charging_Adjusted_Penalty>  (70) 
0

>  <i_epik_Tot_Q>  (70) 
0

>  <i_epik_Tot_abs_Q>  (70) 
0

>  <s_lp_Force_Field>  (70) 
OPLS3e

>  <r_lp_Energy>  (70) 
298.951

>  <b_lp_Chiralities_Consistent>  (70) 
1

>  <s_lp_Variant>  (70) 
21:0-1

>  <s_i_glide_gridfile>  (70) 
pfpi4k_grid

>  <i_i_glide_lignum>  (70) 
30

>  <i_i_glide_rotatable_bonds>  (70) 
3

>  <r_i_docking_score>  (70) 
-2.14884

>  <r_i_glide_ligand_efficiency>  (70) 
-0.0767441

>  <r_i_glide_ligand_efficiency_sa>  (70) 
-0.23304

>  <r_i_glide_ligand_efficiency_ln>  (70) 
-0.496014

>  <r_i_glide_gscore>  (70) 
-2.14884

>  <r_i_glide_lipo>  (70) 
-0.690897

>  <r_i_glide_hbond>  (70) 
0

>  <r_i_glide_metal>  (70) 
-0

>  <r_i_glide_rewards>  (70) 
-0.84947

>  <r_i_glide_evdw>  (70) 
-11.7155

>  <r_i_glide_ecoul>  (70) 
-0.151273

>  <r_i_glide_erotb>  (70) 
0

>  <r_i_glide_esite>  (70) 
0

>  <r_i_glide_emodel>  (70) 
-11.917

>  <r_i_glide_energy>  (70) 
-11.8668

>  <r_i_glide_einternal>  (70) 
3.39686

>  <r_i_glide_intrahb_reward>  (70) 
-0

>  <i_i_glide_confnum>  (70) 
1

>  <i_i_glide_posenum>  (70) 
36

>  <r_i_glide_eff_state_penalty>  (70) 
0

>  <ligand_id>  (70) 
21

>  <original_smiles>  (70) 
C=C1C(=O)C2C34CCC(OC)C25OC3C2(OC)CCCC53C(O)C(C5C2C54)C13

>  <smiles>  (70) 
[H]OC1([H])C2([H])C3([H])C(=C([H])[H])C(=O)C4([H])C56OC7([H])C(OC([H])([H])[H])(C([H])([H])C([H])([H])C([H])([H])C135)C1([H])C2([H])C1([H])C74C([H])([H])C([H])([H])C6([H])OC([H])([H])[H]

$$$$
21:0:2
     RDKit          3D

 56 63  0  0  1  0  0  0  0  0999 V2000
    4.6462   -1.0206   -2.2862 C   0  0  0  0  0  0  0  0  0  0  0  0
    4.7791   -1.4530   -1.0075 C   0  0  0  0  0  0  0  0  0  0  0  0
    5.6503   -2.5491   -0.6833 C   0  0  0  0  0  0  0  0  0  0  0  0
    6.8294   -2.6673   -1.0069 O   0  0  0  0  0  0  0  0  0  0  0  0
    4.9134   -3.5692    0.1827 C   0  0  1  0  0  0  0  0  0  0  0  0
    5.3229   -4.3249    1.3877 C   0  0  2  0  0  0  0  0  0  0  0  0
    5.3308   -5.7293    0.7390 C   0  0  0  0  0  0  0  0  0  0  0  0
    3.8734   -5.9135    0.0284 C   0  0  0  0  0  0  0  0  0  0  0  0
    3.0130   -4.5258   -0.3236 C   0  0  1  0  0  0  0  0  0  0  0  0
    1.6784   -4.7566   -0.0352 O   0  0  0  0  0  0  0  0  0  0  0  0
    1.0091   -5.6320   -0.8474 C   0  0  0  0  0  0  0  0  0  0  0  0
    3.5081   -3.3884    0.6479 C   0  0  1  0  0  0  0  0  0  0  0  0
    3.0929   -4.1776    1.7253 O   0  0  0  0  0  0  0  0  0  0  0  0
    4.1905   -4.5235    2.4228 C   0  0  2  0  0  0  0  0  0  0  0  0
    4.2816   -3.5882    3.5814 C   0  0  2  0  0  0  0  0  0  0  0  0
    4.6083   -4.3891    4.7385 O   0  0  0  0  0  0  0  0  0  0  0  0
    5.8119   -5.1797    4.7600 C   0  0  0  0  0  0  0  0  0  0  0  0
    2.8321   -2.9956    4.0160 C   0  0  0  0  0  0  0  0  0  0  0  0
    1.6108   -2.5454    3.0464 C   0  0  0  0  0  0  0  0  0  0  0  0
    1.7754   -1.8006    1.6504 C   0  0  0  0  0  0  0  0  0  0  0  0
    3.1721   -1.8379    1.0848 C   0  0  1  0  0  0  0  0  0  0  0  0
    3.7798   -0.6733    2.0902 C   0  0  1  0  0  0  0  0  0  0  0  0
    3.8020   -0.5480    3.4934 O   0  0  0  0  0  0  0  0  0  0  0  0
    5.0767   -0.7970    1.4385 C   0  0  1  0  0  0  0  0  0  0  0  0
    6.0257   -1.8491    2.1460 C   0  0  1  0  0  0  0  0  0  0  0  0
    5.5685   -2.7686    3.2786 C   0  0  2  0  0  0  0  0  0  0  0  0
    6.2966   -3.3879    2.0684 C   0  0  1  0  0  0  0  0  0  0  0  0
    4.0857   -0.8964    0.1993 C   0  0  1  0  0  0  0  0  0  0  0  0
    3.9892   -0.2056   -2.5308 H   0  0  0  0  0  0  0  0  0  0  0  0
    5.1838   -1.5160   -3.0683 H   0  0  0  0  0  0  0  0  0  0  0  0
    5.0451   -4.1536   -0.7371 H   0  0  0  0  0  0  0  0  0  0  0  0
    6.1245   -5.8051   -0.0045 H   0  0  0  0  0  0  0  0  0  0  0  0
    5.5032   -6.5234    1.4716 H   0  0  0  0  0  0  0  0  0  0  0  0
    4.1442   -6.5153   -0.8356 H   0  0  0  0  0  0  0  0  0  0  0  0
    3.2542   -6.5434    0.6827 H   0  0  0  0  0  0  0  0  0  0  0  0
    3.1276   -4.1900   -1.3574 H   0  0  0  0  0  0  0  0  0  0  0  0
   -0.0160   -5.6153   -0.5333 H   0  0  0  0  0  0  0  0  0  0  0  0
    1.3324   -6.6491   -0.6768 H   0  0  0  0  0  0  0  0  0  0  0  0
    1.0153   -5.3894   -1.9026 H   0  0  0  0  0  0  0  0  0  0  0  0
    4.0220   -5.5494    2.7688 H   0  0  0  0  0  0  0  0  0  0  0  0
    5.7597   -5.9371    5.5454 H   0  0  0  0  0  0  0  0  0  0  0  0
    6.6942   -4.5780    4.9773 H   0  0  0  0  0  0  0  0  0  0  0  0
    5.9928   -5.7076    3.8224 H   0  0  0  0  0  0  0  0  0  0  0  0
    2.3718   -3.8385    4.5409 H   0  0  0  0  0  0  0  0  0  0  0  0
    2.9479   -2.2868    4.8398 H   0  0  0  0  0  0  0  0  0  0  0  0
    1.0573   -3.4625    2.8336 H   0  0  0  0  0  0  0  0  0  0  0  0
    0.8931   -1.9755    3.6398 H   0  0  0  0  0  0  0  0  0  0  0  0
    1.1324   -2.2190    0.9004 H   0  0  0  0  0  0  0  0  0  0  0  0
    1.3842   -0.7926    1.7274 H   0  0  0  0  0  0  0  0  0  0  0  0
    3.3108    0.3015    1.8744 H   0  0  0  0  0  0  0  0  0  0  0  0
    3.5255    0.3361    3.6905 H   0  0  0  0  0  0  0  0  0  0  0  0
    5.5653    0.1786    1.4035 H   0  0  0  0  0  0  0  0  0  0  0  0
    6.9373   -1.3233    2.3663 H   0  0  0  0  0  0  0  0  0  0  0  0
    6.0967   -2.5582    4.1911 H   0  0  0  0  0  0  0  0  0  0  0  0
    7.3627   -3.6366    2.0485 H   0  0  0  0  0  0  0  0  0  0  0  0
    3.6719    0.0755   -0.0670 H   0  0  0  0  0  0  0  0  0  0  0  0
  1  2  2  0
  1 29  1  0
  1 30  1  0
  2 28  1  0
  2  3  1  0
  3  4  2  0
  3  5  1  0
  5 12  1  0
  5  6  1  0
  5 31  1  6
  6 14  1  0
  6 27  1  0
  6  7  1  6
  7  8  1  0
  7 32  1  0
  7 33  1  0
  8  9  1  0
  8 34  1  0
  8 35  1  0
  9 10  1  0
  9 12  1  0
  9 36  1  6
 10 11  1  0
 11 37  1  0
 11 38  1  0
 11 39  1  0
 12 21  1  0
 12 13  1  1
 13 14  1  0
 14 15  1  0
 14 40  1  1
 15 26  1  0
 15 16  1  1
 15 18  1  0
 16 17  1  0
 17 41  1  0
 17 42  1  0
 17 43  1  0
 18 19  1  0
 18 44  1  0
 18 45  1  0
 19 20  1  0
 19 46  1  0
 19 47  1  0
 21 20  1  6
 20 48  1  0
 20 49  1  0
 21 28  1  0
 21 22  1  0
 22 23  1  0
 22 24  1  0
 22 50  1  6
 23 51  1  0
 24 25  1  0
 24 28  1  0
 24 52  1  6
 25 27  1  0
 25 26  1  0
 25 53  1  1
 26 27  1  0
 26 54  1  1
 27 55  1  1
 28 56  1  6
M  END
>  <i_m_ct_stereo_status>  (71) 
1

>  <s_m_source_file>  (71) 
/var/tmp/pbs.5076255.sched01/tmp3z6s85wa/08w76y650.sdf

>  <i_m_source_file_index>  (71) 
30

>  <i_lp_mmshare_version>  (71) 
48012

>  <i_f3d_flags>  (71) 
0

>  <s_epik_input>  (71) 
W0NIMl0xW0NIMl1bQ0BASF0oT1tDSDNdKVtDQEBdMihbQ0BASF0zW0NAXTE0NSlbQ0BAXTY3W0NASF0oQyg9W0NIMl0pQzM9TylbQ0BASF0oW0NAQEhdN1tPSF0pW0NASF04W0NASF0oW0NAQEhdNTgpW0NAQF0oW0NASF00TzIpKE9bQ0gzXSlbQ0gyXVtDSDJdW0NIMl02

>  <s_epik_cmdline>  (71) 
J2VwaWtfcHl0aG9uJywgJy1waHQnLCAnMi4wJywgJy1waCcsICc3LjAnLCAnLXRuJywgJzgnLCAnLW1hJywgJzIwMCcsICctaW1hZScsICc8aW5maWxlLm1hZT4nLCAnLW9tYWUnLCAnPG91dGZpbGUubWFlPic=

>  <r_lp_tautomer_probability>  (71) 
1

>  <r_epik_Ionization_Penalty>  (71) 
4.88944e-08

>  <r_epik_Ionization_Penalty_Charging>  (71) 
0

>  <r_epik_Ionization_Penalty_Neutral>  (71) 
4.88944e-08

>  <r_epik_State_Penalty>  (71) 
-0

>  <r_epik_Charging_Adjusted_Penalty>  (71) 
0

>  <i_epik_Tot_Q>  (71) 
0

>  <i_epik_Tot_abs_Q>  (71) 
0

>  <s_lp_Force_Field>  (71) 
OPLS3e

>  <r_lp_Energy>  (71) 
298.951

>  <b_lp_Chiralities_Consistent>  (71) 
1

>  <s_lp_Variant>  (71) 
21:0-1

>  <s_i_glide_gridfile>  (71) 
pfpi4k_grid

>  <i_i_glide_lignum>  (71) 
30

>  <i_i_glide_rotatable_bonds>  (71) 
3

>  <r_i_docking_score>  (71) 
-1.59135

>  <r_i_glide_ligand_efficiency>  (71) 
-0.056834

>  <r_i_glide_ligand_efficiency_sa>  (71) 
-0.172581

>  <r_i_glide_ligand_efficiency_ln>  (71) 
-0.367331

>  <r_i_glide_gscore>  (71) 
-1.59135

>  <r_i_glide_lipo>  (71) 
-0.512495

>  <r_i_glide_hbond>  (71) 
-0.0736255

>  <r_i_glide_metal>  (71) 
-0

>  <r_i_glide_rewards>  (71) 
-0.787736

>  <r_i_glide_evdw>  (71) 
0.418098

>  <r_i_glide_ecoul>  (71) 
-1.51334

>  <r_i_glide_erotb>  (71) 
0

>  <r_i_glide_esite>  (71) 
-0.0113995

>  <r_i_glide_emodel>  (71) 
1.36816

>  <r_i_glide_energy>  (71) 
-1.09524

>  <r_i_glide_einternal>  (71) 
4.62356

>  <r_i_glide_intrahb_reward>  (71) 
-0

>  <i_i_glide_confnum>  (71) 
2

>  <i_i_glide_posenum>  (71) 
2

>  <r_i_glide_eff_state_penalty>  (71) 
0

>  <ligand_id>  (71) 
21

>  <original_smiles>  (71) 
C=C1C(=O)C2C34CCC(OC)C25OC3C2(OC)CCCC53C(O)C(C5C2C54)C13

>  <smiles>  (71) 
[H]OC1([H])C2([H])C3([H])C(=C([H])[H])C(=O)C4([H])C56OC7([H])C(OC([H])([H])[H])(C([H])([H])C([H])([H])C([H])([H])C135)C1([H])C2([H])C1([H])C74C([H])([H])C([H])([H])C6([H])OC([H])([H])[H]

$$$$
22:0:0
     RDKit          3D

 44 48  0  0  1  0  0  0  0  0999 V2000
    4.1791   -0.9267   -2.6798 C   0  0  0  0  0  0  0  0  0  0  0  0
    4.8111   -2.0342   -1.8514 C   0  0  2  0  0  0  0  0  0  0  0  0
    5.6848   -2.8954   -2.6041 O   0  0  0  0  0  0  0  0  0  0  0  0
    4.5011   -3.4683   -2.0270 C   0  0  1  0  0  0  0  0  0  0  0  0
    4.6705   -4.1870   -0.7168 C   0  0  2  0  0  0  0  0  0  0  0  0
    3.3304   -4.5723   -0.0562 C   0  0  0  0  0  0  0  0  0  0  0  0
    3.2767   -3.8906    1.3095 C   0  0  0  0  0  0  0  0  0  0  0  0
    4.7368   -3.5407    1.6164 C   0  0  2  0  0  0  0  0  0  0  0  0
    5.0012   -2.6528    2.8682 C   0  0  2  0  0  0  0  0  0  0  0  0
    4.6735   -3.4661    4.1592 C   0  0  0  0  0  0  0  0  0  0  0  0
    4.3965   -2.6198    5.4086 C   0  0  0  0  0  0  0  0  0  0  0  0
    3.3748   -1.5349    5.0981 C   0  0  0  0  0  0  0  0  0  0  0  0
    2.4861   -1.2826    5.9080 O   0  0  0  0  0  0  0  0  0  0  0  0
    3.5519   -0.7983    3.8432 C   0  0  0  0  0  0  0  0  0  0  0  0
    4.3285   -1.2750    2.8438 C   0  0  0  0  0  0  0  0  0  0  0  0
    4.6954   -0.3575    1.6966 C   0  0  0  0  0  0  0  0  0  0  0  0
    4.2411   -0.8137    0.3122 C   0  0  0  0  0  0  0  0  0  0  0  0
    5.2109   -1.7749   -0.3987 C   0  0  1  0  0  0  0  0  0  0  0  0
    5.4008   -3.2048    0.2459 C   0  0  2  0  0  0  0  0  0  0  0  0
    6.9114   -3.5423    0.3097 C   0  0  0  0  0  0  0  0  0  0  0  0
    3.1913   -0.6642   -2.2932 H   0  0  0  0  0  0  0  0  0  0  0  0
    4.0512   -1.2647   -3.7088 H   0  0  0  0  0  0  0  0  0  0  0  0
    4.8123   -0.0405   -2.6874 H   0  0  0  0  0  0  0  0  0  0  0  0
    3.7498   -3.8110   -2.7365 H   0  0  0  0  0  0  0  0  0  0  0  0
    5.2530   -5.0930   -0.8894 H   0  0  0  0  0  0  0  0  0  0  0  0
    2.4685   -4.3067   -0.6645 H   0  0  0  0  0  0  0  0  0  0  0  0
    3.2985   -5.6554    0.0732 H   0  0  0  0  0  0  0  0  0  0  0  0
    2.6490   -3.0043    1.2693 H   0  0  0  0  0  0  0  0  0  0  0  0
    2.8352   -4.5513    2.0557 H   0  0  0  0  0  0  0  0  0  0  0  0
    5.1726   -4.5037    1.8886 H   0  0  0  0  0  0  0  0  0  0  0  0
    6.0675   -2.4396    2.9028 H   0  0  0  0  0  0  0  0  0  0  0  0
    3.7978   -4.0950    4.0035 H   0  0  0  0  0  0  0  0  0  0  0  0
    5.4878   -4.1593    4.3746 H   0  0  0  0  0  0  0  0  0  0  0  0
    4.0198   -3.2468    6.2168 H   0  0  0  0  0  0  0  0  0  0  0  0
    5.3110   -2.1476    5.7681 H   0  0  0  0  0  0  0  0  0  0  0  0
    3.1243    0.1912    3.7908 H   0  0  0  0  0  0  0  0  0  0  0  0
    4.2170    0.6028    1.8799 H   0  0  0  0  0  0  0  0  0  0  0  0
    5.7686   -0.1686    1.7121 H   0  0  0  0  0  0  0  0  0  0  0  0
    3.2142   -1.1730    0.3151 H   0  0  0  0  0  0  0  0  0  0  0  0
    4.2167    0.1011   -0.2778 H   0  0  0  0  0  0  0  0  0  0  0  0
    6.1749   -1.2683   -0.4314 H   0  0  0  0  0  0  0  0  0  0  0  0
    7.4367   -2.8752    0.9945 H   0  0  0  0  0  0  0  0  0  0  0  0
    7.3850   -3.4512   -0.6702 H   0  0  0  0  0  0  0  0  0  0  0  0
    7.0820   -4.5649    0.6527 H   0  0  0  0  0  0  0  0  0  0  0  0
  2  1  1  6
  1 21  1  0
  1 22  1  0
  1 23  1  0
  2  4  1  0
  2 18  1  0
  2  3  1  0
  3  4  1  0
  4  5  1  0
  4 24  1  6
  5 19  1  0
  5  6  1  0
  5 25  1  6
  6  7  1  0
  6 26  1  0
  6 27  1  0
  7  8  1  0
  7 28  1  0
  7 29  1  0
  8 19  1  0
  8  9  1  0
  8 30  1  1
  9 15  1  0
  9 10  1  0
  9 31  1  1
 10 11  1  0
 10 32  1  0
 10 33  1  0
 11 12  1  0
 11 34  1  0
 11 35  1  0
 12 13  2  0
 12 14  1  0
 14 15  2  0
 14 36  1  0
 15 16  1  0
 16 17  1  0
 16 37  1  0
 16 38  1  0
 17 18  1  0
 17 39  1  0
 17 40  1  0
 18 19  1  0
 18 41  1  6
 19 20  1  1
 20 42  1  0
 20 43  1  0
 20 44  1  0
M  END
>  <i_m_ct_stereo_status>  (72) 
1

>  <s_m_source_file>  (72) 
/var/tmp/pbs.5076255.sched01/tmp3z6s85wa/08w76y650.sdf

>  <i_m_source_file_index>  (72) 
31

>  <i_lp_mmshare_version>  (72) 
48012

>  <i_f3d_flags>  (72) 
0

>  <s_epik_input>  (72) 
W0NIM11bQ0BAXTEyW0NAQEhdKE8xKVtDQEhdM1tDQF00KFtDSDNdKVtDQEhdKFtDSDJdW0NIMl0zKVtDQEhdNUMoW0NIMl1bQ0gyXVtDQEhdMjQpPVtDSF1DKD1PKVtDSDJdW0NIMl01

>  <s_epik_cmdline>  (72) 
J2VwaWtfcHl0aG9uJywgJy1waHQnLCAnMi4wJywgJy1waCcsICc3LjAnLCAnLXRuJywgJzgnLCAnLW1hJywgJzIwMCcsICctaW1hZScsICc8aW5maWxlLm1hZT4nLCAnLW9tYWUnLCAnPG91dGZpbGUubWFlPic=

>  <r_lp_tautomer_probability>  (72) 
1

>  <r_epik_Ionization_Penalty>  (72) 
3.50374e-11

>  <r_epik_Ionization_Penalty_Charging>  (72) 
0

>  <r_epik_Ionization_Penalty_Neutral>  (72) 
3.50374e-11

>  <r_epik_State_Penalty>  (72) 
-0

>  <r_epik_Charging_Adjusted_Penalty>  (72) 
0

>  <i_epik_Tot_Q>  (72) 
0

>  <i_epik_Tot_abs_Q>  (72) 
0

>  <s_lp_Force_Field>  (72) 
OPLS3e

>  <r_lp_Energy>  (72) 
36.1958

>  <b_lp_Chiralities_Consistent>  (72) 
1

>  <s_lp_Variant>  (72) 
22:0-1

>  <s_i_glide_gridfile>  (72) 
pfpi4k_grid

>  <i_i_glide_lignum>  (72) 
31

>  <i_i_glide_rotatable_bonds>  (72) 
0

>  <r_i_docking_score>  (72) 
-3.39165

>  <r_i_glide_ligand_efficiency>  (72) 
-0.169582

>  <r_i_glide_ligand_efficiency_sa>  (72) 
-0.460317

>  <r_i_glide_ligand_efficiency_ln>  (72) 
-0.848817

>  <r_i_glide_gscore>  (72) 
-3.39165

>  <r_i_glide_lipo>  (72) 
-0.508184

>  <r_i_glide_hbond>  (72) 
0

>  <r_i_glide_metal>  (72) 
-0

>  <r_i_glide_rewards>  (72) 
-1.55194

>  <r_i_glide_evdw>  (72) 
-22.8092

>  <r_i_glide_ecoul>  (72) 
-1.27374

>  <r_i_glide_erotb>  (72) 
0

>  <r_i_glide_esite>  (72) 
0

>  <r_i_glide_emodel>  (72) 
-29.1977

>  <r_i_glide_energy>  (72) 
-24.0829

>  <r_i_glide_einternal>  (72) 
0

>  <r_i_glide_intrahb_reward>  (72) 
-0

>  <i_i_glide_confnum>  (72) 
1

>  <i_i_glide_posenum>  (72) 
39

>  <r_i_glide_eff_state_penalty>  (72) 
0

>  <ligand_id>  (72) 
22

>  <original_smiles>  (72) 
CC12OC1C1CCC3C4CCC(=O)C=C4CCC2C31C

>  <smiles>  (72) 
[H]C1=C2C([H])([H])C([H])([H])C3([H])C4(C([H])([H])[H])OC4([H])C4([H])C([H])([H])C([H])([H])C([H])(C2([H])C([H])([H])C([H])([H])C1=O)C43C([H])([H])[H]

$$$$
22:0:1
     RDKit          3D

 44 48  0  0  1  0  0  0  0  0999 V2000
    3.9068   -2.0253   -3.0438 C   0  0  0  0  0  0  0  0  0  0  0  0
    4.9024   -2.4452   -1.9718 C   0  0  2  0  0  0  0  0  0  0  0  0
    6.1765   -2.8638   -2.4921 O   0  0  0  0  0  0  0  0  0  0  0  0
    5.3832   -3.8322   -1.7931 C   0  0  1  0  0  0  0  0  0  0  0  0
    5.7334   -4.0648   -0.3520 C   0  0  2  0  0  0  0  0  0  0  0  0
    4.7065   -4.9502    0.3780 C   0  0  0  0  0  0  0  0  0  0  0  0
    4.1502   -4.1271    1.5413 C   0  0  0  0  0  0  0  0  0  0  0  0
    5.1791   -3.0084    1.7524 C   0  0  2  0  0  0  0  0  0  0  0  0
    4.8015   -1.8754    2.7547 C   0  0  2  0  0  0  0  0  0  0  0  0
    4.7713   -2.4554    4.2024 C   0  0  0  0  0  0  0  0  0  0  0  0
    3.9523   -1.6399    5.2109 C   0  0  0  0  0  0  0  0  0  0  0  0
    2.5686   -1.3396    4.6510 C   0  0  0  0  0  0  0  0  0  0  0  0
    1.5823   -1.4295    5.3782 O   0  0  0  0  0  0  0  0  0  0  0  0
    2.5021   -0.8969    3.2549 C   0  0  0  0  0  0  0  0  0  0  0  0
    3.5330   -1.0875    2.4005 C   0  0  0  0  0  0  0  0  0  0  0  0
    3.5225   -0.3737    1.0645 C   0  0  0  0  0  0  0  0  0  0  0  0
    3.5397   -1.2867   -0.1617 C   0  0  0  0  0  0  0  0  0  0  0  0
    4.9375   -1.7171   -0.6296 C   0  0  1  0  0  0  0  0  0  0  0  0
    5.7419   -2.6692    0.3392 C   0  0  2  0  0  0  0  0  0  0  0  0
    7.1928   -2.1484    0.4726 C   0  0  0  0  0  0  0  0  0  0  0  0
    2.8816   -2.2331   -2.7276 H   0  0  0  0  0  0  0  0  0  0  0  0
    4.0910   -2.5925   -3.9566 H   0  0  0  0  0  0  0  0  0  0  0  0
    4.0077   -0.9648   -3.2725 H   0  0  0  0  0  0  0  0  0  0  0  0
    5.0028   -4.6532   -2.3977 H   0  0  0  0  0  0  0  0  0  0  0  0
    6.7125   -4.5410   -0.2975 H   0  0  0  0  0  0  0  0  0  0  0  0
    3.9105   -5.3044   -0.2734 H   0  0  0  0  0  0  0  0  0  0  0  0
    5.2115   -5.8372    0.7640 H   0  0  0  0  0  0  0  0  0  0  0  0
    3.1701   -3.7300    1.2921 H   0  0  0  0  0  0  0  0  0  0  0  0
    4.0163   -4.7502    2.4256 H   0  0  0  0  0  0  0  0  0  0  0  0
    6.0062   -3.5219    2.2453 H   0  0  0  0  0  0  0  0  0  0  0  0
    5.6010   -1.1355    2.7450 H   0  0  0  0  0  0  0  0  0  0  0  0
    4.3611   -3.4643    4.2017 H   0  0  0  0  0  0  0  0  0  0  0  0
    5.7896   -2.5639    4.5775 H   0  0  0  0  0  0  0  0  0  0  0  0
    3.8506   -2.1885    6.1468 H   0  0  0  0  0  0  0  0  0  0  0  0
    4.4501   -0.6981    5.4427 H   0  0  0  0  0  0  0  0  0  0  0  0
    1.6414   -0.3139    2.9649 H   0  0  0  0  0  0  0  0  0  0  0  0
    2.6094    0.2180    1.0047 H   0  0  0  0  0  0  0  0  0  0  0  0
    4.3359    0.3496    1.0260 H   0  0  0  0  0  0  0  0  0  0  0  0
    2.8507   -2.1213   -0.0632 H   0  0  0  0  0  0  0  0  0  0  0  0
    3.1122   -0.6816   -0.9592 H   0  0  0  0  0  0  0  0  0  0  0  0
    5.5031   -0.7993   -0.7919 H   0  0  0  0  0  0  0  0  0  0  0  0
    7.2235   -1.1790    0.9755 H   0  0  0  0  0  0  0  0  0  0  0  0
    7.6707   -2.0344   -0.5021 H   0  0  0  0  0  0  0  0  0  0  0  0
    7.8110   -2.8437    1.0429 H   0  0  0  0  0  0  0  0  0  0  0  0
  2  1  1  6
  1 21  1  0
  1 22  1  0
  1 23  1  0
  2  4  1  0
  2 18  1  0
  2  3  1  0
  3  4  1  0
  4  5  1  0
  4 24  1  6
  5 19  1  0
  5  6  1  0
  5 25  1  6
  6  7  1  0
  6 26  1  0
  6 27  1  0
  7  8  1  0
  7 28  1  0
  7 29  1  0
  8 19  1  0
  8  9  1  0
  8 30  1  1
  9 15  1  0
  9 10  1  0
  9 31  1  1
 10 11  1  0
 10 32  1  0
 10 33  1  0
 11 12  1  0
 11 34  1  0
 11 35  1  0
 12 13  2  0
 12 14  1  0
 14 15  2  0
 14 36  1  0
 15 16  1  0
 16 17  1  0
 16 37  1  0
 16 38  1  0
 17 18  1  0
 17 39  1  0
 17 40  1  0
 18 19  1  0
 18 41  1  6
 19 20  1  1
 20 42  1  0
 20 43  1  0
 20 44  1  0
M  END
>  <i_m_ct_stereo_status>  (73) 
1

>  <s_m_source_file>  (73) 
/var/tmp/pbs.5076255.sched01/tmp3z6s85wa/08w76y650.sdf

>  <i_m_source_file_index>  (73) 
31

>  <i_lp_mmshare_version>  (73) 
48012

>  <i_f3d_flags>  (73) 
0

>  <s_epik_input>  (73) 
W0NIM11bQ0BAXTEyW0NAQEhdKE8xKVtDQEhdM1tDQF00KFtDSDNdKVtDQEhdKFtDSDJdW0NIMl0zKVtDQEhdNUMoW0NIMl1bQ0gyXVtDQEhdMjQpPVtDSF1DKD1PKVtDSDJdW0NIMl01

>  <s_epik_cmdline>  (73) 
J2VwaWtfcHl0aG9uJywgJy1waHQnLCAnMi4wJywgJy1waCcsICc3LjAnLCAnLXRuJywgJzgnLCAnLW1hJywgJzIwMCcsICctaW1hZScsICc8aW5maWxlLm1hZT4nLCAnLW9tYWUnLCAnPG91dGZpbGUubWFlPic=

>  <r_lp_tautomer_probability>  (73) 
1

>  <r_epik_Ionization_Penalty>  (73) 
3.50374e-11

>  <r_epik_Ionization_Penalty_Charging>  (73) 
0

>  <r_epik_Ionization_Penalty_Neutral>  (73) 
3.50374e-11

>  <r_epik_State_Penalty>  (73) 
-0

>  <r_epik_Charging_Adjusted_Penalty>  (73) 
0

>  <i_epik_Tot_Q>  (73) 
0

>  <i_epik_Tot_abs_Q>  (73) 
0

>  <s_lp_Force_Field>  (73) 
OPLS3e

>  <r_lp_Energy>  (73) 
36.1958

>  <b_lp_Chiralities_Consistent>  (73) 
1

>  <s_lp_Variant>  (73) 
22:0-1

>  <s_i_glide_gridfile>  (73) 
pfpi4k_grid

>  <i_i_glide_lignum>  (73) 
31

>  <i_i_glide_rotatable_bonds>  (73) 
0

>  <r_i_docking_score>  (73) 
-3.35437

>  <r_i_glide_ligand_efficiency>  (73) 
-0.167718

>  <r_i_glide_ligand_efficiency_sa>  (73) 
-0.455258

>  <r_i_glide_ligand_efficiency_ln>  (73) 
-0.839487

>  <r_i_glide_gscore>  (73) 
-3.35437

>  <r_i_glide_lipo>  (73) 
-0.507934

>  <r_i_glide_hbond>  (73) 
0

>  <r_i_glide_metal>  (73) 
-0

>  <r_i_glide_rewards>  (73) 
-1.55194

>  <r_i_glide_evdw>  (73) 
-22.3515

>  <r_i_glide_ecoul>  (73) 
-1.17945

>  <r_i_glide_erotb>  (73) 
0

>  <r_i_glide_esite>  (73) 
0

>  <r_i_glide_emodel>  (73) 
-28.5926

>  <r_i_glide_energy>  (73) 
-23.5309

>  <r_i_glide_einternal>  (73) 
0

>  <r_i_glide_intrahb_reward>  (73) 
-0

>  <i_i_glide_confnum>  (73) 
1

>  <i_i_glide_posenum>  (73) 
1

>  <r_i_glide_eff_state_penalty>  (73) 
0

>  <ligand_id>  (73) 
22

>  <original_smiles>  (73) 
CC12OC1C1CCC3C4CCC(=O)C=C4CCC2C31C

>  <smiles>  (73) 
[H]C1=C2C([H])([H])C([H])([H])C3([H])C4(C([H])([H])[H])OC4([H])C4([H])C([H])([H])C([H])([H])C([H])(C2([H])C([H])([H])C([H])([H])C1=O)C43C([H])([H])[H]

$$$$
22:0:2
     RDKit          3D

 44 48  0  0  1  0  0  0  0  0999 V2000
    4.1854   -3.0515   -3.0110 C   0  0  0  0  0  0  0  0  0  0  0  0
    4.7942   -2.4447   -1.7555 C   0  0  2  0  0  0  0  0  0  0  0  0
    5.4126   -1.1611   -1.9599 O   0  0  0  0  0  0  0  0  0  0  0  0
    6.2479   -2.2552   -1.5653 C   0  0  1  0  0  0  0  0  0  0  0  0
    6.5898   -2.3135   -0.1079 C   0  0  2  0  0  0  0  0  0  0  0  0
    7.3295   -3.6076    0.2716 C   0  0  0  0  0  0  0  0  0  0  0  0
    6.4659   -4.3305    1.3054 C   0  0  0  0  0  0  0  0  0  0  0  0
    5.5342   -3.2434    1.8550 C   0  0  2  0  0  0  0  0  0  0  0  0
    4.3951   -3.7027    2.8122 C   0  0  2  0  0  0  0  0  0  0  0  0
    5.0142   -4.1889    4.1584 C   0  0  0  0  0  0  0  0  0  0  0  0
    4.1161   -5.1147    4.9879 C   0  0  0  0  0  0  0  0  0  0  0  0
    3.5785   -6.2431    4.1218 C   0  0  0  0  0  0  0  0  0  0  0  0
    3.5299   -7.3855    4.5738 O   0  0  0  0  0  0  0  0  0  0  0  0
    3.0818   -5.8857    2.7915 C   0  0  0  0  0  0  0  0  0  0  0  0
    3.4061   -4.7092    2.2083 C   0  0  0  0  0  0  0  0  0  0  0  0
    2.6509   -4.2654    0.9736 C   0  0  0  0  0  0  0  0  0  0  0  0
    3.4970   -4.0600   -0.2813 C   0  0  0  0  0  0  0  0  0  0  0  0
    4.1302   -2.6610   -0.3999 C   0  0  1  0  0  0  0  0  0  0  0  0
    5.2379   -2.2844    0.6647 C   0  0  2  0  0  0  0  0  0  0  0  0
    4.9636   -0.8586    1.2047 C   0  0  0  0  0  0  0  0  0  0  0  0
    4.2438   -4.1417   -2.9821 H   0  0  0  0  0  0  0  0  0  0  0  0
    4.7413   -2.7137   -3.8858 H   0  0  0  0  0  0  0  0  0  0  0  0
    3.1457   -2.7439   -3.1226 H   0  0  0  0  0  0  0  0  0  0  0  0
    6.9725   -2.5807   -2.3090 H   0  0  0  0  0  0  0  0  0  0  0  0
    7.2171   -1.4590    0.1458 H   0  0  0  0  0  0  0  0  0  0  0  0
    7.5320   -4.2414   -0.5877 H   0  0  0  0  0  0  0  0  0  0  0  0
    8.2980   -3.3561    0.7071 H   0  0  0  0  0  0  0  0  0  0  0  0
    5.9101   -5.1416    0.8427 H   0  0  0  0  0  0  0  0  0  0  0  0
    7.0889   -4.7812    2.0778 H   0  0  0  0  0  0  0  0  0  0  0  0
    6.1909   -2.6542    2.4962 H   0  0  0  0  0  0  0  0  0  0  0  0
    3.7908   -2.8317    3.0625 H   0  0  0  0  0  0  0  0  0  0  0  0
    5.9421   -4.7293    3.9790 H   0  0  0  0  0  0  0  0  0  0  0  0
    5.2966   -3.3297    4.7681 H   0  0  0  0  0  0  0  0  0  0  0  0
    4.6769   -5.5402    5.8190 H   0  0  0  0  0  0  0  0  0  0  0  0
    3.2761   -4.5652    5.4136 H   0  0  0  0  0  0  0  0  0  0  0  0
    2.3599   -6.5511    2.3421 H   0  0  0  0  0  0  0  0  0  0  0  0
    1.9115   -5.0286    0.7382 H   0  0  0  0  0  0  0  0  0  0  0  0
    2.0870   -3.3630    1.2064 H   0  0  0  0  0  0  0  0  0  0  0  0
    4.2151   -4.8630   -0.4279 H   0  0  0  0  0  0  0  0  0  0  0  0
    2.7964   -4.1684   -1.1091 H   0  0  0  0  0  0  0  0  0  0  0  0
    3.3120   -1.9403   -0.3434 H   0  0  0  0  0  0  0  0  0  0  0  0
    4.0299   -0.8252    1.7685 H   0  0  0  0  0  0  0  0  0  0  0  0
    4.8838   -0.1293    0.3946 H   0  0  0  0  0  0  0  0  0  0  0  0
    5.7621   -0.5169    1.8664 H   0  0  0  0  0  0  0  0  0  0  0  0
  2  1  1  6
  1 21  1  0
  1 22  1  0
  1 23  1  0
  2  4  1  0
  2 18  1  0
  2  3  1  0
  3  4  1  0
  4  5  1  0
  4 24  1  6
  5 19  1  0
  5  6  1  0
  5 25  1  1
  6  7  1  0
  6 26  1  0
  6 27  1  0
  7  8  1  0
  7 28  1  0
  7 29  1  0
  8 19  1  0
  8  9  1  0
  8 30  1  1
  9 15  1  0
  9 10  1  0
  9 31  1  1
 10 11  1  0
 10 32  1  0
 10 33  1  0
 11 12  1  0
 11 34  1  0
 11 35  1  0
 12 13  2  0
 12 14  1  0
 14 15  2  0
 14 36  1  0
 15 16  1  0
 16 17  1  0
 16 37  1  0
 16 38  1  0
 17 18  1  0
 17 39  1  0
 17 40  1  0
 18 19  1  0
 18 41  1  6
 19 20  1  1
 20 42  1  0
 20 43  1  0
 20 44  1  0
M  END
>  <i_m_ct_stereo_status>  (74) 
1

>  <s_m_source_file>  (74) 
/var/tmp/pbs.5076255.sched01/tmp3z6s85wa/08w76y650.sdf

>  <i_m_source_file_index>  (74) 
31

>  <i_lp_mmshare_version>  (74) 
48012

>  <i_f3d_flags>  (74) 
0

>  <s_epik_input>  (74) 
W0NIM11bQ0BAXTEyW0NAQEhdKE8xKVtDQEhdM1tDQF00KFtDSDNdKVtDQEhdKFtDSDJdW0NIMl0zKVtDQEhdNUMoW0NIMl1bQ0gyXVtDQEhdMjQpPVtDSF1DKD1PKVtDSDJdW0NIMl01

>  <s_epik_cmdline>  (74) 
J2VwaWtfcHl0aG9uJywgJy1waHQnLCAnMi4wJywgJy1waCcsICc3LjAnLCAnLXRuJywgJzgnLCAnLW1hJywgJzIwMCcsICctaW1hZScsICc8aW5maWxlLm1hZT4nLCAnLW9tYWUnLCAnPG91dGZpbGUubWFlPic=

>  <r_lp_tautomer_probability>  (74) 
1

>  <r_epik_Ionization_Penalty>  (74) 
3.50374e-11

>  <r_epik_Ionization_Penalty_Charging>  (74) 
0

>  <r_epik_Ionization_Penalty_Neutral>  (74) 
3.50374e-11

>  <r_epik_State_Penalty>  (74) 
-0

>  <r_epik_Charging_Adjusted_Penalty>  (74) 
0

>  <i_epik_Tot_Q>  (74) 
0

>  <i_epik_Tot_abs_Q>  (74) 
0

>  <s_lp_Force_Field>  (74) 
OPLS3e

>  <r_lp_Energy>  (74) 
36.1958

>  <b_lp_Chiralities_Consistent>  (74) 
1

>  <s_lp_Variant>  (74) 
22:0-1

>  <s_i_glide_gridfile>  (74) 
pfpi4k_grid

>  <i_i_glide_lignum>  (74) 
31

>  <i_i_glide_rotatable_bonds>  (74) 
0

>  <r_i_docking_score>  (74) 
-3.24637

>  <r_i_glide_ligand_efficiency>  (74) 
-0.162318

>  <r_i_glide_ligand_efficiency_sa>  (74) 
-0.4406

>  <r_i_glide_ligand_efficiency_ln>  (74) 
-0.812459

>  <r_i_glide_gscore>  (74) 
-3.24637

>  <r_i_glide_lipo>  (74) 
-0.538305

>  <r_i_glide_hbond>  (74) 
-0.00417483

>  <r_i_glide_metal>  (74) 
-0

>  <r_i_glide_rewards>  (74) 
-1.55194

>  <r_i_glide_evdw>  (74) 
-21.6604

>  <r_i_glide_ecoul>  (74) 
-0.459532

>  <r_i_glide_erotb>  (74) 
0

>  <r_i_glide_esite>  (74) 
0

>  <r_i_glide_emodel>  (74) 
-27.0154

>  <r_i_glide_energy>  (74) 
-22.1199

>  <r_i_glide_einternal>  (74) 
0

>  <r_i_glide_intrahb_reward>  (74) 
-0

>  <i_i_glide_confnum>  (74) 
1

>  <i_i_glide_posenum>  (74) 
10

>  <r_i_glide_eff_state_penalty>  (74) 
0

>  <ligand_id>  (74) 
22

>  <original_smiles>  (74) 
CC12OC1C1CCC3C4CCC(=O)C=C4CCC2C31C

>  <smiles>  (74) 
[H]C1=C2C([H])([H])C([H])([H])C3([H])C4(C([H])([H])[H])OC4([H])C4([H])C([H])([H])C([H])([H])C([H])(C2([H])C([H])([H])C([H])([H])C1=O)C43C([H])([H])[H]

$$$$
23:0:0
     RDKit          3D

 82 89  0  0  1  0  0  0  0  0999 V2000
    7.2857    0.5362    5.9898 C   0  0  0  0  0  0  0  0  0  0  0  0
    6.0654    0.1900    5.3521 O   0  0  0  0  0  0  0  0  0  0  0  0
    5.1020   -0.4295    6.1969 C   0  0  2  0  0  0  0  0  0  0  0  0
    5.4422   -1.9527    6.4056 C   0  0  0  0  0  0  0  0  0  0  0  0
    4.5159   -2.8742    5.6274 C   0  0  2  0  0  0  0  0  0  0  0  0
    3.0660   -2.5079    5.8835 C   0  0  2  0  0  0  0  0  0  0  0  0
    2.7220   -3.9622    5.5009 C   0  0  1  0  0  0  0  0  0  0  0  0
    2.2155   -4.3130    4.0900 C   0  0  1  0  0  0  0  0  0  0  0  0
    2.5932   -3.3220    3.1522 O   0  0  0  0  0  0  0  0  0  0  0  0
    2.7560   -5.6477    3.5301 C   0  0  1  0  0  0  0  0  0  0  0  0
    4.2492   -5.9176    3.8010 C   0  0  2  0  0  0  0  0  0  0  0  0
    4.3672   -7.3392    3.7280 O   0  0  0  0  0  0  0  0  0  0  0  0
    3.1355   -7.9497    3.3459 C   0  0  1  0  0  0  0  0  0  0  0  0
    3.0956   -9.4786    3.7111 C   0  0  0  0  0  0  0  0  0  0  0  0
    4.0767  -10.1964    2.7569 C   0  0  0  0  0  0  0  0  0  0  0  0
    3.6319   -9.6997    5.1499 C   0  0  0  0  0  0  0  0  0  0  0  0
    1.7016  -10.1435    3.5418 C   0  0  0  0  0  0  0  0  0  0  0  0
    1.5196  -11.5102    4.1952 C   0  0  0  0  0  0  0  0  0  0  0  0
    0.6518   -9.6201    2.8808 C   0  0  0  0  0  0  0  0  0  0  0  0
    0.5874   -8.3335    2.0874 C   0  0  0  0  0  0  0  0  0  0  0  0
    0.7357   -7.1243    3.0051 C   0  0  0  0  0  0  0  0  0  0  0  0
   -0.1621   -6.2815    3.0554 O   0  0  0  0  0  0  0  0  0  0  0  0
    2.0272   -6.9743    3.8378 C   0  0  2  0  0  0  0  0  0  0  0  0
    1.6645   -7.1122    5.3311 C   0  0  0  0  0  0  0  0  0  0  0  0
    4.8449   -5.5005    5.1785 C   0  0  1  0  0  0  0  0  0  0  0  0
    6.2121   -5.1790    4.9987 O   0  0  0  0  0  0  0  0  0  0  0  0
    4.1606   -4.3523    5.9696 C   0  0  1  0  0  0  0  0  0  0  0  0
    4.3254   -4.7168    7.4641 C   0  0  0  0  0  0  0  0  0  0  0  0
    2.6292   -1.2027    5.2487 C   0  0  1  0  0  0  0  0  0  0  0  0
    1.1444   -0.9461    5.4417 C   0  0  0  0  0  0  0  0  0  0  0  0
    3.7148   -0.0685    5.6045 C   0  0  1  0  0  0  0  0  0  0  0  0
    3.2685    1.3251    6.0187 C   0  0  0  0  0  0  0  0  0  0  0  0
    3.3473   -0.4035    4.2330 C   0  0  1  0  0  0  0  0  0  0  0  0
    4.2067   -0.9134    3.2204 O   0  0  0  0  0  0  0  0  0  0  0  0
    3.2905    0.1844    2.8699 C   0  0  1  0  0  0  0  0  0  0  0  0
    2.1624   -0.1372    1.9128 C   0  0  2  0  0  0  0  0  0  0  0  0
    1.1567    0.9536    1.5963 C   0  0  0  0  0  0  0  0  0  0  0  0
    0.8339   -0.1207    2.4803 O   0  0  0  0  0  0  0  0  0  0  0  0
    7.9284    1.0393    5.2664 H   0  0  0  0  0  0  0  0  0  0  0  0
    7.8112   -0.3444    6.3569 H   0  0  0  0  0  0  0  0  0  0  0  0
    7.1238    1.2154    6.8272 H   0  0  0  0  0  0  0  0  0  0  0  0
    5.1371    0.0467    7.1762 H   0  0  0  0  0  0  0  0  0  0  0  0
    6.4749   -2.1630    6.1412 H   0  0  0  0  0  0  0  0  0  0  0  0
    5.3805   -2.1618    7.4780 H   0  0  0  0  0  0  0  0  0  0  0  0
    4.7494   -2.8232    4.5566 H   0  0  0  0  0  0  0  0  0  0  0  0
    2.8890   -2.4060    6.9598 H   0  0  0  0  0  0  0  0  0  0  0  0
    2.0203   -4.3521    6.2433 H   0  0  0  0  0  0  0  0  0  0  0  0
    1.1241   -4.3141    4.0923 H   0  0  0  0  0  0  0  0  0  0  0  0
    2.2319   -3.5214    2.3065 H   0  0  0  0  0  0  0  0  0  0  0  0
    2.6818   -5.5608    2.4431 H   0  0  0  0  0  0  0  0  0  0  0  0
    4.8276   -5.4657    2.9937 H   0  0  0  0  0  0  0  0  0  0  0  0
    3.1682   -7.8822    2.2548 H   0  0  0  0  0  0  0  0  0  0  0  0
    5.0738   -9.7575    2.8117 H   0  0  0  0  0  0  0  0  0  0  0  0
    3.7484  -10.1347    1.7179 H   0  0  0  0  0  0  0  0  0  0  0  0
    4.1835  -11.2558    2.9929 H   0  0  0  0  0  0  0  0  0  0  0  0
    4.5765   -9.1816    5.3130 H   0  0  0  0  0  0  0  0  0  0  0  0
    3.8325  -10.7534    5.3469 H   0  0  0  0  0  0  0  0  0  0  0  0
    2.9391   -9.3701    5.9198 H   0  0  0  0  0  0  0  0  0  0  0  0
    2.2919  -12.2127    3.8826 H   0  0  0  0  0  0  0  0  0  0  0  0
    0.5586  -11.9583    3.9299 H   0  0  0  0  0  0  0  0  0  0  0  0
    1.5401  -11.4355    5.2801 H   0  0  0  0  0  0  0  0  0  0  0  0
   -0.2690  -10.1884    2.8433 H   0  0  0  0  0  0  0  0  0  0  0  0
    1.3378   -8.3329    1.2967 H   0  0  0  0  0  0  0  0  0  0  0  0
   -0.3844   -8.2821    1.5922 H   0  0  0  0  0  0  0  0  0  0  0  0
    2.5428   -7.0409    5.9694 H   0  0  0  0  0  0  0  0  0  0  0  0
    1.1765   -8.0669    5.5316 H   0  0  0  0  0  0  0  0  0  0  0  0
    0.9629   -6.3384    5.6430 H   0  0  0  0  0  0  0  0  0  0  0  0
    4.8534   -6.3987    5.7954 H   0  0  0  0  0  0  0  0  0  0  0  0
    6.6314   -5.9190    4.5904 H   0  0  0  0  0  0  0  0  0  0  0  0
    3.8649   -5.6755    7.7067 H   0  0  0  0  0  0  0  0  0  0  0  0
    3.8834   -3.9783    8.1354 H   0  0  0  0  0  0  0  0  0  0  0  0
    5.3827   -4.7876    7.7364 H   0  0  0  0  0  0  0  0  0  0  0  0
    0.8732    0.0507    5.0801 H   0  0  0  0  0  0  0  0  0  0  0  0
    0.8849   -1.0170    6.4948 H   0  0  0  0  0  0  0  0  0  0  0  0
    0.5626   -1.6715    4.8713 H   0  0  0  0  0  0  0  0  0  0  0  0
    2.4172    1.6472    5.4064 H   0  0  0  0  0  0  0  0  0  0  0  0
    4.0700    2.0512    5.8577 H   0  0  0  0  0  0  0  0  0  0  0  0
    2.9676    1.3187    7.0645 H   0  0  0  0  0  0  0  0  0  0  0  0
    3.7857    1.1451    2.7543 H   0  0  0  0  0  0  0  0  0  0  0  0
    2.3248   -0.8966    1.1471 H   0  0  0  0  0  0  0  0  0  0  0  0
    1.2572    1.9202    2.0875 H   0  0  0  0  0  0  0  0  0  0  0  0
    0.6150    0.9362    0.6550 H   0  0  0  0  0  0  0  0  0  0  0  0
  1  2  1  0
  1 39  1  0
  1 40  1  0
  1 41  1  0
  2  3  1  0
  3 31  1  0
  3  4  1  0
  3 42  1  1
  4  5  1  0
  4 43  1  0
  4 44  1  0
  5 27  1  0
  5  6  1  0
  5 45  1  6
  6  7  1  0
  6 29  1  0
  6 46  1  1
  7 27  1  0
  7  8  1  0
  7 47  1  1
  8  9  1  0
  8 10  1  0
  8 48  1  1
  9 49  1  0
 10 23  1  0
 10 11  1  0
 10 50  1  6
 11 12  1  0
 11 25  1  0
 11 51  1  6
 12 13  1  0
 13 23  1  0
 13 14  1  0
 13 52  1  6
 14 15  1  0
 14 16  1  0
 14 17  1  0
 15 53  1  0
 15 54  1  0
 15 55  1  0
 16 56  1  0
 16 57  1  0
 16 58  1  0
 17 18  1  0
 17 19  2  0
 18 59  1  0
 18 60  1  0
 18 61  1  0
 19 20  1  0
 19 62  1  0
 20 21  1  0
 20 63  1  0
 20 64  1  0
 21 22  2  0
 21 23  1  0
 23 24  1  1
 24 65  1  0
 24 66  1  0
 24 67  1  0
 25 26  1  0
 25 27  1  0
 25 68  1  1
 26 69  1  0
 27 28  1  1
 28 70  1  0
 28 71  1  0
 28 72  1  0
 29 33  1  0
 29 30  1  1
 29 31  1  0
 30 73  1  0
 30 74  1  0
 30 75  1  0
 31 32  1  1
 31 33  1  0
 32 76  1  0
 32 77  1  0
 32 78  1  0
 33 35  1  0
 33 34  1  6
 34 35  1  0
 35 36  1  0
 35 79  1  1
 36 38  1  0
 36 37  1  0
 36 80  1  6
 37 38  1  0
 37 81  1  0
 37 82  1  0
M  END
>  <i_m_ct_stereo_status>  (75) 
1

>  <s_m_source_file>  (75) 
/var/tmp/pbs.5076255.sched01/tmp3z6s85wa/08w76y650.sdf

>  <i_m_source_file_index>  (75) 
32

>  <i_lp_mmshare_version>  (75) 
48012

>  <i_f3d_flags>  (75) 
0

>  <s_epik_input>  (75) 
TzFbQ0gyXVtDQEhdMVtDQEBIXTJPW0NAXTIzW0NAQF00KFtDSDNdKVtDQEBIXTVbQ0BASF0oW0NIMl1bQ0BASF0oT1tDSDNdKVtDQEBdMzRbQ0gzXSlbQ0BAXTYoW0NIM10pW0NAQEhdNVtDQEBIXShbT0hdKVtDQEhdN1tDQEBIXShbQ0BIXTZbT0hdKU9bQ0BASF04W0NAXTcoW0NIM10pQyg9TylbQ0gyXVtDSF09QyhbQ0gzXSlDOChbQ0gzXSlbQ0gzXQ==

>  <s_epik_cmdline>  (75) 
J2VwaWtfcHl0aG9uJywgJy1waHQnLCAnMi4wJywgJy1waCcsICc3LjAnLCAnLXRuJywgJzgnLCAnLW1hJywgJzIwMCcsICctaW1hZScsICc8aW5maWxlLm1hZT4nLCAnLW9tYWUnLCAnPG91dGZpbGUubWFlPic=

>  <r_lp_tautomer_probability>  (75) 
1

>  <r_epik_Ionization_Penalty>  (75) 
2.13511e-07

>  <r_epik_Ionization_Penalty_Charging>  (75) 
0

>  <r_epik_Ionization_Penalty_Neutral>  (75) 
2.13511e-07

>  <r_epik_State_Penalty>  (75) 
-0

>  <r_epik_Charging_Adjusted_Penalty>  (75) 
0

>  <i_epik_Tot_Q>  (75) 
0

>  <i_epik_Tot_abs_Q>  (75) 
0

>  <s_lp_Force_Field>  (75) 
OPLS3e

>  <r_lp_Energy>  (75) 
74.2452

>  <b_lp_Chiralities_Consistent>  (75) 
1

>  <s_lp_Variant>  (75) 
23:0-1

>  <s_i_glide_gridfile>  (75) 
pfpi4k_grid

>  <i_i_glide_lignum>  (75) 
32

>  <i_i_glide_rotatable_bonds>  (75) 
4

>  <r_i_docking_score>  (75) 
-2.1033

>  <r_i_glide_ligand_efficiency>  (75) 
-0.0553499

>  <r_i_glide_ligand_efficiency_sa>  (75) 
-0.186085

>  <r_i_glide_ligand_efficiency_ln>  (75) 
-0.453532

>  <r_i_glide_gscore>  (75) 
-2.1033

>  <r_i_glide_lipo>  (75) 
-0.30072

>  <r_i_glide_hbond>  (75) 
-0.136287

>  <r_i_glide_metal>  (75) 
-0

>  <r_i_glide_rewards>  (75) 
0

>  <r_i_glide_evdw>  (75) 
-22.4316

>  <r_i_glide_ecoul>  (75) 
-3.87629

>  <r_i_glide_erotb>  (75) 
0.0737137

>  <r_i_glide_esite>  (75) 
-0.0369751

>  <r_i_glide_emodel>  (75) 
-28.4229

>  <r_i_glide_energy>  (75) 
-26.3079

>  <r_i_glide_einternal>  (75) 
0.728649

>  <r_i_glide_intrahb_reward>  (75) 
-0

>  <i_i_glide_confnum>  (75) 
1

>  <i_i_glide_posenum>  (75) 
12

>  <r_i_glide_eff_state_penalty>  (75) 
0

>  <ligand_id>  (75) 
23

>  <original_smiles>  (75) 
COC1CC2C(C3C(O)C4C(OC5C(C)(C)C(C)=CCC(=O)C45C)C(O)C23C)C2(C)C1(C)C21OC1C1CO1

>  <smiles>  (75) 
[H]OC1([H])C2([H])C([H])(OC3([H])C(C([H])([H])[H])(C([H])([H])[H])C(C([H])([H])[H])=C([H])C([H])([H])C(=O)C32C([H])([H])[H])C([H])(O[H])C2(C([H])([H])[H])C3([H])C([H])([H])C([H])(OC([H])([H])[H])C4(C([H])([H])[H])C5(OC5([H])C5([H])OC5([H])[H])C4(C([H])([H])[H])C3([H])C12[H]

$$$$
23:0:1
     RDKit          3D

 82 89  0  0  1  0  0  0  0  0999 V2000
    7.3031    0.5842    5.9592 C   0  0  0  0  0  0  0  0  0  0  0  0
    6.1115    0.1790    5.3050 O   0  0  0  0  0  0  0  0  0  0  0  0
    5.1486   -0.4291    6.1557 C   0  0  2  0  0  0  0  0  0  0  0  0
    5.4838   -1.9517    6.3680 C   0  0  0  0  0  0  0  0  0  0  0  0
    4.5469   -2.8735    5.5940 C   0  0  2  0  0  0  0  0  0  0  0  0
    3.1015   -2.4968    5.8514 C   0  0  2  0  0  0  0  0  0  0  0  0
    2.7471   -3.9472    5.4752 C   0  0  1  0  0  0  0  0  0  0  0  0
    2.2253   -4.3051    4.0705 C   0  0  1  0  0  0  0  0  0  0  0  0
    2.5654   -3.3246    3.1132 O   0  0  0  0  0  0  0  0  0  0  0  0
    2.7595   -5.6400    3.5127 C   0  0  1  0  0  0  0  0  0  0  0  0
    4.2518   -5.9190    3.7808 C   0  0  2  0  0  0  0  0  0  0  0  0
    4.3614   -7.3424    3.7099 O   0  0  0  0  0  0  0  0  0  0  0  0
    3.1237   -7.9460    3.3352 C   0  0  1  0  0  0  0  0  0  0  0  0
    3.0734   -9.4753    3.7034 C   0  0  0  0  0  0  0  0  0  0  0  0
    4.0458  -10.2036    2.7487 C   0  0  0  0  0  0  0  0  0  0  0  0
    3.6123   -9.6976    5.1409 C   0  0  0  0  0  0  0  0  0  0  0  0
    1.6760  -10.1298    3.5401 C   0  0  0  0  0  0  0  0  0  0  0  0
    1.4849  -11.4941    4.1961 C   0  0  0  0  0  0  0  0  0  0  0  0
    0.6258   -9.5980    2.8810 C   0  0  0  0  0  0  0  0  0  0  0  0
    0.5714   -8.3137    2.0842 C   0  0  0  0  0  0  0  0  0  0  0  0
    0.7277   -7.1031    2.9995 C   0  0  0  0  0  0  0  0  0  0  0  0
   -0.1652   -6.2617    3.0564 O   0  0  0  0  0  0  0  0  0  0  0  0
    2.0256   -6.9610    3.8274 C   0  0  2  0  0  0  0  0  0  0  0  0
    1.6661   -7.0927    5.3235 C   0  0  0  0  0  0  0  0  0  0  0  0
    4.8546   -5.5049    5.1544 C   0  0  1  0  0  0  0  0  0  0  0  0
    6.2218   -5.1937    4.9701 O   0  0  0  0  0  0  0  0  0  0  0  0
    4.1828   -4.3488    5.9410 C   0  0  1  0  0  0  0  0  0  0  0  0
    4.3509   -4.7118    7.4377 C   0  0  0  0  0  0  0  0  0  0  0  0
    2.6652   -1.1918    5.2170 C   0  0  1  0  0  0  0  0  0  0  0  0
    1.1849   -0.9268    5.4158 C   0  0  0  0  0  0  0  0  0  0  0  0
    3.7620   -0.0587    5.5686 C   0  0  1  0  0  0  0  0  0  0  0  0
    3.3294    1.3339    5.9845 C   0  0  0  0  0  0  0  0  0  0  0  0
    3.3786   -0.3888    4.2074 C   0  0  1  0  0  0  0  0  0  0  0  0
    4.2242   -0.9224    3.2021 O   0  0  0  0  0  0  0  0  0  0  0  0
    3.3313    0.1764    2.8330 C   0  0  1  0  0  0  0  0  0  0  0  0
    2.1978   -0.1417    1.8847 C   0  0  2  0  0  0  0  0  0  0  0  0
    1.1663    0.9383    1.6116 C   0  0  0  0  0  0  0  0  0  0  0  0
    0.8781   -0.1693    2.4673 O   0  0  0  0  0  0  0  0  0  0  0  0
    7.9564    1.0707    5.2341 H   0  0  0  0  0  0  0  0  0  0  0  0
    7.8342   -0.2671    6.3852 H   0  0  0  0  0  0  0  0  0  0  0  0
    7.0980    1.2993    6.7581 H   0  0  0  0  0  0  0  0  0  0  0  0
    5.1900    0.0471    7.1369 H   0  0  0  0  0  0  0  0  0  0  0  0
    6.5151   -2.1641    6.1008 H   0  0  0  0  0  0  0  0  0  0  0  0
    5.4243   -2.1604    7.4400 H   0  0  0  0  0  0  0  0  0  0  0  0
    4.7728   -2.8305    4.5235 H   0  0  0  0  0  0  0  0  0  0  0  0
    2.9267   -2.3958    6.9279 H   0  0  0  0  0  0  0  0  0  0  0  0
    2.0517   -4.3281    6.2214 H   0  0  0  0  0  0  0  0  0  0  0  0
    1.1366   -4.3035    4.0837 H   0  0  0  0  0  0  0  0  0  0  0  0
    2.3092   -2.4772    3.4432 H   0  0  0  0  0  0  0  0  0  0  0  0
    2.6807   -5.5527    2.4252 H   0  0  0  0  0  0  0  0  0  0  0  0
    4.8315   -5.4738    2.9721 H   0  0  0  0  0  0  0  0  0  0  0  0
    3.1526   -7.8815    2.2450 H   0  0  0  0  0  0  0  0  0  0  0  0
    5.0465   -9.7730    2.7983 H   0  0  0  0  0  0  0  0  0  0  0  0
    3.7147  -10.1438    1.7106 H   0  0  0  0  0  0  0  0  0  0  0  0
    4.1454  -11.2631    2.9871 H   0  0  0  0  0  0  0  0  0  0  0  0
    4.5604   -9.1855    5.3004 H   0  0  0  0  0  0  0  0  0  0  0  0
    3.8053  -10.7520    5.3399 H   0  0  0  0  0  0  0  0  0  0  0  0
    2.9237   -9.3613    5.9117 H   0  0  0  0  0  0  0  0  0  0  0  0
    2.2517  -12.2031    3.8861 H   0  0  0  0  0  0  0  0  0  0  0  0
    0.5213  -11.9347    3.9346 H   0  0  0  0  0  0  0  0  0  0  0  0
    1.5078  -11.4156    5.2816 H   0  0  0  0  0  0  0  0  0  0  0  0
   -0.2982  -10.1584    2.8473 H   0  0  0  0  0  0  0  0  0  0  0  0
    1.3189   -8.3208    1.2909 H   0  0  0  0  0  0  0  0  0  0  0  0
   -0.4000   -8.2561    1.5932 H   0  0  0  0  0  0  0  0  0  0  0  0
    2.5484   -7.0256    5.9578 H   0  0  0  0  0  0  0  0  0  0  0  0
    1.1730   -8.0443    5.5262 H   0  0  0  0  0  0  0  0  0  0  0  0
    0.9704   -6.3137    5.6341 H   0  0  0  0  0  0  0  0  0  0  0  0
    4.8589   -6.4017    5.7742 H   0  0  0  0  0  0  0  0  0  0  0  0
    6.6306   -5.9309    4.5492 H   0  0  0  0  0  0  0  0  0  0  0  0
    3.8842   -5.6674    7.6832 H   0  0  0  0  0  0  0  0  0  0  0  0
    3.9181   -3.9685    8.1097 H   0  0  0  0  0  0  0  0  0  0  0  0
    5.4088   -4.7908    7.7033 H   0  0  0  0  0  0  0  0  0  0  0  0
    0.9208    0.0691    5.0528 H   0  0  0  0  0  0  0  0  0  0  0  0
    0.9329   -0.9926    6.4735 H   0  0  0  0  0  0  0  0  0  0  0  0
    0.5953   -1.6525    4.8532 H   0  0  0  0  0  0  0  0  0  0  0  0
    2.4802    1.6586    5.3766 H   0  0  0  0  0  0  0  0  0  0  0  0
    4.1366    2.0545    5.8177 H   0  0  0  0  0  0  0  0  0  0  0  0
    3.0340    1.3299    7.0334 H   0  0  0  0  0  0  0  0  0  0  0  0
    3.8138    1.1404    2.7168 H   0  0  0  0  0  0  0  0  0  0  0  0
    2.3687   -0.8658    1.0909 H   0  0  0  0  0  0  0  0  0  0  0  0
    1.2493    1.8913    2.1262 H   0  0  0  0  0  0  0  0  0  0  0  0
    0.6170    0.9443    0.6750 H   0  0  0  0  0  0  0  0  0  0  0  0
  1  2  1  0
  1 39  1  0
  1 40  1  0
  1 41  1  0
  2  3  1  0
  3 31  1  0
  3  4  1  0
  3 42  1  1
  4  5  1  0
  4 43  1  0
  4 44  1  0
  5 27  1  0
  5  6  1  0
  5 45  1  6
  6  7  1  0
  6 29  1  0
  6 46  1  1
  7 27  1  0
  7  8  1  0
  7 47  1  1
  8  9  1  0
  8 10  1  0
  8 48  1  1
  9 49  1  0
 10 23  1  0
 10 11  1  0
 10 50  1  6
 11 12  1  0
 11 25  1  0
 11 51  1  6
 12 13  1  0
 13 23  1  0
 13 14  1  0
 13 52  1  6
 14 15  1  0
 14 16  1  0
 14 17  1  0
 15 53  1  0
 15 54  1  0
 15 55  1  0
 16 56  1  0
 16 57  1  0
 16 58  1  0
 17 18  1  0
 17 19  2  0
 18 59  1  0
 18 60  1  0
 18 61  1  0
 19 20  1  0
 19 62  1  0
 20 21  1  0
 20 63  1  0
 20 64  1  0
 21 22  2  0
 21 23  1  0
 23 24  1  1
 24 65  1  0
 24 66  1  0
 24 67  1  0
 25 26  1  0
 25 27  1  0
 25 68  1  1
 26 69  1  0
 27 28  1  1
 28 70  1  0
 28 71  1  0
 28 72  1  0
 29 33  1  0
 29 30  1  1
 29 31  1  0
 30 73  1  0
 30 74  1  0
 30 75  1  0
 31 32  1  1
 31 33  1  0
 32 76  1  0
 32 77  1  0
 32 78  1  0
 33 35  1  0
 33 34  1  6
 34 35  1  0
 35 36  1  0
 35 79  1  1
 36 38  1  0
 36 37  1  0
 36 80  1  6
 37 38  1  0
 37 81  1  0
 37 82  1  0
M  END
>  <i_m_ct_stereo_status>  (76) 
1

>  <s_m_source_file>  (76) 
/var/tmp/pbs.5076255.sched01/tmp3z6s85wa/08w76y650.sdf

>  <i_m_source_file_index>  (76) 
32

>  <i_lp_mmshare_version>  (76) 
48012

>  <i_f3d_flags>  (76) 
0

>  <s_epik_input>  (76) 
TzFbQ0gyXVtDQEhdMVtDQEBIXTJPW0NAXTIzW0NAQF00KFtDSDNdKVtDQEBIXTVbQ0BASF0oW0NIMl1bQ0BASF0oT1tDSDNdKVtDQEBdMzRbQ0gzXSlbQ0BAXTYoW0NIM10pW0NAQEhdNVtDQEBIXShbT0hdKVtDQEhdN1tDQEBIXShbQ0BIXTZbT0hdKU9bQ0BASF04W0NAXTcoW0NIM10pQyg9TylbQ0gyXVtDSF09QyhbQ0gzXSlDOChbQ0gzXSlbQ0gzXQ==

>  <s_epik_cmdline>  (76) 
J2VwaWtfcHl0aG9uJywgJy1waHQnLCAnMi4wJywgJy1waCcsICc3LjAnLCAnLXRuJywgJzgnLCAnLW1hJywgJzIwMCcsICctaW1hZScsICc8aW5maWxlLm1hZT4nLCAnLW9tYWUnLCAnPG91dGZpbGUubWFlPic=

>  <r_lp_tautomer_probability>  (76) 
1

>  <r_epik_Ionization_Penalty>  (76) 
2.13511e-07

>  <r_epik_Ionization_Penalty_Charging>  (76) 
0

>  <r_epik_Ionization_Penalty_Neutral>  (76) 
2.13511e-07

>  <r_epik_State_Penalty>  (76) 
-0

>  <r_epik_Charging_Adjusted_Penalty>  (76) 
0

>  <i_epik_Tot_Q>  (76) 
0

>  <i_epik_Tot_abs_Q>  (76) 
0

>  <s_lp_Force_Field>  (76) 
OPLS3e

>  <r_lp_Energy>  (76) 
74.2452

>  <b_lp_Chiralities_Consistent>  (76) 
1

>  <s_lp_Variant>  (76) 
23:0-1

>  <s_i_glide_gridfile>  (76) 
pfpi4k_grid

>  <i_i_glide_lignum>  (76) 
32

>  <i_i_glide_rotatable_bonds>  (76) 
4

>  <r_i_docking_score>  (76) 
-2.03996

>  <r_i_glide_ligand_efficiency>  (76) 
-0.053683

>  <r_i_glide_ligand_efficiency_sa>  (76) 
-0.180481

>  <r_i_glide_ligand_efficiency_ln>  (76) 
-0.439874

>  <r_i_glide_gscore>  (76) 
-2.03996

>  <r_i_glide_lipo>  (76) 
-0.320999

>  <r_i_glide_hbond>  (76) 
-0.134919

>  <r_i_glide_metal>  (76) 
-0

>  <r_i_glide_rewards>  (76) 
0

>  <r_i_glide_evdw>  (76) 
-22.5624

>  <r_i_glide_ecoul>  (76) 
-3.27914

>  <r_i_glide_erotb>  (76) 
0.0737137

>  <r_i_glide_esite>  (76) 
-0.0377625

>  <r_i_glide_emodel>  (76) 
-27.7666

>  <r_i_glide_energy>  (76) 
-25.8415

>  <r_i_glide_einternal>  (76) 
0.893053

>  <r_i_glide_intrahb_reward>  (76) 
-0

>  <i_i_glide_confnum>  (76) 
3

>  <i_i_glide_posenum>  (76) 
10

>  <r_i_glide_eff_state_penalty>  (76) 
0

>  <ligand_id>  (76) 
23

>  <original_smiles>  (76) 
COC1CC2C(C3C(O)C4C(OC5C(C)(C)C(C)=CCC(=O)C45C)C(O)C23C)C2(C)C1(C)C21OC1C1CO1

>  <smiles>  (76) 
[H]OC1([H])C2([H])C([H])(OC3([H])C(C([H])([H])[H])(C([H])([H])[H])C(C([H])([H])[H])=C([H])C([H])([H])C(=O)C32C([H])([H])[H])C([H])(O[H])C2(C([H])([H])[H])C3([H])C([H])([H])C([H])(OC([H])([H])[H])C4(C([H])([H])[H])C5(OC5([H])C5([H])OC5([H])[H])C4(C([H])([H])[H])C3([H])C12[H]

$$$$
23:0:2
     RDKit          3D

 82 89  0  0  1  0  0  0  0  0999 V2000
    5.8759    1.3637    5.9461 C   0  0  0  0  0  0  0  0  0  0  0  0
    5.2651    0.7545    4.8171 O   0  0  0  0  0  0  0  0  0  0  0  0
    3.9072    0.3772    5.0062 C   0  0  2  0  0  0  0  0  0  0  0  0
    3.8245   -0.9308    5.8652 C   0  0  0  0  0  0  0  0  0  0  0  0
    3.4490   -2.1649    5.0406 C   0  0  2  0  0  0  0  0  0  0  0  0
    2.2446   -1.9006    4.1872 C   0  0  2  0  0  0  0  0  0  0  0  0
    2.0203   -3.4182    4.1868 C   0  0  1  0  0  0  0  0  0  0  0  0
    2.4240   -4.2863    2.9848 C   0  0  1  0  0  0  0  0  0  0  0  0
    3.4199   -3.6350    2.2244 O   0  0  0  0  0  0  0  0  0  0  0  0
    3.0072   -5.6573    3.3715 C   0  0  1  0  0  0  0  0  0  0  0  0
    3.9650   -5.6516    4.5812 C   0  0  2  0  0  0  0  0  0  0  0  0
    3.9392   -6.9989    5.0533 O   0  0  0  0  0  0  0  0  0  0  0  0
    3.1158   -7.8225    4.2287 C   0  0  1  0  0  0  0  0  0  0  0  0
    2.6619   -9.1383    4.9515 C   0  0  0  0  0  0  0  0  0  0  0  0
    3.9156  -10.0261    5.1150 C   0  0  0  0  0  0  0  0  0  0  0  0
    2.1661   -8.8137    6.3866 C   0  0  0  0  0  0  0  0  0  0  0  0
    1.6008   -9.9613    4.1892 C   0  0  0  0  0  0  0  0  0  0  0  0
    0.8832  -11.0389    4.9786 C   0  0  0  0  0  0  0  0  0  0  0  0
    1.2617   -9.7926    2.8786 C   0  0  0  0  0  0  0  0  0  0  0  0
    1.8739   -8.8520    1.8728 C   0  0  0  0  0  0  0  0  0  0  0  0
    1.5640   -7.3987    2.2276 C   0  0  0  0  0  0  0  0  0  0  0  0
    0.9139   -6.6863    1.4593 O   0  0  0  0  0  0  0  0  0  0  0  0
    2.0800   -6.8624    3.5779 C   0  0  2  0  0  0  0  0  0  0  0  0
    0.8651   -6.5326    4.4635 C   0  0  0  0  0  0  0  0  0  0  0  0
    3.6387   -4.7390    5.7972 C   0  0  1  0  0  0  0  0  0  0  0  0
    4.8576   -4.3422    6.3966 O   0  0  0  0  0  0  0  0  0  0  0  0
    2.7838   -3.4721    5.5524 C   0  0  1  0  0  0  0  0  0  0  0  0
    1.9421   -3.3060    6.8379 C   0  0  0  0  0  0  0  0  0  0  0  0
    2.4471   -0.9131    3.0416 C   0  0  1  0  0  0  0  0  0  0  0  0
    1.2043   -0.7914    2.1982 C   0  0  0  0  0  0  0  0  0  0  0  0
    3.2092    0.3816    3.6051 C   0  0  1  0  0  0  0  0  0  0  0  0
    2.7870    1.7703    3.2140 C   0  0  0  0  0  0  0  0  0  0  0  0
    3.6590   -0.3539    2.4493 C   0  0  1  0  0  0  0  0  0  0  0  0
    4.8492   -1.1261    2.5600 O   0  0  0  0  0  0  0  0  0  0  0  0
    4.6441   -0.4029    1.3333 C   0  0  1  0  0  0  0  0  0  0  0  0
    4.2802   -1.1562    0.0714 C   0  0  2  0  0  0  0  0  0  0  0  0
    5.1542   -2.2722   -0.4422 C   0  0  0  0  0  0  0  0  0  0  0  0
    5.2211   -0.9600   -1.0004 O   0  0  0  0  0  0  0  0  0  0  0  0
    6.8795    1.6751    5.6592 H   0  0  0  0  0  0  0  0  0  0  0  0
    5.9730    0.6763    6.7863 H   0  0  0  0  0  0  0  0  0  0  0  0
    5.3281    2.2488    6.2766 H   0  0  0  0  0  0  0  0  0  0  0  0
    3.3985    1.1652    5.5720 H   0  0  0  0  0  0  0  0  0  0  0  0
    4.7594   -1.1253    6.3849 H   0  0  0  0  0  0  0  0  0  0  0  0
    3.0942   -0.7774    6.6577 H   0  0  0  0  0  0  0  0  0  0  0  0
    4.2661   -2.4607    4.3959 H   0  0  0  0  0  0  0  0  0  0  0  0
    1.4524   -1.4944    4.8092 H   0  0  0  0  0  0  0  0  0  0  0  0
    0.9810   -3.5787    4.4397 H   0  0  0  0  0  0  0  0  0  0  0  0
    1.5608   -4.4032    2.3239 H   0  0  0  0  0  0  0  0  0  0  0  0
    3.6104   -4.1315    1.4521 H   0  0  0  0  0  0  0  0  0  0  0  0
    3.6265   -5.9554    2.5203 H   0  0  0  0  0  0  0  0  0  0  0  0
    4.9639   -5.4199    4.2189 H   0  0  0  0  0  0  0  0  0  0  0  0
    3.8097   -8.1166    3.4390 H   0  0  0  0  0  0  0  0  0  0  0  0
    4.7140   -9.4890    5.6285 H   0  0  0  0  0  0  0  0  0  0  0  0
    4.3036  -10.3510    4.1482 H   0  0  0  0  0  0  0  0  0  0  0  0
    3.7106  -10.9246    5.6977 H   0  0  0  0  0  0  0  0  0  0  0  0
    2.8721   -8.1741    6.9146 H   0  0  0  0  0  0  0  0  0  0  0  0
    2.0659   -9.7158    6.9911 H   0  0  0  0  0  0  0  0  0  0  0  0
    1.1988   -8.3201    6.4007 H   0  0  0  0  0  0  0  0  0  0  0  0
    1.5998  -11.7187    5.4398 H   0  0  0  0  0  0  0  0  0  0  0  0
    0.2365  -11.6482    4.3501 H   0  0  0  0  0  0  0  0  0  0  0  0
    0.2493  -10.6154    5.7613 H   0  0  0  0  0  0  0  0  0  0  0  0
    0.4956  -10.4296    2.4669 H   0  0  0  0  0  0  0  0  0  0  0  0
    2.9425   -9.0535    1.7706 H   0  0  0  0  0  0  0  0  0  0  0  0
    1.4361   -9.0494    0.8983 H   0  0  0  0  0  0  0  0  0  0  0  0
    1.1728   -6.1605    5.4393 H   0  0  0  0  0  0  0  0  0  0  0  0
    0.2411   -7.4134    4.6093 H   0  0  0  0  0  0  0  0  0  0  0  0
    0.2319   -5.7794    3.9966 H   0  0  0  0  0  0  0  0  0  0  0  0
    3.1514   -5.3764    6.5377 H   0  0  0  0  0  0  0  0  0  0  0  0
    5.3467   -5.1257    6.5881 H   0  0  0  0  0  0  0  0  0  0  0  0
    1.3135   -4.1730    7.0423 H   0  0  0  0  0  0  0  0  0  0  0  0
    1.2912   -2.4361    6.8049 H   0  0  0  0  0  0  0  0  0  0  0  0
    2.5939   -3.1691    7.7073 H   0  0  0  0  0  0  0  0  0  0  0  0
    1.3577   -0.0192    1.4393 H   0  0  0  0  0  0  0  0  0  0  0  0
    0.3605   -0.5215    2.8289 H   0  0  0  0  0  0  0  0  0  0  0  0
    1.0111   -1.7309    1.6821 H   0  0  0  0  0  0  0  0  0  0  0  0
    2.5553    1.7727    2.1417 H   0  0  0  0  0  0  0  0  0  0  0  0
    3.5943    2.4883    3.3713 H   0  0  0  0  0  0  0  0  0  0  0  0
    1.9008    2.0498    3.7774 H   0  0  0  0  0  0  0  0  0  0  0  0
    5.1789    0.5347    1.2102 H   0  0  0  0  0  0  0  0  0  0  0  0
    3.2528   -1.1122   -0.2810 H   0  0  0  0  0  0  0  0  0  0  0  0
    6.0201   -2.5491    0.1503 H   0  0  0  0  0  0  0  0  0  0  0  0
    4.7115   -3.0194   -1.0903 H   0  0  0  0  0  0  0  0  0  0  0  0
  1  2  1  0
  1 39  1  0
  1 40  1  0
  1 41  1  0
  2  3  1  0
  3 31  1  0
  3  4  1  0
  3 42  1  1
  4  5  1  0
  4 43  1  0
  4 44  1  0
  5 27  1  0
  5  6  1  0
  5 45  1  6
  6  7  1  0
  6 29  1  0
  6 46  1  1
  7 27  1  0
  7  8  1  0
  7 47  1  1
  8  9  1  0
  8 10  1  0
  8 48  1  6
  9 49  1  0
 10 23  1  0
 10 11  1  0
 10 50  1  6
 11 12  1  0
 11 25  1  0
 11 51  1  6
 12 13  1  0
 13 23  1  0
 13 14  1  0
 13 52  1  6
 14 15  1  0
 14 16  1  0
 14 17  1  0
 15 53  1  0
 15 54  1  0
 15 55  1  0
 16 56  1  0
 16 57  1  0
 16 58  1  0
 17 18  1  0
 17 19  2  0
 18 59  1  0
 18 60  1  0
 18 61  1  0
 19 20  1  0
 19 62  1  0
 20 21  1  0
 20 63  1  0
 20 64  1  0
 21 22  2  0
 21 23  1  0
 23 24  1  1
 24 65  1  0
 24 66  1  0
 24 67  1  0
 25 26  1  0
 25 27  1  0
 25 68  1  1
 26 69  1  0
 27 28  1  1
 28 70  1  0
 28 71  1  0
 28 72  1  0
 29 33  1  0
 29 30  1  6
 29 31  1  0
 30 73  1  0
 30 74  1  0
 30 75  1  0
 31 32  1  6
 31 33  1  0
 32 76  1  0
 32 77  1  0
 32 78  1  0
 33 35  1  0
 33 34  1  1
 34 35  1  0
 35 36  1  0
 35 79  1  6
 36 38  1  0
 36 37  1  0
 36 80  1  6
 37 38  1  0
 37 81  1  0
 37 82  1  0
M  END
>  <i_m_ct_stereo_status>  (77) 
1

>  <s_m_source_file>  (77) 
/var/tmp/pbs.5076255.sched01/tmp3z6s85wa/08w76y650.sdf

>  <i_m_source_file_index>  (77) 
32

>  <i_lp_mmshare_version>  (77) 
48012

>  <i_f3d_flags>  (77) 
0

>  <s_epik_input>  (77) 
TzFbQ0gyXVtDQEhdMVtDQEBIXTJPW0NAXTIzW0NAQF00KFtDSDNdKVtDQEBIXTVbQ0BASF0oW0NIMl1bQ0BASF0oT1tDSDNdKVtDQEBdMzRbQ0gzXSlbQ0BAXTYoW0NIM10pW0NAQEhdNVtDQEBIXShbT0hdKVtDQEhdN1tDQEBIXShbQ0BIXTZbT0hdKU9bQ0BASF04W0NAXTcoW0NIM10pQyg9TylbQ0gyXVtDSF09QyhbQ0gzXSlDOChbQ0gzXSlbQ0gzXQ==

>  <s_epik_cmdline>  (77) 
J2VwaWtfcHl0aG9uJywgJy1waHQnLCAnMi4wJywgJy1waCcsICc3LjAnLCAnLXRuJywgJzgnLCAnLW1hJywgJzIwMCcsICctaW1hZScsICc8aW5maWxlLm1hZT4nLCAnLW9tYWUnLCAnPG91dGZpbGUubWFlPic=

>  <r_lp_tautomer_probability>  (77) 
1

>  <r_epik_Ionization_Penalty>  (77) 
2.13511e-07

>  <r_epik_Ionization_Penalty_Charging>  (77) 
0

>  <r_epik_Ionization_Penalty_Neutral>  (77) 
2.13511e-07

>  <r_epik_State_Penalty>  (77) 
-0

>  <r_epik_Charging_Adjusted_Penalty>  (77) 
0

>  <i_epik_Tot_Q>  (77) 
0

>  <i_epik_Tot_abs_Q>  (77) 
0

>  <s_lp_Force_Field>  (77) 
OPLS3e

>  <r_lp_Energy>  (77) 
74.2452

>  <b_lp_Chiralities_Consistent>  (77) 
1

>  <s_lp_Variant>  (77) 
23:0-1

>  <s_i_glide_gridfile>  (77) 
pfpi4k_grid

>  <i_i_glide_lignum>  (77) 
32

>  <i_i_glide_rotatable_bonds>  (77) 
4

>  <r_i_docking_score>  (77) 
-2.01219

>  <r_i_glide_ligand_efficiency>  (77) 
-0.0529523

>  <r_i_glide_ligand_efficiency_sa>  (77) 
-0.178024

>  <r_i_glide_ligand_efficiency_ln>  (77) 
-0.433887

>  <r_i_glide_gscore>  (77) 
-2.01219

>  <r_i_glide_lipo>  (77) 
-0.299068

>  <r_i_glide_hbond>  (77) 
-0.0211414

>  <r_i_glide_metal>  (77) 
-0

>  <r_i_glide_rewards>  (77) 
0

>  <r_i_glide_evdw>  (77) 
-24.5001

>  <r_i_glide_ecoul>  (77) 
-3.44201

>  <r_i_glide_erotb>  (77) 
0.0737137

>  <r_i_glide_esite>  (77) 
-0.0243838

>  <r_i_glide_emodel>  (77) 
-29.6405

>  <r_i_glide_energy>  (77) 
-27.9422

>  <r_i_glide_einternal>  (77) 
1.03724

>  <r_i_glide_intrahb_reward>  (77) 
-0

>  <i_i_glide_confnum>  (77) 
2

>  <i_i_glide_posenum>  (77) 
22

>  <r_i_glide_eff_state_penalty>  (77) 
0

>  <ligand_id>  (77) 
23

>  <original_smiles>  (77) 
COC1CC2C(C3C(O)C4C(OC5C(C)(C)C(C)=CCC(=O)C45C)C(O)C23C)C2(C)C1(C)C21OC1C1CO1

>  <smiles>  (77) 
[H]OC1([H])C2([H])C([H])(OC3([H])C(C([H])([H])[H])(C([H])([H])[H])C(C([H])([H])[H])=C([H])C([H])([H])C(=O)C32C([H])([H])[H])C([H])(O[H])C2(C([H])([H])[H])C3([H])C([H])([H])C([H])(OC([H])([H])[H])C4(C([H])([H])[H])C5(OC5([H])C5([H])OC5([H])[H])C4(C([H])([H])[H])C3([H])C12[H]

$$$$
25:0:0
     RDKit          3D

 40 46  0  0  1  0  0  0  0  0999 V2000
    2.7245   -0.0951   -5.1142 C   0  0  0  0  0  0  0  0  0  0  0  0
    2.9757   -0.9213   -3.9261 N   0  0  0  0  0  0  0  0  0  0  0  0
    2.3015   -2.1880   -3.7358 C   0  0  0  0  0  0  0  0  0  0  0  0
    3.3406   -3.2402   -3.4095 C   0  0  0  0  0  0  0  0  0  0  0  0
    4.0479   -2.9537   -2.0811 C   0  0  1  0  0  0  0  0  0  0  0  0
    5.1764   -4.0583   -1.6327 C   0  0  1  0  0  0  0  0  0  0  0  0
    6.7086   -3.6974   -0.9192 C   0  0  0  0  0  0  0  0  0  0  0  0
    6.9362   -2.1539   -0.1461 C   0  0  1  0  0  0  0  0  0  0  0  0
    5.8533   -1.1084    0.6517 C   0  0  2  0  0  0  0  0  0  0  0  0
    4.7632   -1.7492    1.5594 C   0  0  2  0  0  0  0  0  0  0  0  0
    3.2802   -2.1171    1.2177 C   0  0  0  0  0  0  0  0  0  0  0  0
    3.7277   -3.4324    0.5213 C   0  0  2  0  0  0  0  0  0  0  0  0
    5.0399   -2.8423    0.6910 C   0  0  1  0  0  0  0  0  0  0  0  0
    5.6945   -1.9998   -0.5090 C   0  0  1  0  0  0  0  0  0  0  0  0
    5.2032   -0.7063   -0.7261 C   0  0  1  0  0  0  0  0  0  0  0  0
    4.0122   -1.3438   -1.7042 C   0  0  1  0  0  0  0  0  0  0  0  0
    3.8633   -0.5206   -2.9995 C   0  0  0  0  0  0  0  0  0  0  0  0
    4.4858    0.5046   -3.1246 O   0  0  0  0  0  0  0  0  0  0  0  0
    3.7687   -3.8843   -0.9313 C   0  0  1  0  0  0  0  0  0  0  0  0
    3.2264    0.8810   -5.1397 H   0  0  0  0  0  0  0  0  0  0  0  0
    1.6615    0.1205   -5.1884 H   0  0  0  0  0  0  0  0  0  0  0  0
    3.0634   -0.6292   -5.9963 H   0  0  0  0  0  0  0  0  0  0  0  0
    1.6372   -2.1452   -2.8730 H   0  0  0  0  0  0  0  0  0  0  0  0
    1.7075   -2.4591   -4.6005 H   0  0  0  0  0  0  0  0  0  0  0  0
    2.7709   -4.1563   -3.3510 H   0  0  0  0  0  0  0  0  0  0  0  0
    4.0819   -3.3232   -4.2102 H   0  0  0  0  0  0  0  0  0  0  0  0
    5.2358   -4.8791   -2.3393 H   0  0  0  0  0  0  0  0  0  0  0  0
    6.9576   -4.5104   -0.2339 H   0  0  0  0  0  0  0  0  0  0  0  0
    7.4483   -3.7866   -1.7257 H   0  0  0  0  0  0  0  0  0  0  0  0
    7.6859   -1.5348   -0.6395 H   0  0  0  0  0  0  0  0  0  0  0  0
    6.3788   -0.2722    1.1009 H   0  0  0  0  0  0  0  0  0  0  0  0
    5.0805   -2.0292    2.5591 H   0  0  0  0  0  0  0  0  0  0  0  0
    2.7266   -2.3548    2.1255 H   0  0  0  0  0  0  0  0  0  0  0  0
    2.7495   -1.3714    0.6378 H   0  0  0  0  0  0  0  0  0  0  0  0
    3.6501   -4.2604    1.2254 H   0  0  0  0  0  0  0  0  0  0  0  0
    5.6616   -3.5566    1.2494 H   0  0  0  0  0  0  0  0  0  0  0  0
    6.0112   -1.9615   -1.5961 H   0  0  0  0  0  0  0  0  0  0  0  0
    5.9174   -0.1105   -1.2690 H   0  0  0  0  0  0  0  0  0  0  0  0
    3.0327   -1.1439   -1.2886 H   0  0  0  0  0  0  0  0  0  0  0  0
    3.0474   -4.6582   -1.1192 H   0  0  0  0  0  0  0  0  0  0  0  0
  1  2  1  0
  1 20  1  0
  1 21  1  0
  1 22  1  0
  2 17  1  0
  2  3  1  0
  3  4  1  0
  3 23  1  0
  3 24  1  0
  5  4  1  6
  4 25  1  0
  4 26  1  0
  5 16  1  0
  5 19  1  0
  5  6  1  0
  6 19  1  0
  6  7  1  0
  6 27  1  6
  7  8  1  0
  7 28  1  0
  7 29  1  0
  8 14  1  0
  8  9  1  0
  8 30  1  6
  9 15  1  0
  9 10  1  0
  9 31  1  1
 10 13  1  0
 10 11  1  0
 10 32  1  1
 11 12  1  0
 11 33  1  0
 11 34  1  0
 12 13  1  0
 12 19  1  0
 12 35  1  1
 13 14  1  0
 13 36  1  1
 14 15  1  0
 14 37  1  6
 15 16  1  0
 15 38  1  6
 16 17  1  0
 16 39  1  1
 17 18  2  0
 19 40  1  6
M  END
>  <i_m_ct_stereo_status>  (78) 
1

>  <s_m_source_file>  (78) 
/var/tmp/pbs.5076255.sched01/tmp3z6s85wa/08w76y650.sdf

>  <i_m_source_file_index>  (78) 
34

>  <i_lp_mmshare_version>  (78) 
48012

>  <i_f3d_flags>  (78) 
0

>  <s_epik_input>  (78) 
W0NIMl0xW0NIMl1OKFtDSDNdKUMoPU8pW0NAQEhdMltDQEBIXTNbQ0hdNFtDQEhdKFtDSDJdNSlbQ0BASF0zW0NAQEhdKFtDSDJdNilbQ0BIXTRbQ0BASF02W0NAQEhdN1tDQEhdNVtDQF0xMjc=

>  <s_epik_cmdline>  (78) 
J2VwaWtfcHl0aG9uJywgJy1waHQnLCAnMi4wJywgJy1waCcsICc3LjAnLCAnLXRuJywgJzgnLCAnLW1hJywgJzIwMCcsICctaW1hZScsICc8aW5maWxlLm1hZT4nLCAnLW9tYWUnLCAnPG91dGZpbGUubWFlPic=

>  <r_lp_tautomer_probability>  (78) 
1

>  <r_epik_Ionization_Penalty>  (78) 
1.8346e-07

>  <r_epik_Ionization_Penalty_Charging>  (78) 
0

>  <r_epik_Ionization_Penalty_Neutral>  (78) 
1.8346e-07

>  <r_epik_State_Penalty>  (78) 
-0

>  <r_epik_Charging_Adjusted_Penalty>  (78) 
0

>  <i_epik_Tot_Q>  (78) 
0

>  <i_epik_Tot_abs_Q>  (78) 
0

>  <s_lp_Force_Field>  (78) 
OPLS3e

>  <r_lp_Energy>  (78) 
412.281

>  <b_lp_Chiralities_Consistent>  (78) 
1

>  <s_lp_Variant>  (78) 
25:0-1

>  <s_i_glide_gridfile>  (78) 
pfpi4k_grid

>  <i_i_glide_lignum>  (78) 
34

>  <i_i_glide_rotatable_bonds>  (78) 
0

>  <r_i_docking_score>  (78) 
-3.30258

>  <r_i_glide_ligand_efficiency>  (78) 
-0.17382

>  <r_i_glide_ligand_efficiency_sa>  (78) 
-0.463821

>  <r_i_glide_ligand_efficiency_ln>  (78) 
-0.837274

>  <r_i_glide_gscore>  (78) 
-3.30258

>  <r_i_glide_lipo>  (78) 
-0.724667

>  <r_i_glide_hbond>  (78) 
0

>  <r_i_glide_metal>  (78) 
-0

>  <r_i_glide_rewards>  (78) 
-2.08478

>  <r_i_glide_evdw>  (78) 
-7.0593

>  <r_i_glide_ecoul>  (78) 
-0.934439

>  <r_i_glide_erotb>  (78) 
0

>  <r_i_glide_esite>  (78) 
0

>  <r_i_glide_emodel>  (78) 
-9.87941

>  <r_i_glide_energy>  (78) 
-7.99374

>  <r_i_glide_einternal>  (78) 
0

>  <r_i_glide_intrahb_reward>  (78) 
-0

>  <i_i_glide_confnum>  (78) 
1

>  <i_i_glide_posenum>  (78) 
8

>  <r_i_glide_eff_state_penalty>  (78) 
0

>  <ligand_id>  (78) 
25

>  <original_smiles>  (78) 
CN1CCC23C4CC5C6C7CC(C7C5C6C2C1=O)C43

>  <smiles>  (78) 
[H]C([H])([H])N1C(=O)C2([H])C3([H])C4([H])C5([H])C([H])([H])C6([H])C5([H])C3([H])C4([H])C([H])([H])C3([H])C6([H])C23C([H])([H])C1([H])[H]

$$$$
25:0:1
     RDKit          3D

 40 46  0  0  1  0  0  0  0  0999 V2000
    3.7635   -2.6525    3.4380 C   0  0  0  0  0  0  0  0  0  0  0  0
    3.9178   -2.2780    2.0345 N   0  0  0  0  0  0  0  0  0  0  0  0
    4.6655   -1.0491    1.7744 C   0  0  0  0  0  0  0  0  0  0  0  0
    5.7380   -1.3171    0.7186 C   0  0  0  0  0  0  0  0  0  0  0  0
    5.1435   -1.7811   -0.6046 C   0  0  1  0  0  0  0  0  0  0  0  0
    6.2347   -2.1204   -1.7871 C   0  0  1  0  0  0  0  0  0  0  0  0
    6.1170   -3.3799   -2.9406 C   0  0  0  0  0  0  0  0  0  0  0  0
    4.5761   -4.1001   -3.2209 C   0  0  1  0  0  0  0  0  0  0  0  0
    2.9760   -3.5058   -3.1193 C   0  0  2  0  0  0  0  0  0  0  0  0
    2.7302   -2.0671   -3.6530 C   0  0  2  0  0  0  0  0  0  0  0  0
    2.7490   -0.7075   -2.8857 C   0  0  0  0  0  0  0  0  0  0  0  0
    4.2810   -0.6684   -2.8766 C   0  0  2  0  0  0  0  0  0  0  0  0
    4.1192   -2.0160   -3.3489 C   0  0  1  0  0  0  0  0  0  0  0  0
    4.1902   -3.2594   -2.3087 C   0  0  1  0  0  0  0  0  0  0  0  0
    3.0374   -3.4878   -1.5445 C   0  0  1  0  0  0  0  0  0  0  0  0
    3.6237   -2.4450   -0.4074 C   0  0  1  0  0  0  0  0  0  0  0  0
    3.4321   -3.0178    1.0131 C   0  0  0  0  0  0  0  0  0  0  0  0
    2.8089   -4.0663    1.1830 O   0  0  0  0  0  0  0  0  0  0  0  0
    5.3188   -0.8430   -1.7739 C   0  0  1  0  0  0  0  0  0  0  0  0
    3.1855   -3.5674    3.5720 H   0  0  0  0  0  0  0  0  0  0  0  0
    3.2419   -1.8528    3.9662 H   0  0  0  0  0  0  0  0  0  0  0  0
    4.7397   -2.8074    3.9009 H   0  0  0  0  0  0  0  0  0  0  0  0
    3.9872   -0.2599    1.4344 H   0  0  0  0  0  0  0  0  0  0  0  0
    5.1374   -0.6778    2.6829 H   0  0  0  0  0  0  0  0  0  0  0  0
    6.3239   -0.4136    0.5602 H   0  0  0  0  0  0  0  0  0  0  0  0
    6.4390   -2.0746    1.0720 H   0  0  0  0  0  0  0  0  0  0  0  0
    7.2654   -1.9928   -1.4734 H   0  0  0  0  0  0  0  0  0  0  0  0
    6.5573   -3.0549   -3.8653 H   0  0  0  0  0  0  0  0  0  0  0  0
    6.8177   -4.1379   -2.6469 H   0  0  0  0  0  0  0  0  0  0  0  0
    4.6170   -5.1370   -2.9381 H   0  0  0  0  0  0  0  0  0  0  0  0
    2.2557   -4.2108   -3.5129 H   0  0  0  0  0  0  0  0  0  0  0  0
    2.6087   -1.9780   -4.7168 H   0  0  0  0  0  0  0  0  0  0  0  0
    2.3508    0.0985   -3.4922 H   0  0  0  0  0  0  0  0  0  0  0  0
    2.2871   -0.7164   -1.9221 H   0  0  0  0  0  0  0  0  0  0  0  0
    4.5790   -0.0241   -3.7015 H   0  0  0  0  0  0  0  0  0  0  0  0
    4.6386   -2.0904   -4.3131 H   0  0  0  0  0  0  0  0  0  0  0  0
    4.7699   -3.8163   -1.5153 H   0  0  0  0  0  0  0  0  0  0  0  0
    2.8970   -4.5014   -1.1701 H   0  0  0  0  0  0  0  0  0  0  0  0
    2.9527   -1.6095   -0.3112 H   0  0  0  0  0  0  0  0  0  0  0  0
    5.8152    0.0762   -1.5673 H   0  0  0  0  0  0  0  0  0  0  0  0
  1  2  1  0
  1 20  1  0
  1 21  1  0
  1 22  1  0
  2 17  1  0
  2  3  1  0
  3  4  1  0
  3 23  1  0
  3 24  1  0
  5  4  1  1
  4 25  1  0
  4 26  1  0
  5 16  1  0
  5 19  1  0
  5  6  1  0
  6 19  1  0
  6  7  1  0
  6 27  1  1
  7  8  1  0
  7 28  1  0
  7 29  1  0
  8 14  1  0
  8  9  1  0
  8 30  1  1
  9 15  1  0
  9 10  1  0
  9 31  1  1
 10 13  1  0
 10 11  1  0
 10 32  1  6
 11 12  1  0
 11 33  1  0
 11 34  1  0
 12 13  1  0
 12 19  1  0
 12 35  1  6
 13 14  1  0
 13 36  1  6
 14 15  1  0
 14 37  1  1
 15 16  1  0
 15 38  1  1
 16 17  1  0
 16 39  1  1
 17 18  2  0
 19 40  1  1
M  END
>  <i_m_ct_stereo_status>  (79) 
1

>  <s_m_source_file>  (79) 
/var/tmp/pbs.5076255.sched01/tmp3z6s85wa/08w76y650.sdf

>  <i_m_source_file_index>  (79) 
34

>  <i_lp_mmshare_version>  (79) 
48012

>  <i_f3d_flags>  (79) 
0

>  <s_epik_input>  (79) 
W0NIMl0xW0NIMl1OKFtDSDNdKUMoPU8pW0NAQEhdMltDQEBIXTNbQ0hdNFtDQEhdKFtDSDJdNSlbQ0BASF0zW0NAQEhdKFtDSDJdNilbQ0BIXTRbQ0BASF02W0NAQEhdN1tDQEhdNVtDQF0xMjc=

>  <s_epik_cmdline>  (79) 
J2VwaWtfcHl0aG9uJywgJy1waHQnLCAnMi4wJywgJy1waCcsICc3LjAnLCAnLXRuJywgJzgnLCAnLW1hJywgJzIwMCcsICctaW1hZScsICc8aW5maWxlLm1hZT4nLCAnLW9tYWUnLCAnPG91dGZpbGUubWFlPic=

>  <r_lp_tautomer_probability>  (79) 
1

>  <r_epik_Ionization_Penalty>  (79) 
1.8346e-07

>  <r_epik_Ionization_Penalty_Charging>  (79) 
0

>  <r_epik_Ionization_Penalty_Neutral>  (79) 
1.8346e-07

>  <r_epik_State_Penalty>  (79) 
-0

>  <r_epik_Charging_Adjusted_Penalty>  (79) 
0

>  <i_epik_Tot_Q>  (79) 
0

>  <i_epik_Tot_abs_Q>  (79) 
0

>  <s_lp_Force_Field>  (79) 
OPLS3e

>  <r_lp_Energy>  (79) 
412.281

>  <b_lp_Chiralities_Consistent>  (79) 
1

>  <s_lp_Variant>  (79) 
25:0-1

>  <s_i_glide_gridfile>  (79) 
pfpi4k_grid

>  <i_i_glide_lignum>  (79) 
34

>  <i_i_glide_rotatable_bonds>  (79) 
0

>  <r_i_docking_score>  (79) 
-3.05424

>  <r_i_glide_ligand_efficiency>  (79) 
-0.160749

>  <r_i_glide_ligand_efficiency_sa>  (79) 
-0.428943

>  <r_i_glide_ligand_efficiency_ln>  (79) 
-0.774314

>  <r_i_glide_gscore>  (79) 
-3.05424

>  <r_i_glide_lipo>  (79) 
-1.06001

>  <r_i_glide_hbond>  (79) 
0

>  <r_i_glide_metal>  (79) 
-0

>  <r_i_glide_rewards>  (79) 
-1.66804

>  <r_i_glide_evdw>  (79) 
-4.67789

>  <r_i_glide_ecoul>  (79) 
-0.555869

>  <r_i_glide_erotb>  (79) 
0

>  <r_i_glide_esite>  (79) 
-0.00891277

>  <r_i_glide_emodel>  (79) 
-6.4725

>  <r_i_glide_energy>  (79) 
-5.23376

>  <r_i_glide_einternal>  (79) 
0

>  <r_i_glide_intrahb_reward>  (79) 
-0

>  <i_i_glide_confnum>  (79) 
2

>  <i_i_glide_posenum>  (79) 
17

>  <r_i_glide_eff_state_penalty>  (79) 
0

>  <ligand_id>  (79) 
25

>  <original_smiles>  (79) 
CN1CCC23C4CC5C6C7CC(C7C5C6C2C1=O)C43

>  <smiles>  (79) 
[H]C([H])([H])N1C(=O)C2([H])C3([H])C4([H])C5([H])C([H])([H])C6([H])C5([H])C3([H])C4([H])C([H])([H])C3([H])C6([H])C23C([H])([H])C1([H])[H]

$$$$
25:0:2
     RDKit          3D

 40 46  0  0  1  0  0  0  0  0999 V2000
    2.9363   -2.9398    4.1367 C   0  0  0  0  0  0  0  0  0  0  0  0
    3.4057   -2.4901    2.8284 N   0  0  0  0  0  0  0  0  0  0  0  0
    4.1565   -1.2363    2.8182 C   0  0  0  0  0  0  0  0  0  0  0  0
    5.4581   -1.4308    2.0407 C   0  0  0  0  0  0  0  0  0  0  0  0
    5.2220   -1.8263    0.5928 C   0  0  1  0  0  0  0  0  0  0  0  0
    6.5739   -2.0768   -0.3143 C   0  0  1  0  0  0  0  0  0  0  0  0
    6.7742   -3.2919   -1.5049 C   0  0  0  0  0  0  0  0  0  0  0  0
    5.3354   -4.0463   -2.1610 C   0  0  1  0  0  0  0  0  0  0  0  0
    3.7679   -3.4447   -2.4667 C   0  0  2  0  0  0  0  0  0  0  0  0
    3.6358   -1.9860   -2.9685 C   0  0  2  0  0  0  0  0  0  0  0  0
    3.4059   -0.6793   -2.1558 C   0  0  0  0  0  0  0  0  0  0  0  0
    4.9023   -0.6071   -1.7529 C   0  0  2  0  0  0  0  0  0  0  0  0
    4.8968   -1.9345   -2.3269 C   0  0  1  0  0  0  0  0  0  0  0  0
    4.7387   -3.2087   -1.3705 C   0  0  1  0  0  0  0  0  0  0  0  0
    3.4523   -3.5245   -0.9224 C   0  0  1  0  0  0  0  0  0  0  0  0
    3.7090   -2.5302    0.3793 C   0  0  1  0  0  0  0  0  0  0  0  0
    3.2076   -3.1910    1.6815 C   0  0  0  0  0  0  0  0  0  0  0  0
    2.6166   -4.2630    1.6506 O   0  0  0  0  0  0  0  0  0  0  0  0
    5.6494   -0.8093   -0.4372 C   0  0  1  0  0  0  0  0  0  0  0  0
    2.3719   -3.8712    4.0910 H   0  0  0  0  0  0  0  0  0  0  0  0
    2.2838   -2.1806    4.5686 H   0  0  0  0  0  0  0  0  0  0  0  0
    3.7795   -3.0997    4.8109 H   0  0  0  0  0  0  0  0  0  0  0  0
    3.5533   -0.4377    2.3740 H   0  0  0  0  0  0  0  0  0  0  0  0
    4.3963   -0.9151    3.8318 H   0  0  0  0  0  0  0  0  0  0  0  0
    6.0404   -0.5074    2.0743 H   0  0  0  0  0  0  0  0  0  0  0  0
    6.0770   -2.1990    2.5077 H   0  0  0  0  0  0  0  0  0  0  0  0
    7.5108   -1.9132    0.2317 H   0  0  0  0  0  0  0  0  0  0  0  0
    7.4117   -2.9034   -2.3044 H   0  0  0  0  0  0  0  0  0  0  0  0
    7.4019   -4.0292   -1.0082 H   0  0  0  0  0  0  0  0  0  0  0  0
    5.2138   -5.0919   -1.8871 H   0  0  0  0  0  0  0  0  0  0  0  0
    3.1735   -4.1171   -3.0792 H   0  0  0  0  0  0  0  0  0  0  0  0
    3.7460   -1.8411   -4.0399 H   0  0  0  0  0  0  0  0  0  0  0  0
    3.1372    0.1308   -2.8326 H   0  0  0  0  0  0  0  0  0  0  0  0
    2.6761   -0.7788   -1.3697 H   0  0  0  0  0  0  0  0  0  0  0  0
    5.4025    0.0830   -2.4247 H   0  0  0  0  0  0  0  0  0  0  0  0
    5.6288   -1.9684   -3.1342 H   0  0  0  0  0  0  0  0  0  0  0  0
    5.1344   -3.7940   -0.4817 H   0  0  0  0  0  0  0  0  0  0  0  0
    3.3076   -4.5789   -0.6775 H   0  0  0  0  0  0  0  0  0  0  0  0
    3.0139   -1.7046    0.3500 H   0  0  0  0  0  0  0  0  0  0  0  0
    6.0724    0.1078   -0.0389 H   0  0  0  0  0  0  0  0  0  0  0  0
  1  2  1  0
  1 20  1  0
  1 21  1  0
  1 22  1  0
  2 17  1  0
  2  3  1  0
  3  4  1  0
  3 23  1  0
  3 24  1  0
  5  4  1  1
  4 25  1  0
  4 26  1  0
  5 16  1  0
  5 19  1  0
  5  6  1  0
  6 19  1  0
  6  7  1  0
  6 27  1  1
  7  8  1  0
  7 28  1  0
  7 29  1  0
  8 14  1  0
  8  9  1  0
  8 30  1  1
  9 15  1  0
  9 10  1  0
  9 31  1  6
 10 13  1  0
 10 11  1  0
 10 32  1  6
 11 12  1  0
 11 33  1  0
 11 34  1  0
 12 13  1  0
 12 19  1  0
 12 35  1  6
 13 14  1  0
 13 36  1  6
 14 15  1  0
 14 37  1  1
 15 16  1  0
 15 38  1  6
 16 17  1  0
 16 39  1  6
 17 18  2  0
 19 40  1  1
M  END
>  <i_m_ct_stereo_status>  (80) 
1

>  <s_m_source_file>  (80) 
/var/tmp/pbs.5076255.sched01/tmp3z6s85wa/08w76y650.sdf

>  <i_m_source_file_index>  (80) 
34

>  <i_lp_mmshare_version>  (80) 
48012

>  <i_f3d_flags>  (80) 
0

>  <s_epik_input>  (80) 
W0NIMl0xW0NIMl1OKFtDSDNdKUMoPU8pW0NAQEhdMltDQEBIXTNbQ0hdNFtDQEhdKFtDSDJdNSlbQ0BASF0zW0NAQEhdKFtDSDJdNilbQ0BIXTRbQ0BASF02W0NAQEhdN1tDQEhdNVtDQF0xMjc=

>  <s_epik_cmdline>  (80) 
J2VwaWtfcHl0aG9uJywgJy1waHQnLCAnMi4wJywgJy1waCcsICc3LjAnLCAnLXRuJywgJzgnLCAnLW1hJywgJzIwMCcsICctaW1hZScsICc8aW5maWxlLm1hZT4nLCAnLW9tYWUnLCAnPG91dGZpbGUubWFlPic=

>  <r_lp_tautomer_probability>  (80) 
1

>  <r_epik_Ionization_Penalty>  (80) 
1.8346e-07

>  <r_epik_Ionization_Penalty_Charging>  (80) 
0

>  <r_epik_Ionization_Penalty_Neutral>  (80) 
1.8346e-07

>  <r_epik_State_Penalty>  (80) 
-0

>  <r_epik_Charging_Adjusted_Penalty>  (80) 
0

>  <i_epik_Tot_Q>  (80) 
0

>  <i_epik_Tot_abs_Q>  (80) 
0

>  <s_lp_Force_Field>  (80) 
OPLS3e

>  <r_lp_Energy>  (80) 
412.281

>  <b_lp_Chiralities_Consistent>  (80) 
1

>  <s_lp_Variant>  (80) 
25:0-1

>  <s_i_glide_gridfile>  (80) 
pfpi4k_grid

>  <i_i_glide_lignum>  (80) 
34

>  <i_i_glide_rotatable_bonds>  (80) 
0

>  <r_i_docking_score>  (80) 
-2.74263

>  <r_i_glide_ligand_efficiency>  (80) 
-0.144349

>  <r_i_glide_ligand_efficiency_sa>  (80) 
-0.38518

>  <r_i_glide_ligand_efficiency_ln>  (80) 
-0.695314

>  <r_i_glide_gscore>  (80) 
-2.74263

>  <r_i_glide_lipo>  (80) 
-0.407103

>  <r_i_glide_hbond>  (80) 
0

>  <r_i_glide_metal>  (80) 
-0

>  <r_i_glide_rewards>  (80) 
-1.66812

>  <r_i_glide_evdw>  (80) 
-11.3386

>  <r_i_glide_ecoul>  (80) 
-0.66201

>  <r_i_glide_erotb>  (80) 
0

>  <r_i_glide_esite>  (80) 
-0.00117537

>  <r_i_glide_emodel>  (80) 
-13.7038

>  <r_i_glide_energy>  (80) 
-12.0006

>  <r_i_glide_einternal>  (80) 
0

>  <r_i_glide_intrahb_reward>  (80) 
-0

>  <i_i_glide_confnum>  (80) 
1

>  <i_i_glide_posenum>  (80) 
5

>  <r_i_glide_eff_state_penalty>  (80) 
0

>  <ligand_id>  (80) 
25

>  <original_smiles>  (80) 
CN1CCC23C4CC5C6C7CC(C7C5C6C2C1=O)C43

>  <smiles>  (80) 
[H]C([H])([H])N1C(=O)C2([H])C3([H])C4([H])C5([H])C([H])([H])C6([H])C5([H])C3([H])C4([H])C([H])([H])C3([H])C6([H])C23C([H])([H])C1([H])[H]

$$$$
26:0:0
     RDKit          3D

 25 28  0  0  1  0  0  0  0  0999 V2000
    3.4173   -0.9618   -3.7646 C   0  0  0  0  0  0  0  0  0  0  0  0
    2.6161   -2.1122   -3.5683 C   0  0  0  0  0  0  0  0  0  0  0  0
    2.8327   -3.0054   -2.5784 N   0  0  0  0  0  0  0  0  0  0  0  0
    3.8986   -2.6640   -1.8001 C   0  0  0  0  0  0  0  0  0  0  0  0
    4.7175   -1.5179   -1.9881 C   0  0  0  0  0  0  0  0  0  0  0  0
    4.4790   -0.6550   -2.9788 N   0  0  0  0  0  0  0  0  0  0  0  0
    5.7463   -1.4621   -1.0545 N   0  0  0  0  0  0  0  0  0  0  0  0
    5.4966   -2.5469   -0.3168 C   0  0  0  0  0  0  0  0  0  0  0  0
    4.4405   -3.2943   -0.6943 N   0  0  0  0  0  0  0  0  0  0  0  0
    4.0429   -4.4523    0.0095 C   0  0  0  0  0  0  0  0  0  0  0  0
    4.9889   -5.3340    0.5804 C   0  0  0  0  0  0  0  0  0  0  0  0
    4.5451   -6.4856    1.2543 C   0  0  0  0  0  0  0  0  0  0  0  0
    3.1667   -6.7577    1.3501 C   0  0  0  0  0  0  0  0  0  0  0  0
    2.3545   -8.1199    2.1227 S   0  0  0  0  0  0  0  0  0  0  0  0
    0.8131   -7.4131    1.6233 C   0  0  0  0  0  0  0  0  0  0  0  0
    0.8603   -6.2647    0.9359 N   0  0  0  0  0  0  0  0  0  0  0  0
    2.1955   -5.8843    0.7779 C   0  0  0  0  0  0  0  0  0  0  0  0
    2.6647   -4.7382    0.1116 C   0  0  0  0  0  0  0  0  0  0  0  0
    3.2032   -0.2787   -4.5727 H   0  0  0  0  0  0  0  0  0  0  0  0
    1.7750   -2.3150   -4.2178 H   0  0  0  0  0  0  0  0  0  0  0  0
    6.1077   -2.7934    0.5370 H   0  0  0  0  0  0  0  0  0  0  0  0
    6.0491   -5.1432    0.4936 H   0  0  0  0  0  0  0  0  0  0  0  0
    5.2558   -7.1651    1.6989 H   0  0  0  0  0  0  0  0  0  0  0  0
   -0.1424   -7.8735    1.8351 H   0  0  0  0  0  0  0  0  0  0  0  0
    1.9476   -4.0792   -0.3544 H   0  0  0  0  0  0  0  0  0  0  0  0
  1  6  2  0
  1  2  1  0
  1 19  1  0
  2  3  2  0
  2 20  1  0
  3  4  1  0
  4  9  1  0
  4  5  2  0
  5  6  1  0
  5  7  1  0
  7  8  2  0
  8  9  1  0
  8 21  1  0
  9 10  1  0
 10 18  1  0
 10 11  2  0
 11 12  1  0
 11 22  1  0
 12 13  2  0
 12 23  1  0
 13 17  1  0
 13 14  1  0
 14 15  1  0
 15 16  2  0
 15 24  1  0
 16 17  1  0
 17 18  2  0
 18 25  1  0
M  END
>  <i_m_ct_stereo_status>  (81) 
1

>  <s_m_source_file>  (81) 
/var/tmp/pbs.5076255.sched01/tmp3z6s85wa/08w76y650.sdf

>  <i_m_source_file_index>  (81) 
35

>  <i_lp_mmshare_version>  (81) 
48012

>  <i_f3d_flags>  (81) 
0

>  <s_epik_input>  (81) 
bjFbY0hdW2NIXW5jKGMxMiluW2NIXW4yLWMoW2NIXVtjSF0zKVtjSF1jKGMzNCluW2NIXXM0

>  <s_epik_cmdline>  (81) 
J2VwaWtfcHl0aG9uJywgJy1waHQnLCAnMi4wJywgJy1waCcsICc3LjAnLCAnLXRuJywgJzgnLCAnLW1hJywgJzIwMCcsICctaW1hZScsICc8aW5maWxlLm1hZT4nLCAnLW9tYWUnLCAnPG91dGZpbGUubWFlPic=

>  <r_lp_tautomer_probability>  (81) 
1

>  <r_epik_Ionization_Penalty>  (81) 
2.78182e-07

>  <r_epik_Ionization_Penalty_Charging>  (81) 
0

>  <r_epik_Ionization_Penalty_Neutral>  (81) 
2.78182e-07

>  <r_epik_State_Penalty>  (81) 
-0

>  <r_epik_Charging_Adjusted_Penalty>  (81) 
0

>  <i_epik_Tot_Q>  (81) 
0

>  <i_epik_Tot_abs_Q>  (81) 
0

>  <s_lp_Force_Field>  (81) 
OPLS3e

>  <r_lp_Energy>  (81) 
26.0989

>  <b_lp_Chiralities_Consistent>  (81) 
1

>  <s_lp_Variant>  (81) 
26:0-1

>  <s_i_glide_gridfile>  (81) 
pfpi4k_grid

>  <i_i_glide_lignum>  (81) 
35

>  <i_i_glide_rotatable_bonds>  (81) 
1

>  <r_i_docking_score>  (81) 
-4.31621

>  <r_i_glide_ligand_efficiency>  (81) 
-0.239789

>  <r_i_glide_ligand_efficiency_sa>  (81) 
-0.628426

>  <r_i_glide_ligand_efficiency_ln>  (81) 
-1.10946

>  <r_i_glide_gscore>  (81) 
-4.31621

>  <r_i_glide_lipo>  (81) 
-0.662517

>  <r_i_glide_hbond>  (81) 
-0.201491

>  <r_i_glide_metal>  (81) 
-0

>  <r_i_glide_rewards>  (81) 
-1.73507

>  <r_i_glide_evdw>  (81) 
-27.2304

>  <r_i_glide_ecoul>  (81) 
-3.78254

>  <r_i_glide_erotb>  (81) 
0.273802

>  <r_i_glide_esite>  (81) 
-0.0620259

>  <r_i_glide_emodel>  (81) 
-39.9729

>  <r_i_glide_energy>  (81) 
-31.013

>  <r_i_glide_einternal>  (81) 
0.0191974

>  <r_i_glide_intrahb_reward>  (81) 
-0

>  <i_i_glide_confnum>  (81) 
3

>  <i_i_glide_posenum>  (81) 
11

>  <r_i_glide_eff_state_penalty>  (81) 
0

>  <ligand_id>  (81) 
26

>  <original_smiles>  (81) 
c1cnc2c(n1)ncn2-c1ccc2scnc2c1

>  <smiles>  (81) 
[H]c1nc2c([H])c(-n3c([H])nc4nc([H])c([H])nc43)c([H])c([H])c2s1

$$$$
26:0:1
     RDKit          3D

 25 28  0  0  1  0  0  0  0  0999 V2000
    3.8391   -0.7744    0.6154 C   0  0  0  0  0  0  0  0  0  0  0  0
    3.3240   -1.9872    1.1349 C   0  0  0  0  0  0  0  0  0  0  0  0
    4.0406   -3.1341    1.1742 N   0  0  0  0  0  0  0  0  0  0  0  0
    5.2936   -2.9828    0.6536 C   0  0  0  0  0  0  0  0  0  0  0  0
    5.8197   -1.7728    0.1267 C   0  0  0  0  0  0  0  0  0  0  0  0
    5.0902   -0.6571    0.1006 N   0  0  0  0  0  0  0  0  0  0  0  0
    7.1230   -1.9319   -0.3206 N   0  0  0  0  0  0  0  0  0  0  0  0
    7.3464   -3.2189   -0.0583 C   0  0  0  0  0  0  0  0  0  0  0  0
    6.3281   -3.8933    0.5189 N   0  0  0  0  0  0  0  0  0  0  0  0
    6.4170   -5.2562    0.8750 C   0  0  0  0  0  0  0  0  0  0  0  0
    7.6251   -5.8190    1.3389 C   0  0  0  0  0  0  0  0  0  0  0  0
    7.6566   -7.1668    1.7377 C   0  0  0  0  0  0  0  0  0  0  0  0
    6.4852   -7.9456    1.6799 C   0  0  0  0  0  0  0  0  0  0  0  0
    6.2477   -9.6416    2.1104 S   0  0  0  0  0  0  0  0  0  0  0  0
    4.5512   -9.4592    1.6508 C   0  0  0  0  0  0  0  0  0  0  0  0
    4.1627   -8.2635    1.2026 N   0  0  0  0  0  0  0  0  0  0  0  0
    5.2497   -7.3983    1.2224 C   0  0  0  0  0  0  0  0  0  0  0  0
    5.2497   -6.0494    0.8149 C   0  0  0  0  0  0  0  0  0  0  0  0
    3.2311    0.1186    0.6147 H   0  0  0  0  0  0  0  0  0  0  0  0
    2.3195   -2.0367    1.5277 H   0  0  0  0  0  0  0  0  0  0  0  0
    8.2902   -3.6797   -0.3046 H   0  0  0  0  0  0  0  0  0  0  0  0
    8.5257   -5.2247    1.4145 H   0  0  0  0  0  0  0  0  0  0  0  0
    8.5759   -7.6014    2.0961 H   0  0  0  0  0  0  0  0  0  0  0  0
    3.8410  -10.2768    1.6785 H   0  0  0  0  0  0  0  0  0  0  0  0
    4.3218   -5.6325    0.4529 H   0  0  0  0  0  0  0  0  0  0  0  0
  1  6  2  0
  1  2  1  0
  1 19  1  0
  2  3  2  0
  2 20  1  0
  3  4  1  0
  4  9  1  0
  4  5  2  0
  5  6  1  0
  5  7  1  0
  7  8  2  0
  8  9  1  0
  8 21  1  0
  9 10  1  0
 10 18  1  0
 10 11  2  0
 11 12  1  0
 11 22  1  0
 12 13  2  0
 12 23  1  0
 13 17  1  0
 13 14  1  0
 14 15  1  0
 15 16  2  0
 15 24  1  0
 16 17  1  0
 17 18  2  0
 18 25  1  0
M  END
>  <i_m_ct_stereo_status>  (82) 
1

>  <s_m_source_file>  (82) 
/var/tmp/pbs.5076255.sched01/tmp3z6s85wa/08w76y650.sdf

>  <i_m_source_file_index>  (82) 
35

>  <i_lp_mmshare_version>  (82) 
48012

>  <i_f3d_flags>  (82) 
0

>  <s_epik_input>  (82) 
bjFbY0hdW2NIXW5jKGMxMiluW2NIXW4yLWMoW2NIXVtjSF0zKVtjSF1jKGMzNCluW2NIXXM0

>  <s_epik_cmdline>  (82) 
J2VwaWtfcHl0aG9uJywgJy1waHQnLCAnMi4wJywgJy1waCcsICc3LjAnLCAnLXRuJywgJzgnLCAnLW1hJywgJzIwMCcsICctaW1hZScsICc8aW5maWxlLm1hZT4nLCAnLW9tYWUnLCAnPG91dGZpbGUubWFlPic=

>  <r_lp_tautomer_probability>  (82) 
1

>  <r_epik_Ionization_Penalty>  (82) 
2.78182e-07

>  <r_epik_Ionization_Penalty_Charging>  (82) 
0

>  <r_epik_Ionization_Penalty_Neutral>  (82) 
2.78182e-07

>  <r_epik_State_Penalty>  (82) 
-0

>  <r_epik_Charging_Adjusted_Penalty>  (82) 
0

>  <i_epik_Tot_Q>  (82) 
0

>  <i_epik_Tot_abs_Q>  (82) 
0

>  <s_lp_Force_Field>  (82) 
OPLS3e

>  <r_lp_Energy>  (82) 
26.0989

>  <b_lp_Chiralities_Consistent>  (82) 
1

>  <s_lp_Variant>  (82) 
26:0-1

>  <s_i_glide_gridfile>  (82) 
pfpi4k_grid

>  <i_i_glide_lignum>  (82) 
35

>  <i_i_glide_rotatable_bonds>  (82) 
1

>  <r_i_docking_score>  (82) 
-4.16709

>  <r_i_glide_ligand_efficiency>  (82) 
-0.231505

>  <r_i_glide_ligand_efficiency_sa>  (82) 
-0.606714

>  <r_i_glide_ligand_efficiency_ln>  (82) 
-1.07113

>  <r_i_glide_gscore>  (82) 
-4.16709

>  <r_i_glide_lipo>  (82) 
-0.448843

>  <r_i_glide_hbond>  (82) 
-0.156193

>  <r_i_glide_metal>  (82) 
-0

>  <r_i_glide_rewards>  (82) 
-2.10146

>  <r_i_glide_evdw>  (82) 
-23.3932

>  <r_i_glide_ecoul>  (82) 
-3.7649

>  <r_i_glide_erotb>  (82) 
0.273802

>  <r_i_glide_esite>  (82) 
0

>  <r_i_glide_emodel>  (82) 
-35.7712

>  <r_i_glide_energy>  (82) 
-27.1581

>  <r_i_glide_einternal>  (82) 
0.0795598

>  <r_i_glide_intrahb_reward>  (82) 
-0

>  <i_i_glide_confnum>  (82) 
4

>  <i_i_glide_posenum>  (82) 
3

>  <r_i_glide_eff_state_penalty>  (82) 
0

>  <ligand_id>  (82) 
26

>  <original_smiles>  (82) 
c1cnc2c(n1)ncn2-c1ccc2scnc2c1

>  <smiles>  (82) 
[H]c1nc2c([H])c(-n3c([H])nc4nc([H])c([H])nc43)c([H])c([H])c2s1

$$$$
26:0:2
     RDKit          3D

 25 28  0  0  1  0  0  0  0  0999 V2000
    3.8576   -2.7674   -0.7810 C   0  0  0  0  0  0  0  0  0  0  0  0
    2.6464   -3.4616   -0.5437 C   0  0  0  0  0  0  0  0  0  0  0  0
    2.5876   -4.6603    0.0790 N   0  0  0  0  0  0  0  0  0  0  0  0
    3.8208   -5.1256    0.4235 C   0  0  0  0  0  0  0  0  0  0  0  0
    5.0488   -4.4450    0.1808 C   0  0  0  0  0  0  0  0  0  0  0  0
    5.0761   -3.2502   -0.4212 N   0  0  0  0  0  0  0  0  0  0  0  0
    6.1315   -5.1744    0.6551 N   0  0  0  0  0  0  0  0  0  0  0  0
    5.5357   -6.2569    1.1582 C   0  0  0  0  0  0  0  0  0  0  0  0
    4.1918   -6.3017    1.0535 N   0  0  0  0  0  0  0  0  0  0  0  0
    3.4250   -7.3734    1.5701 C   0  0  0  0  0  0  0  0  0  0  0  0
    3.9062   -8.7019    1.5651 C   0  0  0  0  0  0  0  0  0  0  0  0
    3.1026   -9.7350    2.0808 C   0  0  0  0  0  0  0  0  0  0  0  0
    1.8201   -9.4474    2.5828 C   0  0  0  0  0  0  0  0  0  0  0  0
    0.6265  -10.5410    3.2798 S   0  0  0  0  0  0  0  0  0  0  0  0
   -0.4373   -9.1465    3.5033 C   0  0  0  0  0  0  0  0  0  0  0  0
    0.0190   -7.9559    3.1005 N   0  0  0  0  0  0  0  0  0  0  0  0
    1.3043   -8.1182    2.5847 C   0  0  0  0  0  0  0  0  0  0  0  0
    2.1346   -7.0998    2.0745 C   0  0  0  0  0  0  0  0  0  0  0  0
    3.8414   -1.8054   -1.2689 H   0  0  0  0  0  0  0  0  0  0  0  0
    1.6990   -3.0576   -0.8595 H   0  0  0  0  0  0  0  0  0  0  0  0
    6.1090   -7.0396    1.6299 H   0  0  0  0  0  0  0  0  0  0  0  0
    4.8770   -8.9467    1.1589 H   0  0  0  0  0  0  0  0  0  0  0  0
    3.4586  -10.7539    2.0804 H   0  0  0  0  0  0  0  0  0  0  0  0
   -1.4171   -9.2237    3.9541 H   0  0  0  0  0  0  0  0  0  0  0  0
    1.7582   -6.0885    2.0815 H   0  0  0  0  0  0  0  0  0  0  0  0
  1  6  2  0
  1  2  1  0
  1 19  1  0
  2  3  2  0
  2 20  1  0
  3  4  1  0
  4  9  1  0
  4  5  2  0
  5  6  1  0
  5  7  1  0
  7  8  2  0
  8  9  1  0
  8 21  1  0
  9 10  1  0
 10 18  1  0
 10 11  2  0
 11 12  1  0
 11 22  1  0
 12 13  2  0
 12 23  1  0
 13 17  1  0
 13 14  1  0
 14 15  1  0
 15 16  2  0
 15 24  1  0
 16 17  1  0
 17 18  2  0
 18 25  1  0
M  END
>  <i_m_ct_stereo_status>  (83) 
1

>  <s_m_source_file>  (83) 
/var/tmp/pbs.5076255.sched01/tmp3z6s85wa/08w76y650.sdf

>  <i_m_source_file_index>  (83) 
35

>  <i_lp_mmshare_version>  (83) 
48012

>  <i_f3d_flags>  (83) 
0

>  <s_epik_input>  (83) 
bjFbY0hdW2NIXW5jKGMxMiluW2NIXW4yLWMoW2NIXVtjSF0zKVtjSF1jKGMzNCluW2NIXXM0

>  <s_epik_cmdline>  (83) 
J2VwaWtfcHl0aG9uJywgJy1waHQnLCAnMi4wJywgJy1waCcsICc3LjAnLCAnLXRuJywgJzgnLCAnLW1hJywgJzIwMCcsICctaW1hZScsICc8aW5maWxlLm1hZT4nLCAnLW9tYWUnLCAnPG91dGZpbGUubWFlPic=

>  <r_lp_tautomer_probability>  (83) 
1

>  <r_epik_Ionization_Penalty>  (83) 
2.78182e-07

>  <r_epik_Ionization_Penalty_Charging>  (83) 
0

>  <r_epik_Ionization_Penalty_Neutral>  (83) 
2.78182e-07

>  <r_epik_State_Penalty>  (83) 
-0

>  <r_epik_Charging_Adjusted_Penalty>  (83) 
0

>  <i_epik_Tot_Q>  (83) 
0

>  <i_epik_Tot_abs_Q>  (83) 
0

>  <s_lp_Force_Field>  (83) 
OPLS3e

>  <r_lp_Energy>  (83) 
26.0989

>  <b_lp_Chiralities_Consistent>  (83) 
1

>  <s_lp_Variant>  (83) 
26:0-1

>  <s_i_glide_gridfile>  (83) 
pfpi4k_grid

>  <i_i_glide_lignum>  (83) 
35

>  <i_i_glide_rotatable_bonds>  (83) 
1

>  <r_i_docking_score>  (83) 
-3.56544

>  <r_i_glide_ligand_efficiency>  (83) 
-0.19808

>  <r_i_glide_ligand_efficiency_sa>  (83) 
-0.519117

>  <r_i_glide_ligand_efficiency_ln>  (83) 
-0.916479

>  <r_i_glide_gscore>  (83) 
-3.56544

>  <r_i_glide_lipo>  (83) 
-0.162839

>  <r_i_glide_hbond>  (83) 
0

>  <r_i_glide_metal>  (83) 
-0

>  <r_i_glide_rewards>  (83) 
-2.00894

>  <r_i_glide_evdw>  (83) 
-24.514

>  <r_i_glide_ecoul>  (83) 
-2.9451

>  <r_i_glide_erotb>  (83) 
0.273802

>  <r_i_glide_esite>  (83) 
0

>  <r_i_glide_emodel>  (83) 
-34.8563

>  <r_i_glide_energy>  (83) 
-27.4591

>  <r_i_glide_einternal>  (83) 
0.0144361

>  <r_i_glide_intrahb_reward>  (83) 
-0

>  <i_i_glide_confnum>  (83) 
3

>  <i_i_glide_posenum>  (83) 
8

>  <r_i_glide_eff_state_penalty>  (83) 
0

>  <ligand_id>  (83) 
26

>  <original_smiles>  (83) 
c1cnc2c(n1)ncn2-c1ccc2scnc2c1

>  <smiles>  (83) 
[H]c1nc2c([H])c(-n3c([H])nc4nc([H])c([H])nc43)c([H])c([H])c2s1

$$$$
27:0:0
     RDKit          3D

 60 64  0  0  1  0  0  0  0  0999 V2000
   -3.4148    3.1384    7.7193 C   0  0  0  0  0  0  0  0  0  0  0  0
   -2.1631    3.1174    7.0551 O   0  0  0  0  0  0  0  0  0  0  0  0
   -1.4879    2.0098    6.8521 C   0  0  0  0  0  0  0  0  0  0  0  0
   -2.0341    0.9088    6.9208 O   0  0  0  0  0  0  0  0  0  0  0  0
    0.0881    2.1261    6.5662 C   0  0  1  0  0  0  0  0  0  0  0  0
    0.5989    2.3019    7.8902 O   0  0  0  0  0  0  0  0  0  0  0  0
    0.6339    3.7213    8.2495 C   0  0  0  0  0  0  0  0  0  0  0  0
   -0.4397    4.1398    9.3083 C   0  0  0  0  0  0  0  0  0  0  0  0
    1.9646    4.0050    8.9793 C   0  0  0  0  0  0  0  0  0  0  0  0
    0.6271    4.4332    6.8644 C   0  0  2  0  0  0  0  0  0  0  0  0
   -0.5822    4.7308    6.0886 O   0  0  0  0  0  0  0  0  0  0  0  0
   -0.0055    4.0529    4.9270 C   0  0  2  0  0  0  0  0  0  0  0  0
    0.3342    5.3081    4.0991 C   0  0  0  0  0  0  0  0  0  0  0  0
   -0.7292    2.9511    4.0657 C   0  0  0  0  0  0  0  0  0  0  0  0
   -0.0234    1.5204    4.1232 C   0  0  1  0  0  0  0  0  0  0  0  0
    1.0782    1.3511    3.0328 C   0  0  1  0  0  0  0  0  0  0  0  0
    0.4602    0.9303    1.6914 C   0  0  0  0  0  0  0  0  0  0  0  0
    1.9896    2.5850    2.7989 C   0  0  0  0  0  0  0  0  0  0  0  0
    2.7090    3.3023    3.9696 C   0  0  0  0  0  0  0  0  0  0  0  0
    2.3697    2.9490    5.4569 C   0  0  2  0  0  0  0  0  0  0  0  0
    2.9440    1.5218    5.8387 C   0  0  0  0  0  0  0  0  0  0  0  0
    4.0761    0.9841    4.9143 C   0  0  0  0  0  0  0  0  0  0  0  0
    3.6405    1.5719    7.2220 C   0  0  0  0  0  0  0  0  0  0  0  0
    1.8245    0.4578    5.8399 C   0  0  0  0  0  0  0  0  0  0  0  0
    0.4025    0.9855    5.5856 C   0  0  1  0  0  0  0  0  0  0  0  0
    0.8718    3.3208    5.9071 C   0  0  2  0  0  0  0  0  0  0  0  0
   -3.5458    4.1628    8.0673 H   0  0  0  0  0  0  0  0  0  0  0  0
   -3.4131    2.5405    8.6345 H   0  0  0  0  0  0  0  0  0  0  0  0
   -4.2529    2.8648    7.0860 H   0  0  0  0  0  0  0  0  0  0  0  0
   -0.1634    5.0704    9.8166 H   0  0  0  0  0  0  0  0  0  0  0  0
   -0.4921    3.3714   10.0878 H   0  0  0  0  0  0  0  0  0  0  0  0
   -1.4434    4.3099    8.9362 H   0  0  0  0  0  0  0  0  0  0  0  0
    1.9786    5.0173    9.3966 H   0  0  0  0  0  0  0  0  0  0  0  0
    2.8452    3.9524    8.3347 H   0  0  0  0  0  0  0  0  0  0  0  0
    2.1214    3.3282    9.8186 H   0  0  0  0  0  0  0  0  0  0  0  0
    1.3580    5.2549    6.7774 H   0  0  0  0  0  0  0  0  0  0  0  0
    0.6971    5.0919    3.0996 H   0  0  0  0  0  0  0  0  0  0  0  0
    1.0748    5.9354    4.5978 H   0  0  0  0  0  0  0  0  0  0  0  0
   -0.5588    5.9200    3.9586 H   0  0  0  0  0  0  0  0  0  0  0  0
   -1.7791    2.8820    4.3635 H   0  0  0  0  0  0  0  0  0  0  0  0
   -0.7693    3.2688    3.0278 H   0  0  0  0  0  0  0  0  0  0  0  0
   -0.8042    0.8163    3.8366 H   0  0  0  0  0  0  0  0  0  0  0  0
    1.7002    0.5067    3.2871 H   0  0  0  0  0  0  0  0  0  0  0  0
   -0.2175    1.6823    1.2912 H   0  0  0  0  0  0  0  0  0  0  0  0
   -0.0875   -0.0068    1.7863 H   0  0  0  0  0  0  0  0  0  0  0  0
    1.2342    0.7586    0.9422 H   0  0  0  0  0  0  0  0  0  0  0  0
    2.7666    2.2736    2.0988 H   0  0  0  0  0  0  0  0  0  0  0  0
    1.4333    3.3170    2.2200 H   0  0  0  0  0  0  0  0  0  0  0  0
    3.7800    3.1915    3.8183 H   0  0  0  0  0  0  0  0  0  0  0  0
    2.6334    4.3717    3.8300 H   0  0  0  0  0  0  0  0  0  0  0  0
    3.0079    3.6545    5.9900 H   0  0  0  0  0  0  0  0  0  0  0  0
    4.4017   -0.0057    5.2342 H   0  0  0  0  0  0  0  0  0  0  0  0
    4.9520    1.6331    4.9176 H   0  0  0  0  0  0  0  0  0  0  0  0
    3.7575    0.8637    3.8809 H   0  0  0  0  0  0  0  0  0  0  0  0
    4.1897    0.6506    7.4228 H   0  0  0  0  0  0  0  0  0  0  0  0
    2.9472    1.6955    8.0501 H   0  0  0  0  0  0  0  0  0  0  0  0
    4.3659    2.3841    7.2659 H   0  0  0  0  0  0  0  0  0  0  0  0
    2.0481   -0.3878    5.1870 H   0  0  0  0  0  0  0  0  0  0  0  0
    1.8077   -0.0091    6.8276 H   0  0  0  0  0  0  0  0  0  0  0  0
   -0.1728    0.0767    5.7659 H   0  0  0  0  0  0  0  0  0  0  0  0
  1  2  1  0
  1 27  1  0
  1 28  1  0
  1 29  1  0
  2  3  1  0
  3  4  2  0
  5  3  1  1
  5 25  1  0
  5 26  1  0
  5  6  1  0
  6  7  1  0
  7  8  1  0
  7  9  1  0
  7 10  1  0
  8 30  1  0
  8 31  1  0
  8 32  1  0
  9 33  1  0
  9 34  1  0
  9 35  1  0
 10 26  1  0
 10 11  1  0
 10 36  1  1
 11 12  1  0
 26 12  1  6
 12 13  1  6
 12 14  1  0
 13 37  1  0
 13 38  1  0
 13 39  1  0
 14 15  1  0
 14 40  1  0
 14 41  1  0
 15 25  1  0
 15 16  1  0
 15 42  1  6
 16 17  1  0
 16 18  1  0
 16 43  1  1
 17 44  1  0
 17 45  1  0
 17 46  1  0
 18 19  1  0
 18 47  1  0
 18 48  1  0
 19 20  1  0
 19 49  1  0
 19 50  1  0
 20 21  1  0
 20 26  1  0
 20 51  1  1
 21 22  1  0
 21 23  1  0
 21 24  1  0
 22 52  1  0
 22 53  1  0
 22 54  1  0
 23 55  1  0
 23 56  1  0
 23 57  1  0
 24 25  1  0
 24 58  1  0
 24 59  1  0
 25 60  1  1
M  END
>  <i_m_ct_stereo_status>  (84) 
1

>  <s_m_source_file>  (84) 
/var/tmp/pbs.5076255.sched01/tmp3z6s85wa/08w76y650.sdf

>  <i_m_source_file_index>  (84) 
36

>  <i_lp_mmshare_version>  (84) 
48012

>  <i_f3d_flags>  (84) 
0

>  <s_epik_input>  (84) 
W0NIM11DKFtDSDNdKShbQ0gyXTEpW0NASF0yW0NIMl1bQ0gyXVtDQEhdKFtDSDNdKVtDQEBIXShbQ0BASF0xW0NAQF0zKFtDQF0yNDUpQyg9TylPW0NIM10pW0NIMl1bQ0BAXTUoW0NIM10pT1tDQEhdNEMoTzMpKFtDSDNdKVtDSDNd

>  <s_epik_cmdline>  (84) 
J2VwaWtfcHl0aG9uJywgJy1waHQnLCAnMi4wJywgJy1waCcsICc3LjAnLCAnLXRuJywgJzgnLCAnLW1hJywgJzIwMCcsICctaW1hZScsICc8aW5maWxlLm1hZT4nLCAnLW9tYWUnLCAnPG91dGZpbGUubWFlPic=

>  <r_lp_tautomer_probability>  (84) 
1

>  <r_epik_Ionization_Penalty>  (84) 
1.31716e-12

>  <r_epik_Ionization_Penalty_Charging>  (84) 
0

>  <r_epik_Ionization_Penalty_Neutral>  (84) 
1.31716e-12

>  <r_epik_State_Penalty>  (84) 
-0

>  <r_epik_Charging_Adjusted_Penalty>  (84) 
0

>  <i_epik_Tot_Q>  (84) 
0

>  <i_epik_Tot_abs_Q>  (84) 
0

>  <s_epik_Chemistry_Notes>  (84) 
This compound has an ester and may undergo hydrolysis at high or low pH.

>  <s_lp_Force_Field>  (84) 
OPLS3e

>  <r_lp_Energy>  (84) 
127.459

>  <b_lp_Chiralities_Consistent>  (84) 
1

>  <s_lp_Variant>  (84) 
27:0-1

>  <s_i_glide_gridfile>  (84) 
pfpi4k_grid

>  <i_i_glide_lignum>  (84) 
36

>  <i_i_glide_rotatable_bonds>  (84) 
2

>  <r_i_docking_score>  (84) 
-2.50183

>  <r_i_glide_ligand_efficiency>  (84) 
-0.0962244

>  <r_i_glide_ligand_efficiency_sa>  (84) 
-0.285064

>  <r_i_glide_ligand_efficiency_ln>  (84) 
-0.587548

>  <r_i_glide_gscore>  (84) 
-2.50183

>  <r_i_glide_lipo>  (84) 
-0.0805287

>  <r_i_glide_hbond>  (84) 
-0.16

>  <r_i_glide_metal>  (84) 
-0

>  <r_i_glide_rewards>  (84) 
-0.93748

>  <r_i_glide_evdw>  (84) 
-16.1251

>  <r_i_glide_ecoul>  (84) 
-4.32598

>  <r_i_glide_erotb>  (84) 
0.14613

>  <r_i_glide_esite>  (84) 
-0.0148073

>  <r_i_glide_emodel>  (84) 
-18.456

>  <r_i_glide_energy>  (84) 
-20.451

>  <r_i_glide_einternal>  (84) 
8.83625

>  <r_i_glide_intrahb_reward>  (84) 
-0

>  <i_i_glide_confnum>  (84) 
5

>  <i_i_glide_posenum>  (84) 
10

>  <r_i_glide_eff_state_penalty>  (84) 
0

>  <ligand_id>  (84) 
27

>  <original_smiles>  (84) 
COC(=O)C12OC(C)(C)C3OC4(C)CC5C(C)CCC(C(C)(C)CC51)C342

>  <smiles>  (84) 
[H]C([H])([H])OC(=O)C12OC(C([H])([H])[H])(C([H])([H])[H])C3([H])OC4(C([H])([H])[H])C([H])([H])C5([H])C([H])(C([H])([H])[H])C([H])([H])C([H])([H])C([H])(C(C([H])([H])[H])(C([H])([H])[H])C([H])([H])C15[H])C324

$$$$
27:0:1
     RDKit          3D

 60 64  0  0  1  0  0  0  0  0999 V2000
    1.6922   -7.7893    1.4229 C   0  0  0  0  0  0  0  0  0  0  0  0
    2.8396   -6.9671    1.2430 O   0  0  0  0  0  0  0  0  0  0  0  0
    2.8085   -5.6690    1.6003 C   0  0  0  0  0  0  0  0  0  0  0  0
    1.7995   -5.1456    2.0748 O   0  0  0  0  0  0  0  0  0  0  0  0
    4.1999   -4.9533    1.3512 C   0  0  1  0  0  0  0  0  0  0  0  0
    5.0955   -5.8395    2.0266 O   0  0  0  0  0  0  0  0  0  0  0  0
    5.0874   -5.5207    3.4520 C   0  0  0  0  0  0  0  0  0  0  0  0
    4.1585   -6.4153    4.3066 C   0  0  0  0  0  0  0  0  0  0  0  0
    6.5239   -5.7745    3.9279 C   0  0  0  0  0  0  0  0  0  0  0  0
    4.7390   -4.0150    3.4557 C   0  0  2  0  0  0  0  0  0  0  0  0
    3.3459   -3.5417    3.4684 O   0  0  0  0  0  0  0  0  0  0  0  0
    3.6636   -2.6667    2.3300 C   0  0  2  0  0  0  0  0  0  0  0  0
    3.8078   -1.3125    3.0575 C   0  0  0  0  0  0  0  0  0  0  0  0
    2.7898   -2.5330    1.0488 C   0  0  0  0  0  0  0  0  0  0  0  0
    3.4683   -3.1327   -0.2728 C   0  0  1  0  0  0  0  0  0  0  0  0
    4.2953   -2.0474   -1.0346 C   0  0  1  0  0  0  0  0  0  0  0  0
    3.3993   -1.2222   -1.9709 C   0  0  0  0  0  0  0  0  0  0  0  0
    5.1164   -1.0680   -0.1496 C   0  0  0  0  0  0  0  0  0  0  0  0
    6.0946   -1.6056    0.9362 C   0  0  0  0  0  0  0  0  0  0  0  0
    6.1100   -3.1190    1.3176 C   0  0  2  0  0  0  0  0  0  0  0  0
    6.7400   -3.9991    0.1626 C   0  0  0  0  0  0  0  0  0  0  0  0
    7.6376   -3.2125   -0.8427 C   0  0  0  0  0  0  0  0  0  0  0  0
    7.7470   -5.0232    0.7557 C   0  0  0  0  0  0  0  0  0  0  0  0
    5.6315   -4.7211   -0.6494 C   0  0  0  0  0  0  0  0  0  0  0  0
    4.2010   -4.5514   -0.1218 C   0  0  1  0  0  0  0  0  0  0  0  0
    4.7642   -3.6535    2.0187 C   0  0  2  0  0  0  0  0  0  0  0  0
    1.9083   -8.8053    1.0895 H   0  0  0  0  0  0  0  0  0  0  0  0
    0.8428   -7.4217    0.8436 H   0  0  0  0  0  0  0  0  0  0  0  0
    1.3985   -7.8370    2.4734 H   0  0  0  0  0  0  0  0  0  0  0  0
    4.3762   -6.3146    5.3706 H   0  0  0  0  0  0  0  0  0  0  0  0
    4.3022   -7.4645    4.0461 H   0  0  0  0  0  0  0  0  0  0  0  0
    3.1020   -6.1882    4.1906 H   0  0  0  0  0  0  0  0  0  0  0  0
    6.6262   -5.6437    5.0071 H   0  0  0  0  0  0  0  0  0  0  0  0
    7.2058   -5.0828    3.4458 H   0  0  0  0  0  0  0  0  0  0  0  0
    6.8498   -6.7857    3.6778 H   0  0  0  0  0  0  0  0  0  0  0  0
    5.3761   -3.3910    4.0845 H   0  0  0  0  0  0  0  0  0  0  0  0
    3.9316   -0.4746    2.3781 H   0  0  0  0  0  0  0  0  0  0  0  0
    4.6519   -1.2884    3.7467 H   0  0  0  0  0  0  0  0  0  0  0  0
    2.9139   -1.0835    3.6365 H   0  0  0  0  0  0  0  0  0  0  0  0
    1.8093   -2.9707    1.2040 H   0  0  0  0  0  0  0  0  0  0  0  0
    2.5479   -1.4843    0.8705 H   0  0  0  0  0  0  0  0  0  0  0  0
    2.6299   -3.3551   -0.9353 H   0  0  0  0  0  0  0  0  0  0  0  0
    4.9655   -2.5312   -1.7345 H   0  0  0  0  0  0  0  0  0  0  0  0
    2.6466   -0.6751   -1.4115 H   0  0  0  0  0  0  0  0  0  0  0  0
    2.8798   -1.8565   -2.6894 H   0  0  0  0  0  0  0  0  0  0  0  0
    3.9741   -0.4841   -2.5304 H   0  0  0  0  0  0  0  0  0  0  0  0
    5.7119   -0.4492   -0.8221 H   0  0  0  0  0  0  0  0  0  0  0  0
    4.4373   -0.3475    0.3016 H   0  0  0  0  0  0  0  0  0  0  0  0
    7.0993   -1.3016    0.6542 H   0  0  0  0  0  0  0  0  0  0  0  0
    5.9859   -1.0122    1.8386 H   0  0  0  0  0  0  0  0  0  0  0  0
    6.8737   -3.1287    2.0841 H   0  0  0  0  0  0  0  0  0  0  0  0
    8.0525   -3.8529   -1.6156 H   0  0  0  0  0  0  0  0  0  0  0  0
    8.4918   -2.7364   -0.3474 H   0  0  0  0  0  0  0  0  0  0  0  0
    7.0889   -2.4412   -1.3810 H   0  0  0  0  0  0  0  0  0  0  0  0
    8.3334   -5.5158   -0.0153 H   0  0  0  0  0  0  0  0  0  0  0  0
    7.2879   -5.8272    1.3164 H   0  0  0  0  0  0  0  0  0  0  0  0
    8.4644   -4.5371    1.4210 H   0  0  0  0  0  0  0  0  0  0  0  0
    5.6823   -4.4992   -1.7150 H   0  0  0  0  0  0  0  0  0  0  0  0
    5.8078   -5.7939   -0.5849 H   0  0  0  0  0  0  0  0  0  0  0  0
    3.6157   -5.2711   -0.6953 H   0  0  0  0  0  0  0  0  0  0  0  0
  1  2  1  0
  1 27  1  0
  1 28  1  0
  1 29  1  0
  2  3  1  0
  3  4  2  0
  5  3  1  1
  5 25  1  0
  5 26  1  0
  5  6  1  0
  6  7  1  0
  7  8  1  0
  7  9  1  0
  7 10  1  0
  8 30  1  0
  8 31  1  0
  8 32  1  0
  9 33  1  0
  9 34  1  0
  9 35  1  0
 10 26  1  0
 10 11  1  0
 10 36  1  1
 11 12  1  0
 26 12  1  1
 12 13  1  1
 12 14  1  0
 13 37  1  0
 13 38  1  0
 13 39  1  0
 14 15  1  0
 14 40  1  0
 14 41  1  0
 15 25  1  0
 15 16  1  0
 15 42  1  6
 16 17  1  0
 16 18  1  0
 16 43  1  6
 17 44  1  0
 17 45  1  0
 17 46  1  0
 18 19  1  0
 18 47  1  0
 18 48  1  0
 19 20  1  0
 19 49  1  0
 19 50  1  0
 20 21  1  0
 20 26  1  0
 20 51  1  1
 21 22  1  0
 21 23  1  0
 21 24  1  0
 22 52  1  0
 22 53  1  0
 22 54  1  0
 23 55  1  0
 23 56  1  0
 23 57  1  0
 24 25  1  0
 24 58  1  0
 24 59  1  0
 25 60  1  6
M  END
>  <i_m_ct_stereo_status>  (85) 
1

>  <s_m_source_file>  (85) 
/var/tmp/pbs.5076255.sched01/tmp3z6s85wa/08w76y650.sdf

>  <i_m_source_file_index>  (85) 
36

>  <i_lp_mmshare_version>  (85) 
48012

>  <i_f3d_flags>  (85) 
0

>  <s_epik_input>  (85) 
W0NIM11DKFtDSDNdKShbQ0gyXTEpW0NASF0yW0NIMl1bQ0gyXVtDQEhdKFtDSDNdKVtDQEBIXShbQ0BASF0xW0NAQF0zKFtDQF0yNDUpQyg9TylPW0NIM10pW0NIMl1bQ0BAXTUoW0NIM10pT1tDQEhdNEMoTzMpKFtDSDNdKVtDSDNd

>  <s_epik_cmdline>  (85) 
J2VwaWtfcHl0aG9uJywgJy1waHQnLCAnMi4wJywgJy1waCcsICc3LjAnLCAnLXRuJywgJzgnLCAnLW1hJywgJzIwMCcsICctaW1hZScsICc8aW5maWxlLm1hZT4nLCAnLW9tYWUnLCAnPG91dGZpbGUubWFlPic=

>  <r_lp_tautomer_probability>  (85) 
1

>  <r_epik_Ionization_Penalty>  (85) 
1.31716e-12

>  <r_epik_Ionization_Penalty_Charging>  (85) 
0

>  <r_epik_Ionization_Penalty_Neutral>  (85) 
1.31716e-12

>  <r_epik_State_Penalty>  (85) 
-0

>  <r_epik_Charging_Adjusted_Penalty>  (85) 
0

>  <i_epik_Tot_Q>  (85) 
0

>  <i_epik_Tot_abs_Q>  (85) 
0

>  <s_epik_Chemistry_Notes>  (85) 
This compound has an ester and may undergo hydrolysis at high or low pH.

>  <s_lp_Force_Field>  (85) 
OPLS3e

>  <r_lp_Energy>  (85) 
127.459

>  <b_lp_Chiralities_Consistent>  (85) 
1

>  <s_lp_Variant>  (85) 
27:0-1

>  <s_i_glide_gridfile>  (85) 
pfpi4k_grid

>  <i_i_glide_lignum>  (85) 
36

>  <i_i_glide_rotatable_bonds>  (85) 
2

>  <r_i_docking_score>  (85) 
-2.46737

>  <r_i_glide_ligand_efficiency>  (85) 
-0.0948988

>  <r_i_glide_ligand_efficiency_sa>  (85) 
-0.281137

>  <r_i_glide_ligand_efficiency_ln>  (85) 
-0.579454

>  <r_i_glide_gscore>  (85) 
-2.46737

>  <r_i_glide_lipo>  (85) 
-0.65365

>  <r_i_glide_hbond>  (85) 
-0.0123663

>  <r_i_glide_metal>  (85) 
-0

>  <r_i_glide_rewards>  (85) 
-0.93748

>  <r_i_glide_evdw>  (85) 
-16.9817

>  <r_i_glide_ecoul>  (85) 
-1.02884

>  <r_i_glide_erotb>  (85) 
0.14613

>  <r_i_glide_esite>  (85) 
-0.00659152

>  <r_i_glide_emodel>  (85) 
-21.1897

>  <r_i_glide_energy>  (85) 
-18.0106

>  <r_i_glide_einternal>  (85) 
0.349575

>  <r_i_glide_intrahb_reward>  (85) 
-0

>  <i_i_glide_confnum>  (85) 
5

>  <i_i_glide_posenum>  (85) 
37

>  <r_i_glide_eff_state_penalty>  (85) 
0

>  <ligand_id>  (85) 
27

>  <original_smiles>  (85) 
COC(=O)C12OC(C)(C)C3OC4(C)CC5C(C)CCC(C(C)(C)CC51)C342

>  <smiles>  (85) 
[H]C([H])([H])OC(=O)C12OC(C([H])([H])[H])(C([H])([H])[H])C3([H])OC4(C([H])([H])[H])C([H])([H])C5([H])C([H])(C([H])([H])[H])C([H])([H])C([H])([H])C([H])(C(C([H])([H])[H])(C([H])([H])[H])C([H])([H])C15[H])C324

$$$$
27:0:2
     RDKit          3D

 60 64  0  0  1  0  0  0  0  0999 V2000
   -2.4867    2.4278    4.0610 C   0  0  0  0  0  0  0  0  0  0  0  0
   -1.1023    2.3790    4.2374 O   0  0  0  0  0  0  0  0  0  0  0  0
   -0.4761    2.1793    5.3645 C   0  0  0  0  0  0  0  0  0  0  0  0
   -1.1139    1.9294    6.4289 O   0  0  0  0  0  0  0  0  0  0  0  0
    1.1109    2.3174    5.3805 C   0  0  1  0  0  0  0  0  0  0  0  0
    1.2861    3.7402    5.3815 O   0  0  0  0  0  0  0  0  0  0  0  0
    1.2846    4.2675    4.0111 C   0  0  0  0  0  0  0  0  0  0  0  0
   -0.0472    5.0179    3.6415 C   0  0  0  0  0  0  0  0  0  0  0  0
    2.3863    5.3435    3.9132 C   0  0  0  0  0  0  0  0  0  0  0  0
    1.6826    3.0235    3.1579 C   0  0  2  0  0  0  0  0  0  0  0  0
    0.7403    1.9970    2.6792 O   0  0  0  0  0  0  0  0  0  0  0  0
    1.5613    0.9550    3.2834 C   0  0  2  0  0  0  0  0  0  0  0  0
    2.1689    0.4105    1.9734 C   0  0  0  0  0  0  0  0  0  0  0  0
    1.0249   -0.1938    4.2127 C   0  0  0  0  0  0  0  0  0  0  0  0
    1.6119   -0.1322    5.7001 C   0  0  1  0  0  0  0  0  0  0  0  0
    2.9490   -0.9245    5.8408 C   0  0  1  0  0  0  0  0  0  0  0  0
    2.6801   -2.4211    6.0695 C   0  0  0  0  0  0  0  0  0  0  0  0
    3.9576   -0.7667    4.6704 C   0  0  0  0  0  0  0  0  0  0  0  0
    4.3837    0.6301    4.1464 C   0  0  0  0  0  0  0  0  0  0  0  0
    3.6481    1.9265    4.6296 C   0  0  2  0  0  0  0  0  0  0  0  0
    4.0202    2.2611    6.1310 C   0  0  0  0  0  0  0  0  0  0  0  0
    5.3213    1.5892    6.6631 C   0  0  0  0  0  0  0  0  0  0  0  0
    4.3310    3.7729    6.2853 C   0  0  0  0  0  0  0  0  0  0  0  0
    2.8803    1.8529    7.0910 C   0  0  0  0  0  0  0  0  0  0  0  0
    1.6065    1.3110    6.4162 C   0  0  1  0  0  0  0  0  0  0  0  0
    2.1044    2.0281    4.1823 C   0  0  2  0  0  0  0  0  0  0  0  0
   -2.6597    2.8182    3.0727 H   0  0  0  0  0  0  0  0  0  0  0  0
   -2.9757    3.1067    4.7772 H   0  0  0  0  0  0  0  0  0  0  0  0
   -2.9231    1.4253    4.1075 H   0  0  0  0  0  0  0  0  0  0  0  0
    0.1191    5.6809    2.7788 H   0  0  0  0  0  0  0  0  0  0  0  0
   -0.3213    5.6734    4.4887 H   0  0  0  0  0  0  0  0  0  0  0  0
   -0.8737    4.4176    3.3851 H   0  0  0  0  0  0  0  0  0  0  0  0
    2.3400    5.8733    2.9564 H   0  0  0  0  0  0  0  0  0  0  0  0
    3.3985    4.9421    3.9723 H   0  0  0  0  0  0  0  0  0  0  0  0
    2.2824    6.1011    4.6895 H   0  0  0  0  0  0  0  0  0  0  0  0
    2.4246    3.2363    2.3752 H   0  0  0  0  0  0  0  0  0  0  0  0
    2.7695   -0.4799    2.1068 H   0  0  0  0  0  0  0  0  0  0  0  0
    2.7833    1.1587    1.4682 H   0  0  0  0  0  0  0  0  0  0  0  0
    1.3731    0.1322    1.2812 H   0  0  0  0  0  0  0  0  0  0  0  0
   -0.0678   -0.1875    4.2238 H   0  0  0  0  0  0  0  0  0  0  0  0
    1.2721   -1.1589    3.7853 H   0  0  0  0  0  0  0  0  0  0  0  0
    0.8936   -0.6914    6.2970 H   0  0  0  0  0  0  0  0  0  0  0  0
    3.4377   -0.6279    6.7574 H   0  0  0  0  0  0  0  0  0  0  0  0
    2.1686   -2.8790    5.2243 H   0  0  0  0  0  0  0  0  0  0  0  0
    2.0753   -2.5871    6.9618 H   0  0  0  0  0  0  0  0  0  0  0  0
    3.6136   -2.9641    6.2201 H   0  0  0  0  0  0  0  0  0  0  0  0
    4.8745   -1.2779    4.9688 H   0  0  0  0  0  0  0  0  0  0  0  0
    3.6132   -1.3716    3.8347 H   0  0  0  0  0  0  0  0  0  0  0  0
    5.4497    0.7459    4.3262 H   0  0  0  0  0  0  0  0  0  0  0  0
    4.4060    0.6068    3.0653 H   0  0  0  0  0  0  0  0  0  0  0  0
    4.1532    2.6962    4.0511 H   0  0  0  0  0  0  0  0  0  0  0  0
    5.4984    1.8541    7.7037 H   0  0  0  0  0  0  0  0  0  0  0  0
    6.2019    1.8929    6.0980 H   0  0  0  0  0  0  0  0  0  0  0  0
    5.2815    0.5035    6.6478 H   0  0  0  0  0  0  0  0  0  0  0  0
    4.7556    3.9933    7.2645 H   0  0  0  0  0  0  0  0  0  0  0  0
    3.4532    4.4050    6.1925 H   0  0  0  0  0  0  0  0  0  0  0  0
    5.0594    4.1056    5.5452 H   0  0  0  0  0  0  0  0  0  0  0  0
    3.2098    1.1678    7.8712 H   0  0  0  0  0  0  0  0  0  0  0  0
    2.5764    2.7348    7.6561 H   0  0  0  0  0  0  0  0  0  0  0  0
    0.9488    1.2310    7.2822 H   0  0  0  0  0  0  0  0  0  0  0  0
  1  2  1  0
  1 27  1  0
  1 28  1  0
  1 29  1  0
  2  3  1  0
  3  4  2  0
  5  3  1  6
  5 25  1  0
  5 26  1  0
  5  6  1  0
  6  7  1  0
  7  8  1  0
  7  9  1  0
  7 10  1  0
  8 30  1  0
  8 31  1  0
  8 32  1  0
  9 33  1  0
  9 34  1  0
  9 35  1  0
 10 26  1  0
 10 11  1  0
 10 36  1  6
 11 12  1  0
 26 12  1  6
 12 13  1  6
 12 14  1  0
 13 37  1  0
 13 38  1  0
 13 39  1  0
 14 15  1  0
 14 40  1  0
 14 41  1  0
 15 25  1  0
 15 16  1  0
 15 42  1  1
 16 17  1  0
 16 18  1  0
 16 43  1  1
 17 44  1  0
 17 45  1  0
 17 46  1  0
 18 19  1  0
 18 47  1  0
 18 48  1  0
 19 20  1  0
 19 49  1  0
 19 50  1  0
 20 21  1  0
 20 26  1  0
 20 51  1  6
 21 22  1  0
 21 23  1  0
 21 24  1  0
 22 52  1  0
 22 53  1  0
 22 54  1  0
 23 55  1  0
 23 56  1  0
 23 57  1  0
 24 25  1  0
 24 58  1  0
 24 59  1  0
 25 60  1  1
M  END
>  <i_m_ct_stereo_status>  (86) 
1

>  <s_m_source_file>  (86) 
/var/tmp/pbs.5076255.sched01/tmp3z6s85wa/08w76y650.sdf

>  <i_m_source_file_index>  (86) 
36

>  <i_lp_mmshare_version>  (86) 
48012

>  <i_f3d_flags>  (86) 
0

>  <s_epik_input>  (86) 
W0NIM11DKFtDSDNdKShbQ0gyXTEpW0NASF0yW0NIMl1bQ0gyXVtDQEhdKFtDSDNdKVtDQEBIXShbQ0BASF0xW0NAQF0zKFtDQF0yNDUpQyg9TylPW0NIM10pW0NIMl1bQ0BAXTUoW0NIM10pT1tDQEhdNEMoTzMpKFtDSDNdKVtDSDNd

>  <s_epik_cmdline>  (86) 
J2VwaWtfcHl0aG9uJywgJy1waHQnLCAnMi4wJywgJy1waCcsICc3LjAnLCAnLXRuJywgJzgnLCAnLW1hJywgJzIwMCcsICctaW1hZScsICc8aW5maWxlLm1hZT4nLCAnLW9tYWUnLCAnPG91dGZpbGUubWFlPic=

>  <r_lp_tautomer_probability>  (86) 
1

>  <r_epik_Ionization_Penalty>  (86) 
1.31716e-12

>  <r_epik_Ionization_Penalty_Charging>  (86) 
0

>  <r_epik_Ionization_Penalty_Neutral>  (86) 
1.31716e-12

>  <r_epik_State_Penalty>  (86) 
-0

>  <r_epik_Charging_Adjusted_Penalty>  (86) 
0

>  <i_epik_Tot_Q>  (86) 
0

>  <i_epik_Tot_abs_Q>  (86) 
0

>  <s_epik_Chemistry_Notes>  (86) 
This compound has an ester and may undergo hydrolysis at high or low pH.

>  <s_lp_Force_Field>  (86) 
OPLS3e

>  <r_lp_Energy>  (86) 
127.459

>  <b_lp_Chiralities_Consistent>  (86) 
1

>  <s_lp_Variant>  (86) 
27:0-1

>  <s_i_glide_gridfile>  (86) 
pfpi4k_grid

>  <i_i_glide_lignum>  (86) 
36

>  <i_i_glide_rotatable_bonds>  (86) 
2

>  <r_i_docking_score>  (86) 
-1.77699

>  <r_i_glide_ligand_efficiency>  (86) 
-0.0683457

>  <r_i_glide_ligand_efficiency_sa>  (86) 
-0.202474

>  <r_i_glide_ligand_efficiency_ln>  (86) 
-0.41732

>  <r_i_glide_gscore>  (86) 
-1.77699

>  <r_i_glide_lipo>  (86) 
-0.0338736

>  <r_i_glide_hbond>  (86) 
0

>  <r_i_glide_metal>  (86) 
-0

>  <r_i_glide_rewards>  (86) 
-0.93748

>  <r_i_glide_evdw>  (86) 
-15.9237

>  <r_i_glide_ecoul>  (86) 
-0.999199

>  <r_i_glide_erotb>  (86) 
0.14613

>  <r_i_glide_esite>  (86) 
-0.00569813

>  <r_i_glide_emodel>  (86) 
-13.6888

>  <r_i_glide_energy>  (86) 
-16.9229

>  <r_i_glide_einternal>  (86) 
8.54356

>  <r_i_glide_intrahb_reward>  (86) 
-0

>  <i_i_glide_confnum>  (86) 
6

>  <i_i_glide_posenum>  (86) 
3

>  <r_i_glide_eff_state_penalty>  (86) 
0

>  <ligand_id>  (86) 
27

>  <original_smiles>  (86) 
COC(=O)C12OC(C)(C)C3OC4(C)CC5C(C)CCC(C(C)(C)CC51)C342

>  <smiles>  (86) 
[H]C([H])([H])OC(=O)C12OC(C([H])([H])[H])(C([H])([H])[H])C3([H])OC4(C([H])([H])[H])C([H])([H])C5([H])C([H])(C([H])([H])[H])C([H])([H])C([H])([H])C([H])(C(C([H])([H])[H])(C([H])([H])[H])C([H])([H])C15[H])C324

$$$$
28:0:0
     RDKit          3D

 33 35  0  0  1  0  0  0  0  0999 V2000
    3.9042    0.5208   -3.9399 C   0  0  0  0  0  0  0  0  0  0  0  0
    4.2023   -0.8580   -3.4544 C   0  0  0  0  0  0  0  0  0  0  0  0
    4.1575   -1.8532   -4.3282 N   0  0  0  0  0  0  0  0  0  0  0  0
    4.4726   -2.9523   -3.6299 N   0  0  0  0  0  0  0  0  0  0  0  0
    4.5078   -4.2179   -4.2862 C   0  0  0  0  0  0  0  0  0  0  0  0
    4.6894   -2.6393   -2.3008 C   0  0  0  0  0  0  0  0  0  0  0  0
    4.5388   -1.3112   -2.1424 C   0  0  0  0  0  0  0  0  0  0  0  0
    4.6911   -0.6539   -0.9104 N   0  0  0  0  0  0  0  0  0  0  0  0
    4.5693   -1.4652    0.2974 C   0  0  1  0  0  0  0  0  0  0  0  0
    5.1260   -0.6352    1.4542 C   0  0  0  0  0  0  0  0  0  0  0  0
    3.1015   -1.8262    0.5410 C   0  0  0  0  0  0  0  0  0  0  0  0
    3.0847   -3.3132    1.5917 S   0  0  0  0  0  0  0  0  0  0  0  0
    2.8498   -2.9196    2.9817 O   0  0  0  0  0  0  0  0  0  0  0  0
    2.2949   -4.3587    0.9381 O   0  0  0  0  0  0  0  0  0  0  0  0
    4.8427   -3.6804    1.3759 C   0  0  0  0  0  0  0  0  0  0  0  0
    5.3060   -2.8126    0.1824 C   0  0  1  0  0  0  0  0  0  0  0  0
    4.9904   -3.5097   -1.1606 C   0  0  0  0  0  0  0  0  0  0  0  0
    4.9958   -4.7178   -1.2143 O   0  0  0  0  0  0  0  0  0  0  0  0
    4.0372    1.2262   -3.1354 H   0  0  0  0  0  0  0  0  0  0  0  0
    2.8888    0.5857   -4.3217 H   0  0  0  0  0  0  0  0  0  0  0  0
    4.5855    0.8141   -4.7322 H   0  0  0  0  0  0  0  0  0  0  0  0
    5.4111   -4.7043   -3.9894 H   0  0  0  0  0  0  0  0  0  0  0  0
    4.4940   -4.2146   -5.3588 H   0  0  0  0  0  0  0  0  0  0  0  0
    3.6365   -4.7235   -3.9705 H   0  0  0  0  0  0  0  0  0  0  0  0
    4.5566    0.3498   -0.8447 H   0  0  0  0  0  0  0  0  0  0  0  0
    4.9610   -1.1140    2.4232 H   0  0  0  0  0  0  0  0  0  0  0  0
    4.6332    0.3360    1.4838 H   0  0  0  0  0  0  0  0  0  0  0  0
    6.1972   -0.4740    1.3271 H   0  0  0  0  0  0  0  0  0  0  0  0
    2.5224   -1.0283    1.0008 H   0  0  0  0  0  0  0  0  0  0  0  0
    2.6172   -2.1056   -0.3948 H   0  0  0  0  0  0  0  0  0  0  0  0
    5.3591   -3.3876    2.2878 H   0  0  0  0  0  0  0  0  0  0  0  0
    4.9686   -4.7528    1.2340 H   0  0  0  0  0  0  0  0  0  0  0  0
    6.3862   -2.6923    0.2196 H   0  0  0  0  0  0  0  0  0  0  0  0
  1  2  1  0
  1 19  1  0
  1 20  1  0
  1 21  1  0
  2  7  1  0
  2  3  2  0
  3  4  1  0
  4  5  1  0
  4  6  1  0
  5 22  1  0
  5 23  1  0
  5 24  1  0
  6 17  1  0
  6  7  2  0
  7  8  1  0
  8  9  1  0
  8 25  1  0
  9 16  1  0
  9 10  1  1
  9 11  1  0
 10 26  1  0
 10 27  1  0
 10 28  1  0
 11 12  1  0
 11 29  1  0
 11 30  1  0
 12 13  2  0
 12 14  2  0
 12 15  1  0
 15 16  1  0
 15 31  1  0
 15 32  1  0
 16 17  1  0
 16 33  1  1
 17 18  2  0
M  END
>  <i_m_ct_stereo_status>  (87) 
1

>  <s_m_source_file>  (87) 
/var/tmp/pbs.5076255.sched01/tmp3foza_40/36o9al7bb4.sdf

>  <i_m_source_file_index>  (87) 
1

>  <i_lp_mmshare_version>  (87) 
48012

>  <i_f3d_flags>  (87) 
0

>  <s_epik_input>  (87) 
W0NIM11uMW5jKFtDSDNdKWMoW05IXTIpYzFDKD1PKVtDQEBIXShbQ0BAXTIzW0NIM10pW0NIMl1TKD1PKSg9TylbQ0gyXTM=

>  <s_epik_cmdline>  (87) 
J2VwaWtfcHl0aG9uJywgJy1waHQnLCAnMi4wJywgJy1waCcsICc3LjAnLCAnLXRuJywgJzgnLCAnLW1hJywgJzIwMCcsICctaW1hZScsICc8aW5maWxlLm1hZT4nLCAnLW9tYWUnLCAnPG91dGZpbGUubWFlPic=

>  <r_epik_Ionization_Penalty>  (87) 
0.000568801

>  <r_epik_Ionization_Penalty_Charging>  (87) 
0

>  <r_epik_Ionization_Penalty_Neutral>  (87) 
0.000568801

>  <r_epik_State_Penalty>  (87) 
0.000352167

>  <r_epik_Charging_Adjusted_Penalty>  (87) 
0.000352167

>  <i_epik_Tot_Q>  (87) 
0

>  <i_epik_Tot_abs_Q>  (87) 
0

>  <s_lp_Force_Field>  (87) 
OPLS3e

>  <r_lp_Energy>  (87) 
1.84178

>  <b_lp_Chiralities_Consistent>  (87) 
1

>  <s_lp_Variant>  (87) 
28:0-1

>  <s_i_glide_gridfile>  (87) 
pfpi4k_grid

>  <i_i_glide_lignum>  (87) 
1

>  <i_i_glide_rotatable_bonds>  (87) 
0

>  <r_i_docking_score>  (87) 
-4.59615

>  <r_i_glide_ligand_efficiency>  (87) 
-0.255342

>  <r_i_glide_ligand_efficiency_sa>  (87) 
-0.669185

>  <r_i_glide_ligand_efficiency_ln>  (87) 
-1.18142

>  <r_i_glide_gscore>  (87) 
-4.59615

>  <r_i_glide_lipo>  (87) 
-0.480346

>  <r_i_glide_hbond>  (87) 
-0.554838

>  <r_i_glide_metal>  (87) 
-0

>  <r_i_glide_rewards>  (87) 
-1.89051

>  <r_i_glide_evdw>  (87) 
-16.5823

>  <r_i_glide_ecoul>  (87) 
-5.07657

>  <r_i_glide_erotb>  (87) 
0

>  <r_i_glide_esite>  (87) 
-0.0798524

>  <r_i_glide_emodel>  (87) 
-29.1431

>  <r_i_glide_energy>  (87) 
-21.6589

>  <r_i_glide_einternal>  (87) 
0

>  <r_i_glide_intrahb_reward>  (87) 
-0

>  <i_i_glide_confnum>  (87) 
1

>  <i_i_glide_posenum>  (87) 
17

>  <r_i_glide_eff_state_penalty>  (87) 
0

>  <ligand_id>  (87) 
28

>  <original_smiles>  (87) 
Cc1nn(C)c2c1NC1(C)CS(=O)(=O)CC1C2=O

>  <smiles>  (87) 
[H]N1c2c(C([H])([H])[H])nn(C([H])([H])[H])c2C(=O)C2([H])C1(C([H])([H])[H])C([H])([H])S(=O)(=O)C2([H])[H]

$$$$
28:0:1
     RDKit          3D

 33 35  0  0  1  0  0  0  0  0999 V2000
    3.0394   -2.7916   -3.2050 C   0  0  0  0  0  0  0  0  0  0  0  0
    4.2503   -2.5774   -2.3366 C   0  0  0  0  0  0  0  0  0  0  0  0
    5.4174   -3.1250   -2.6689 N   0  0  0  0  0  0  0  0  0  0  0  0
    6.2765   -2.7850   -1.6758 N   0  0  0  0  0  0  0  0  0  0  0  0
    7.6390   -3.2604   -1.7002 C   0  0  0  0  0  0  0  0  0  0  0  0
    5.6359   -1.9985   -0.7468 C   0  0  0  0  0  0  0  0  0  0  0  0
    4.3487   -1.8367   -1.1239 C   0  0  0  0  0  0  0  0  0  0  0  0
    3.4134   -1.0774   -0.4003 N   0  0  0  0  0  0  0  0  0  0  0  0
    3.6960   -0.8583    1.0142 C   0  0  1  0  0  0  0  0  0  0  0  0
    2.7502    0.2578    1.5022 C   0  0  0  0  0  0  0  0  0  0  0  0
    3.4456   -2.1389    1.8396 C   0  0  0  0  0  0  0  0  0  0  0  0
    4.4430   -1.9573    3.3599 S   0  0  0  0  0  0  0  0  0  0  0  0
    3.5780   -1.5318    4.4686 O   0  0  0  0  0  0  0  0  0  0  0  0
    5.3177   -3.1273    3.4820 O   0  0  0  0  0  0  0  0  0  0  0  0
    5.4136   -0.5264    2.7832 C   0  0  0  0  0  0  0  0  0  0  0  0
    5.1820   -0.4704    1.2580 C   0  0  1  0  0  0  0  0  0  0  0  0
    6.1624   -1.3787    0.4693 C   0  0  0  0  0  0  0  0  0  0  0  0
    7.3260   -1.5089    0.8287 O   0  0  0  0  0  0  0  0  0  0  0  0
    2.1643   -2.2706   -2.8081 H   0  0  0  0  0  0  0  0  0  0  0  0
    2.7884   -3.8471   -3.2724 H   0  0  0  0  0  0  0  0  0  0  0  0
    3.2140   -2.4227   -4.2174 H   0  0  0  0  0  0  0  0  0  0  0  0
    8.3328   -2.4240   -1.6116 H   0  0  0  0  0  0  0  0  0  0  0  0
    7.8219   -3.8033   -2.6222 H   0  0  0  0  0  0  0  0  0  0  0  0
    7.7938   -3.9328   -0.8565 H   0  0  0  0  0  0  0  0  0  0  0  0
    2.4246   -1.0583   -0.6795 H   0  0  0  0  0  0  0  0  0  0  0  0
    2.8098    0.4318    2.5763 H   0  0  0  0  0  0  0  0  0  0  0  0
    1.7076    0.0178    1.2826 H   0  0  0  0  0  0  0  0  0  0  0  0
    2.9757    1.2003    1.0099 H   0  0  0  0  0  0  0  0  0  0  0  0
    2.3959   -2.2947    2.0953 H   0  0  0  0  0  0  0  0  0  0  0  0
    3.8075   -3.0399    1.3335 H   0  0  0  0  0  0  0  0  0  0  0  0
    5.0050    0.3614    3.2699 H   0  0  0  0  0  0  0  0  0  0  0  0
    6.4555   -0.6284    3.0764 H   0  0  0  0  0  0  0  0  0  0  0  0
    5.3649    0.5428    0.8946 H   0  0  0  0  0  0  0  0  0  0  0  0
  1  2  1  0
  1 19  1  0
  1 20  1  0
  1 21  1  0
  2  7  1  0
  2  3  2  0
  3  4  1  0
  4  5  1  0
  4  6  1  0
  5 22  1  0
  5 23  1  0
  5 24  1  0
  6 17  1  0
  6  7  2  0
  7  8  1  0
  8  9  1  0
  8 25  1  0
  9 16  1  0
  9 10  1  1
  9 11  1  0
 10 26  1  0
 10 27  1  0
 10 28  1  0
 11 12  1  0
 11 29  1  0
 11 30  1  0
 12 13  2  0
 12 14  2  0
 12 15  1  0
 15 16  1  0
 15 31  1  0
 15 32  1  0
 16 17  1  0
 16 33  1  6
 17 18  2  0
M  END
>  <i_m_ct_stereo_status>  (88) 
1

>  <s_m_source_file>  (88) 
/var/tmp/pbs.5076255.sched01/tmp3foza_40/36o9al7bb4.sdf

>  <i_m_source_file_index>  (88) 
1

>  <i_lp_mmshare_version>  (88) 
48012

>  <i_f3d_flags>  (88) 
0

>  <s_epik_input>  (88) 
W0NIM11uMW5jKFtDSDNdKWMoW05IXTIpYzFDKD1PKVtDQEBIXShbQ0BAXTIzW0NIM10pW0NIMl1TKD1PKSg9TylbQ0gyXTM=

>  <s_epik_cmdline>  (88) 
J2VwaWtfcHl0aG9uJywgJy1waHQnLCAnMi4wJywgJy1waCcsICc3LjAnLCAnLXRuJywgJzgnLCAnLW1hJywgJzIwMCcsICctaW1hZScsICc8aW5maWxlLm1hZT4nLCAnLW9tYWUnLCAnPG91dGZpbGUubWFlPic=

>  <r_epik_Ionization_Penalty>  (88) 
0.000568801

>  <r_epik_Ionization_Penalty_Charging>  (88) 
0

>  <r_epik_Ionization_Penalty_Neutral>  (88) 
0.000568801

>  <r_epik_State_Penalty>  (88) 
0.000352167

>  <r_epik_Charging_Adjusted_Penalty>  (88) 
0.000352167

>  <i_epik_Tot_Q>  (88) 
0

>  <i_epik_Tot_abs_Q>  (88) 
0

>  <s_lp_Force_Field>  (88) 
OPLS3e

>  <r_lp_Energy>  (88) 
1.84178

>  <b_lp_Chiralities_Consistent>  (88) 
1

>  <s_lp_Variant>  (88) 
28:0-1

>  <s_i_glide_gridfile>  (88) 
pfpi4k_grid

>  <i_i_glide_lignum>  (88) 
1

>  <i_i_glide_rotatable_bonds>  (88) 
0

>  <r_i_docking_score>  (88) 
-4.3063

>  <r_i_glide_ligand_efficiency>  (88) 
-0.239239

>  <r_i_glide_ligand_efficiency_sa>  (88) 
-0.626984

>  <r_i_glide_ligand_efficiency_ln>  (88) 
-1.10691

>  <r_i_glide_gscore>  (88) 
-4.3063

>  <r_i_glide_lipo>  (88) 
-0.404799

>  <r_i_glide_hbond>  (88) 
-0.16

>  <r_i_glide_metal>  (88) 
-0

>  <r_i_glide_rewards>  (88) 
-1.74532

>  <r_i_glide_evdw>  (88) 
-21.9384

>  <r_i_glide_ecoul>  (88) 
-5.36138

>  <r_i_glide_erotb>  (88) 
0

>  <r_i_glide_esite>  (88) 
-0.095055

>  <r_i_glide_emodel>  (88) 
-34.613

>  <r_i_glide_energy>  (88) 
-27.2998

>  <r_i_glide_einternal>  (88) 
0

>  <r_i_glide_intrahb_reward>  (88) 
-0

>  <i_i_glide_confnum>  (88) 
2

>  <i_i_glide_posenum>  (88) 
36

>  <r_i_glide_eff_state_penalty>  (88) 
0

>  <ligand_id>  (88) 
28

>  <original_smiles>  (88) 
Cc1nn(C)c2c1NC1(C)CS(=O)(=O)CC1C2=O

>  <smiles>  (88) 
[H]N1c2c(C([H])([H])[H])nn(C([H])([H])[H])c2C(=O)C2([H])C1(C([H])([H])[H])C([H])([H])S(=O)(=O)C2([H])[H]

$$$$
28:0:2
     RDKit          3D

 33 35  0  0  1  0  0  0  0  0999 V2000
    3.0252   -0.8662   -2.8013 C   0  0  0  0  0  0  0  0  0  0  0  0
    3.9604   -1.4496   -1.7813 C   0  0  0  0  0  0  0  0  0  0  0  0
    4.9906   -2.1972   -2.1873 N   0  0  0  0  0  0  0  0  0  0  0  0
    5.6045   -2.5987   -1.0514 N   0  0  0  0  0  0  0  0  0  0  0  0
    6.7507   -3.4620   -1.1229 C   0  0  0  0  0  0  0  0  0  0  0  0
    4.9563   -2.0676    0.0435 C   0  0  0  0  0  0  0  0  0  0  0  0
    3.9081   -1.3336   -0.3606 C   0  0  0  0  0  0  0  0  0  0  0  0
    3.0190   -0.6462    0.5071 N   0  0  0  0  0  0  0  0  0  0  0  0
    2.9807   -1.1259    1.8836 C   0  0  1  0  0  0  0  0  0  0  0  0
    2.2605   -0.0455    2.7113 C   0  0  0  0  0  0  0  0  0  0  0  0
    2.2057   -2.4569    1.9899 C   0  0  0  0  0  0  0  0  0  0  0  0
    2.7472   -3.2606    3.5179 S   0  0  0  0  0  0  0  0  0  0  0  0
    1.7489   -3.0368    4.5613 O   0  0  0  0  0  0  0  0  0  0  0  0
    3.2218   -4.6106    3.1866 O   0  0  0  0  0  0  0  0  0  0  0  0
    4.1637   -2.1790    3.7997 C   0  0  0  0  0  0  0  0  0  0  0  0
    4.3841   -1.4201    2.4651 C   0  0  1  0  0  0  0  0  0  0  0  0
    5.2498   -2.2338    1.4625 C   0  0  0  0  0  0  0  0  0  0  0  0
    6.1366   -2.9598    1.8693 O   0  0  0  0  0  0  0  0  0  0  0  0
    2.2398   -0.2767   -2.3286 H   0  0  0  0  0  0  0  0  0  0  0  0
    2.5487   -1.6577   -3.3758 H   0  0  0  0  0  0  0  0  0  0  0  0
    3.5661   -0.2198   -3.4860 H   0  0  0  0  0  0  0  0  0  0  0  0
    7.5741   -3.0500   -0.5404 H   0  0  0  0  0  0  0  0  0  0  0  0
    7.0683   -3.5791   -2.1603 H   0  0  0  0  0  0  0  0  0  0  0  0
    6.4768   -4.4311   -0.7061 H   0  0  0  0  0  0  0  0  0  0  0  0
    2.1239   -0.3253    0.1148 H   0  0  0  0  0  0  0  0  0  0  0  0
    2.0646   -0.3518    3.7406 H   0  0  0  0  0  0  0  0  0  0  0  0
    1.2941    0.2000    2.2643 H   0  0  0  0  0  0  0  0  0  0  0  0
    2.8496    0.8707    2.7377 H   0  0  0  0  0  0  0  0  0  0  0  0
    1.1333   -2.2731    2.0416 H   0  0  0  0  0  0  0  0  0  0  0  0
    2.4224   -3.1435    1.1601 H   0  0  0  0  0  0  0  0  0  0  0  0
    3.8981   -1.4787    4.5949 H   0  0  0  0  0  0  0  0  0  0  0  0
    5.0259   -2.7597    4.1280 H   0  0  0  0  0  0  0  0  0  0  0  0
    4.9255   -0.4939    2.6604 H   0  0  0  0  0  0  0  0  0  0  0  0
  1  2  1  0
  1 19  1  0
  1 20  1  0
  1 21  1  0
  2  7  1  0
  2  3  2  0
  3  4  1  0
  4  5  1  0
  4  6  1  0
  5 22  1  0
  5 23  1  0
  5 24  1  0
  6 17  1  0
  6  7  2  0
  7  8  1  0
  8  9  1  0
  8 25  1  0
  9 16  1  0
  9 10  1  1
  9 11  1  0
 10 26  1  0
 10 27  1  0
 10 28  1  0
 11 12  1  0
 11 29  1  0
 11 30  1  0
 12 13  2  0
 12 14  2  0
 12 15  1  0
 15 16  1  0
 15 31  1  0
 15 32  1  0
 16 17  1  0
 16 33  1  1
 17 18  2  0
M  END
>  <i_m_ct_stereo_status>  (89) 
1

>  <s_m_source_file>  (89) 
/var/tmp/pbs.5076255.sched01/tmp3foza_40/36o9al7bb4.sdf

>  <i_m_source_file_index>  (89) 
1

>  <i_lp_mmshare_version>  (89) 
48012

>  <i_f3d_flags>  (89) 
0

>  <s_epik_input>  (89) 
W0NIM11uMW5jKFtDSDNdKWMoW05IXTIpYzFDKD1PKVtDQEBIXShbQ0BAXTIzW0NIM10pW0NIMl1TKD1PKSg9TylbQ0gyXTM=

>  <s_epik_cmdline>  (89) 
J2VwaWtfcHl0aG9uJywgJy1waHQnLCAnMi4wJywgJy1waCcsICc3LjAnLCAnLXRuJywgJzgnLCAnLW1hJywgJzIwMCcsICctaW1hZScsICc8aW5maWxlLm1hZT4nLCAnLW9tYWUnLCAnPG91dGZpbGUubWFlPic=

>  <r_epik_Ionization_Penalty>  (89) 
0.000568801

>  <r_epik_Ionization_Penalty_Charging>  (89) 
0

>  <r_epik_Ionization_Penalty_Neutral>  (89) 
0.000568801

>  <r_epik_State_Penalty>  (89) 
0.000352167

>  <r_epik_Charging_Adjusted_Penalty>  (89) 
0.000352167

>  <i_epik_Tot_Q>  (89) 
0

>  <i_epik_Tot_abs_Q>  (89) 
0

>  <s_lp_Force_Field>  (89) 
OPLS3e

>  <r_lp_Energy>  (89) 
1.84178

>  <b_lp_Chiralities_Consistent>  (89) 
1

>  <s_lp_Variant>  (89) 
28:0-1

>  <s_i_glide_gridfile>  (89) 
pfpi4k_grid

>  <i_i_glide_lignum>  (89) 
1

>  <i_i_glide_rotatable_bonds>  (89) 
0

>  <r_i_docking_score>  (89) 
-3.50781

>  <r_i_glide_ligand_efficiency>  (89) 
-0.194878

>  <r_i_glide_ligand_efficiency_sa>  (89) 
-0.510726

>  <r_i_glide_ligand_efficiency_ln>  (89) 
-0.901664

>  <r_i_glide_gscore>  (89) 
-3.50781

>  <r_i_glide_lipo>  (89) 
-0.166027

>  <r_i_glide_hbond>  (89) 
-0.128706

>  <r_i_glide_metal>  (89) 
-0

>  <r_i_glide_rewards>  (89) 
-1.6547

>  <r_i_glide_evdw>  (89) 
-16.053

>  <r_i_glide_ecoul>  (89) 
-4.42498

>  <r_i_glide_erotb>  (89) 
0

>  <r_i_glide_esite>  (89) 
-0.0919815

>  <r_i_glide_emodel>  (89) 
-26.3332

>  <r_i_glide_energy>  (89) 
-20.478

>  <r_i_glide_einternal>  (89) 
0

>  <r_i_glide_intrahb_reward>  (89) 
-0

>  <i_i_glide_confnum>  (89) 
2

>  <i_i_glide_posenum>  (89) 
33

>  <r_i_glide_eff_state_penalty>  (89) 
0

>  <ligand_id>  (89) 
28

>  <original_smiles>  (89) 
Cc1nn(C)c2c1NC1(C)CS(=O)(=O)CC1C2=O

>  <smiles>  (89) 
[H]N1c2c(C([H])([H])[H])nn(C([H])([H])[H])c2C(=O)C2([H])C1(C([H])([H])[H])C([H])([H])S(=O)(=O)C2([H])[H]

$$$$
29:0:0
     RDKit          3D

 33 36  0  0  1  0  0  0  0  0999 V2000
    3.6111   -0.1311   -4.6727 C   0  0  0  0  0  0  0  0  0  0  0  0
    3.5169   -1.0645   -3.4836 C   0  0  0  0  0  0  0  0  0  0  0  0
    2.7196   -2.2278   -3.5197 C   0  0  0  0  0  0  0  0  0  0  0  0
    2.6212   -3.0565   -2.3919 C   0  0  0  0  0  0  0  0  0  0  0  0
    3.3462   -2.7436   -1.2233 C   0  0  0  0  0  0  0  0  0  0  0  0
    4.1591   -1.5763   -1.1899 C   0  0  0  0  0  0  0  0  0  0  0  0
    4.2382   -0.7469   -2.3201 C   0  0  0  0  0  0  0  0  0  0  0  0
    4.8906   -1.2157   -0.0158 N   0  0  0  0  0  0  0  0  0  0  0  0
    4.9049   -1.9188    1.1374 C   0  0  0  0  0  0  0  0  0  0  0  0
    5.5622   -1.5749    2.1180 O   0  0  0  0  0  0  0  0  0  0  0  0
    4.0594   -3.1484    1.1273 C   0  0  0  0  0  0  0  0  0  0  0  0
    3.8650   -4.0218    2.0823 N   0  0  0  0  0  0  0  0  0  0  0  0
    3.0038   -4.9244    1.5253 N   0  0  0  0  0  0  0  0  0  0  0  0
    2.5209   -6.0531    2.2529 C   0  0  0  0  0  0  0  0  0  0  0  0
    2.8813   -6.2411    3.6104 C   0  0  0  0  0  0  0  0  0  0  0  0
    2.4081   -7.3551    4.3293 C   0  0  0  0  0  0  0  0  0  0  0  0
    1.5698   -8.2936    3.6978 C   0  0  0  0  0  0  0  0  0  0  0  0
    1.2045   -8.1151    2.3489 C   0  0  0  0  0  0  0  0  0  0  0  0
    1.6756   -6.9997    1.6294 C   0  0  0  0  0  0  0  0  0  0  0  0
    2.6393   -4.6386    0.2360 N   0  0  0  0  0  0  0  0  0  0  0  0
    3.3131   -3.5355    0.0018 C   0  0  0  0  0  0  0  0  0  0  0  0
    5.4161   -0.3526   -0.0525 H   0  0  0  0  0  0  0  0  0  0  0  0
    2.8763   -0.3673   -5.4420 H   0  0  0  0  0  0  0  0  0  0  0  0
    4.6015   -0.2024   -5.1108 H   0  0  0  0  0  0  0  0  0  0  0  0
    3.4532    0.9045   -4.3611 H   0  0  0  0  0  0  0  0  0  0  0  0
    2.1547   -2.4785   -4.4018 H   0  0  0  0  0  0  0  0  0  0  0  0
    1.9870   -3.9335   -2.4359 H   0  0  0  0  0  0  0  0  0  0  0  0
    4.8321    0.1476   -2.2879 H   0  0  0  0  0  0  0  0  0  0  0  0
    3.5257   -5.5335    4.1119 H   0  0  0  0  0  0  0  0  0  0  0  0
    2.6949   -7.4875    5.3625 H   0  0  0  0  0  0  0  0  0  0  0  0
    1.2142   -9.1533    4.2446 H   0  0  0  0  0  0  0  0  0  0  0  0
    0.5717   -8.8378    1.8542 H   0  0  0  0  0  0  0  0  0  0  0  0
    1.3984   -6.8806    0.5919 H   0  0  0  0  0  0  0  0  0  0  0  0
  1  2  1  0
  1 23  1  0
  1 24  1  0
  1 25  1  0
  2  7  2  0
  2  3  1  0
  3  4  2  0
  3 26  1  0
  4  5  1  0
  4 27  1  0
  5 21  1  0
  5  6  2  0
  6  7  1  0
  6  8  1  0
  7 28  1  0
  8 22  1  0
  8  9  1  0
  9 10  2  0
  9 11  1  0
 11 21  1  0
 11 12  2  0
 12 13  1  0
 13 14  1  0
 13 20  1  0
 14 19  1  0
 14 15  2  0
 15 16  1  0
 15 29  1  0
 16 17  2  0
 16 30  1  0
 17 18  1  0
 17 31  1  0
 18 19  2  0
 18 32  1  0
 19 33  1  0
 20 21  2  0
M  END
>  <i_m_ct_stereo_status>  (90) 
1

>  <s_m_source_file>  (90) 
/var/tmp/pbs.5076255.sched01/tmp3foza_40/36o9al7bb4.sdf

>  <i_m_source_file_index>  (90) 
2

>  <i_lp_mmshare_version>  (90) 
48012

>  <i_f3d_flags>  (90) 
0

>  <s_epik_input>  (90) 
W2NIXTFbY0hdYyhbQ0gzXSlbY0hdYyhjMTIpW25IXWMoPU8pYzNjMm5uKG4zKS1jNFtjSF1bY0hdW2NIXVtjSF1bY0hdNA==

>  <s_epik_cmdline>  (90) 
J2VwaWtfcHl0aG9uJywgJy1waHQnLCAnMi4wJywgJy1waCcsICc3LjAnLCAnLXRuJywgJzgnLCAnLW1hJywgJzIwMCcsICctaW1hZScsICc8aW5maWxlLm1hZT4nLCAnLW9tYWUnLCAnPG91dGZpbGUubWFlPic=

>  <r_lp_tautomer_probability>  (90) 
1

>  <r_epik_Ionization_Penalty>  (90) 
8.0088e-05

>  <r_epik_Ionization_Penalty_Charging>  (90) 
8.0088e-05

>  <r_epik_Ionization_Penalty_Neutral>  (90) 
3.36921e-13

>  <r_epik_State_Penalty>  (90) 
-0

>  <r_epik_Charging_Adjusted_Penalty>  (90) 
8.0088e-05

>  <i_epik_Tot_Q>  (90) 
0

>  <i_epik_Tot_abs_Q>  (90) 
0

>  <s_lp_Force_Field>  (90) 
OPLS3e

>  <r_lp_Energy>  (90) 
30.6938

>  <b_lp_Chiralities_Consistent>  (90) 
1

>  <s_lp_Variant>  (90) 
29:0-1

>  <s_i_glide_gridfile>  (90) 
pfpi4k_grid

>  <i_i_glide_lignum>  (90) 
2

>  <i_i_glide_rotatable_bonds>  (90) 
1

>  <r_i_docking_score>  (90) 
-3.64033

>  <r_i_glide_ligand_efficiency>  (90) 
-0.173349

>  <r_i_glide_ligand_efficiency_sa>  (90) 
-0.478258

>  <r_i_glide_ligand_efficiency_ln>  (90) 
-0.900065

>  <r_i_glide_gscore>  (90) 
-3.64033

>  <r_i_glide_lipo>  (90) 
-0.727832

>  <r_i_glide_hbond>  (90) 
0

>  <r_i_glide_metal>  (90) 
-0

>  <r_i_glide_rewards>  (90) 
-1.52528

>  <r_i_glide_evdw>  (90) 
-27.6509

>  <r_i_glide_ecoul>  (90) 
-1.54847

>  <r_i_glide_erotb>  (90) 
0.235652

>  <r_i_glide_esite>  (90) 
-0.00806204

>  <r_i_glide_emodel>  (90) 
-35.5219

>  <r_i_glide_energy>  (90) 
-29.1994

>  <r_i_glide_einternal>  (90) 
0.00874667

>  <r_i_glide_intrahb_reward>  (90) 
-0

>  <i_i_glide_confnum>  (90) 
1

>  <i_i_glide_posenum>  (90) 
1

>  <r_i_glide_eff_state_penalty>  (90) 
0

>  <ligand_id>  (90) 
29

>  <original_smiles>  (90) 
Cc1ccc2c(c1)[nH]c(=O)c1nn(-c3ccccc3)nc12

>  <smiles>  (90) 
[H]c1c([H])c([H])c(-n2nc3c(=O)n([H])c4c([H])c(C([H])([H])[H])c([H])c([H])c4c3n2)c([H])c1[H]

$$$$
29:0:1
     RDKit          3D

 33 36  0  0  1  0  0  0  0  0999 V2000
    4.2016   -0.7446   -3.7636 C   0  0  0  0  0  0  0  0  0  0  0  0
    3.8326   -1.8156   -2.7592 C   0  0  0  0  0  0  0  0  0  0  0  0
    2.6032   -2.4990   -2.8490 C   0  0  0  0  0  0  0  0  0  0  0  0
    2.2431   -3.4565   -1.8723 C   0  0  0  0  0  0  0  0  0  0  0  0
    3.1378   -3.7519   -0.8216 C   0  0  0  0  0  0  0  0  0  0  0  0
    4.3899   -3.0846   -0.7518 C   0  0  0  0  0  0  0  0  0  0  0  0
    4.7248   -2.1180   -1.7124 C   0  0  0  0  0  0  0  0  0  0  0  0
    5.3309   -3.3797    0.2801 N   0  0  0  0  0  0  0  0  0  0  0  0
    5.1539   -4.2935    1.2570 C   0  0  0  0  0  0  0  0  0  0  0  0
    5.9917   -4.5070    2.1285 O   0  0  0  0  0  0  0  0  0  0  0  0
    3.8538   -5.0209    1.2030 C   0  0  0  0  0  0  0  0  0  0  0  0
    3.3973   -5.9497    2.0027 N   0  0  0  0  0  0  0  0  0  0  0  0
    2.1707   -6.2451    1.4798 N   0  0  0  0  0  0  0  0  0  0  0  0
    1.3182   -7.2145    2.0771 C   0  0  0  0  0  0  0  0  0  0  0  0
    1.8135   -8.0829    3.0821 C   0  0  0  0  0  0  0  0  0  0  0  0
    0.9695   -9.0412    3.6713 C   0  0  0  0  0  0  0  0  0  0  0  0
   -0.3727   -9.1283    3.2621 C   0  0  0  0  0  0  0  0  0  0  0  0
   -0.8808   -8.2618    2.2781 C   0  0  0  0  0  0  0  0  0  0  0  0
   -0.0358   -7.3093    1.6800 C   0  0  0  0  0  0  0  0  0  0  0  0
    1.8249   -5.5090    0.3735 N   0  0  0  0  0  0  0  0  0  0  0  0
    2.8917   -4.7564    0.2135 C   0  0  0  0  0  0  0  0  0  0  0  0
    6.1950   -2.8561    0.2810 H   0  0  0  0  0  0  0  0  0  0  0  0
    3.3545   -0.4696   -4.3870 H   0  0  0  0  0  0  0  0  0  0  0  0
    4.9972   -1.1019   -4.4119 H   0  0  0  0  0  0  0  0  0  0  0  0
    4.5471    0.1490   -3.2426 H   0  0  0  0  0  0  0  0  0  0  0  0
    1.9167   -2.2778   -3.6524 H   0  0  0  0  0  0  0  0  0  0  0  0
    1.2931   -3.9665   -1.9592 H   0  0  0  0  0  0  0  0  0  0  0  0
    5.6707   -1.6005   -1.6410 H   0  0  0  0  0  0  0  0  0  0  0  0
    2.8443   -8.0267    3.4048 H   0  0  0  0  0  0  0  0  0  0  0  0
    1.3536   -9.7120    4.4262 H   0  0  0  0  0  0  0  0  0  0  0  0
   -1.0154   -9.8764    3.6905 H   0  0  0  0  0  0  0  0  0  0  0  0
   -1.9083   -8.3496    1.9589 H   0  0  0  0  0  0  0  0  0  0  0  0
   -0.4279   -6.6627    0.9075 H   0  0  0  0  0  0  0  0  0  0  0  0
  1  2  1  0
  1 23  1  0
  1 24  1  0
  1 25  1  0
  2  7  2  0
  2  3  1  0
  3  4  2  0
  3 26  1  0
  4  5  1  0
  4 27  1  0
  5 21  1  0
  5  6  2  0
  6  7  1  0
  6  8  1  0
  7 28  1  0
  8 22  1  0
  8  9  1  0
  9 10  2  0
  9 11  1  0
 11 21  1  0
 11 12  2  0
 12 13  1  0
 13 14  1  0
 13 20  1  0
 14 19  1  0
 14 15  2  0
 15 16  1  0
 15 29  1  0
 16 17  2  0
 16 30  1  0
 17 18  1  0
 17 31  1  0
 18 19  2  0
 18 32  1  0
 19 33  1  0
 20 21  2  0
M  END
>  <i_m_ct_stereo_status>  (91) 
1

>  <s_m_source_file>  (91) 
/var/tmp/pbs.5076255.sched01/tmp3foza_40/36o9al7bb4.sdf

>  <i_m_source_file_index>  (91) 
2

>  <i_lp_mmshare_version>  (91) 
48012

>  <i_f3d_flags>  (91) 
0

>  <s_epik_input>  (91) 
W2NIXTFbY0hdYyhbQ0gzXSlbY0hdYyhjMTIpW25IXWMoPU8pYzNjMm5uKG4zKS1jNFtjSF1bY0hdW2NIXVtjSF1bY0hdNA==

>  <s_epik_cmdline>  (91) 
J2VwaWtfcHl0aG9uJywgJy1waHQnLCAnMi4wJywgJy1waCcsICc3LjAnLCAnLXRuJywgJzgnLCAnLW1hJywgJzIwMCcsICctaW1hZScsICc8aW5maWxlLm1hZT4nLCAnLW9tYWUnLCAnPG91dGZpbGUubWFlPic=

>  <r_lp_tautomer_probability>  (91) 
1

>  <r_epik_Ionization_Penalty>  (91) 
8.0088e-05

>  <r_epik_Ionization_Penalty_Charging>  (91) 
8.0088e-05

>  <r_epik_Ionization_Penalty_Neutral>  (91) 
3.36921e-13

>  <r_epik_State_Penalty>  (91) 
-0

>  <r_epik_Charging_Adjusted_Penalty>  (91) 
8.0088e-05

>  <i_epik_Tot_Q>  (91) 
0

>  <i_epik_Tot_abs_Q>  (91) 
0

>  <s_lp_Force_Field>  (91) 
OPLS3e

>  <r_lp_Energy>  (91) 
30.6938

>  <b_lp_Chiralities_Consistent>  (91) 
1

>  <s_lp_Variant>  (91) 
29:0-1

>  <s_i_glide_gridfile>  (91) 
pfpi4k_grid

>  <i_i_glide_lignum>  (91) 
2

>  <i_i_glide_rotatable_bonds>  (91) 
1

>  <r_i_docking_score>  (91) 
-3.22676

>  <r_i_glide_ligand_efficiency>  (91) 
-0.153655

>  <r_i_glide_ligand_efficiency_sa>  (91) 
-0.423924

>  <r_i_glide_ligand_efficiency_ln>  (91) 
-0.797811

>  <r_i_glide_gscore>  (91) 
-3.22676

>  <r_i_glide_lipo>  (91) 
-0.435874

>  <r_i_glide_hbond>  (91) 
-0.0906342

>  <r_i_glide_metal>  (91) 
-0

>  <r_i_glide_rewards>  (91) 
-1.52528

>  <r_i_glide_evdw>  (91) 
-27.1629

>  <r_i_glide_ecoul>  (91) 
-0.19747

>  <r_i_glide_erotb>  (91) 
0.235652

>  <r_i_glide_esite>  (91) 
-0.0228632

>  <r_i_glide_emodel>  (91) 
-32.8987

>  <r_i_glide_energy>  (91) 
-27.3604

>  <r_i_glide_einternal>  (91) 
0.136634

>  <r_i_glide_intrahb_reward>  (91) 
-0

>  <i_i_glide_confnum>  (91) 
1

>  <i_i_glide_posenum>  (91) 
21

>  <r_i_glide_eff_state_penalty>  (91) 
0

>  <ligand_id>  (91) 
29

>  <original_smiles>  (91) 
Cc1ccc2c(c1)[nH]c(=O)c1nn(-c3ccccc3)nc12

>  <smiles>  (91) 
[H]c1c([H])c([H])c(-n2nc3c(=O)n([H])c4c([H])c(C([H])([H])[H])c([H])c([H])c4c3n2)c([H])c1[H]

$$$$
29:0:2
     RDKit          3D

 33 36  0  0  1  0  0  0  0  0999 V2000
    1.7915    5.3200    2.9254 C   0  0  0  0  0  0  0  0  0  0  0  0
    1.4778    3.9047    3.3694 C   0  0  0  0  0  0  0  0  0  0  0  0
    2.2143    2.8098    2.8685 C   0  0  0  0  0  0  0  0  0  0  0  0
    1.9035    1.4907    3.2661 C   0  0  0  0  0  0  0  0  0  0  0  0
    0.8413    1.2720    4.1729 C   0  0  0  0  0  0  0  0  0  0  0  0
    0.1020    2.3780    4.6737 C   0  0  0  0  0  0  0  0  0  0  0  0
    0.4226    3.6863    4.2712 C   0  0  0  0  0  0  0  0  0  0  0  0
   -0.9737    2.1969    5.5903 N   0  0  0  0  0  0  0  0  0  0  0  0
   -1.3852    1.0096    6.0792 C   0  0  0  0  0  0  0  0  0  0  0  0
   -2.3067    0.9091    6.8844 O   0  0  0  0  0  0  0  0  0  0  0  0
   -0.6394   -0.1718    5.5666 C   0  0  0  0  0  0  0  0  0  0  0  0
   -0.8083   -1.4358    5.8475 N   0  0  0  0  0  0  0  0  0  0  0  0
    0.1587   -2.0536    5.1001 N   0  0  0  0  0  0  0  0  0  0  0  0
    0.3252   -3.4662    5.1089 C   0  0  0  0  0  0  0  0  0  0  0  0
    1.0388   -4.1090    4.0725 C   0  0  0  0  0  0  0  0  0  0  0  0
    1.1742   -5.5102    4.0638 C   0  0  0  0  0  0  0  0  0  0  0  0
    0.6016   -6.2824    5.0938 C   0  0  0  0  0  0  0  0  0  0  0  0
   -0.1079   -5.6519    6.1333 C   0  0  0  0  0  0  0  0  0  0  0  0
   -0.2420   -4.2515    6.1410 C   0  0  0  0  0  0  0  0  0  0  0  0
    0.9270   -1.2079    4.3463 N   0  0  0  0  0  0  0  0  0  0  0  0
    0.4218   -0.0396    4.6551 C   0  0  0  0  0  0  0  0  0  0  0  0
   -1.4493    3.0283    5.9104 H   0  0  0  0  0  0  0  0  0  0  0  0
    2.4789    5.3371    2.0800 H   0  0  0  0  0  0  0  0  0  0  0  0
    2.2359    5.8866    3.7419 H   0  0  0  0  0  0  0  0  0  0  0  0
    0.8793    5.8313    2.6184 H   0  0  0  0  0  0  0  0  0  0  0  0
    3.0123    2.9841    2.1639 H   0  0  0  0  0  0  0  0  0  0  0  0
    2.4765    0.6629    2.8704 H   0  0  0  0  0  0  0  0  0  0  0  0
   -0.1453    4.5220    4.6432 H   0  0  0  0  0  0  0  0  0  0  0  0
    1.4672   -3.5258    3.2698 H   0  0  0  0  0  0  0  0  0  0  0  0
    1.7220   -5.9917    3.2667 H   0  0  0  0  0  0  0  0  0  0  0  0
    0.7128   -7.3545    5.0925 H   0  0  0  0  0  0  0  0  0  0  0  0
   -0.5464   -6.2380    6.9271 H   0  0  0  0  0  0  0  0  0  0  0  0
   -0.7972   -3.7838    6.9399 H   0  0  0  0  0  0  0  0  0  0  0  0
  1  2  1  0
  1 23  1  0
  1 24  1  0
  1 25  1  0
  2  7  2  0
  2  3  1  0
  3  4  2  0
  3 26  1  0
  4  5  1  0
  4 27  1  0
  5 21  1  0
  5  6  2  0
  6  7  1  0
  6  8  1  0
  7 28  1  0
  8 22  1  0
  8  9  1  0
  9 10  2  0
  9 11  1  0
 11 21  1  0
 11 12  2  0
 12 13  1  0
 13 14  1  0
 13 20  1  0
 14 19  1  0
 14 15  2  0
 15 16  1  0
 15 29  1  0
 16 17  2  0
 16 30  1  0
 17 18  1  0
 17 31  1  0
 18 19  2  0
 18 32  1  0
 19 33  1  0
 20 21  2  0
M  END
>  <i_m_ct_stereo_status>  (92) 
1

>  <s_m_source_file>  (92) 
/var/tmp/pbs.5076255.sched01/tmp3foza_40/36o9al7bb4.sdf

>  <i_m_source_file_index>  (92) 
2

>  <i_lp_mmshare_version>  (92) 
48012

>  <i_f3d_flags>  (92) 
0

>  <s_epik_input>  (92) 
W2NIXTFbY0hdYyhbQ0gzXSlbY0hdYyhjMTIpW25IXWMoPU8pYzNjMm5uKG4zKS1jNFtjSF1bY0hdW2NIXVtjSF1bY0hdNA==

>  <s_epik_cmdline>  (92) 
J2VwaWtfcHl0aG9uJywgJy1waHQnLCAnMi4wJywgJy1waCcsICc3LjAnLCAnLXRuJywgJzgnLCAnLW1hJywgJzIwMCcsICctaW1hZScsICc8aW5maWxlLm1hZT4nLCAnLW9tYWUnLCAnPG91dGZpbGUubWFlPic=

>  <r_lp_tautomer_probability>  (92) 
1

>  <r_epik_Ionization_Penalty>  (92) 
8.0088e-05

>  <r_epik_Ionization_Penalty_Charging>  (92) 
8.0088e-05

>  <r_epik_Ionization_Penalty_Neutral>  (92) 
3.36921e-13

>  <r_epik_State_Penalty>  (92) 
-0

>  <r_epik_Charging_Adjusted_Penalty>  (92) 
8.0088e-05

>  <i_epik_Tot_Q>  (92) 
0

>  <i_epik_Tot_abs_Q>  (92) 
0

>  <s_lp_Force_Field>  (92) 
OPLS3e

>  <r_lp_Energy>  (92) 
30.6938

>  <b_lp_Chiralities_Consistent>  (92) 
1

>  <s_lp_Variant>  (92) 
29:0-1

>  <s_i_glide_gridfile>  (92) 
pfpi4k_grid

>  <i_i_glide_lignum>  (92) 
2

>  <i_i_glide_rotatable_bonds>  (92) 
1

>  <r_i_docking_score>  (92) 
-3.00046

>  <r_i_glide_ligand_efficiency>  (92) 
-0.142879

>  <r_i_glide_ligand_efficiency_sa>  (92) 
-0.394192

>  <r_i_glide_ligand_efficiency_ln>  (92) 
-0.741857

>  <r_i_glide_gscore>  (92) 
-3.00046

>  <r_i_glide_lipo>  (92) 
-0.000288474

>  <r_i_glide_hbond>  (92) 
-0.16

>  <r_i_glide_metal>  (92) 
-0

>  <r_i_glide_rewards>  (92) 
-1.52528

>  <r_i_glide_evdw>  (92) 
-19.8835

>  <r_i_glide_ecoul>  (92) 
-3.64196

>  <r_i_glide_erotb>  (92) 
0.235652

>  <r_i_glide_esite>  (92) 
-0.0100773

>  <r_i_glide_emodel>  (92) 
-28.59

>  <r_i_glide_energy>  (92) 
-23.5254

>  <r_i_glide_einternal>  (92) 
0.292778

>  <r_i_glide_intrahb_reward>  (92) 
-0

>  <i_i_glide_confnum>  (92) 
2

>  <i_i_glide_posenum>  (92) 
2

>  <r_i_glide_eff_state_penalty>  (92) 
0

>  <ligand_id>  (92) 
29

>  <original_smiles>  (92) 
Cc1ccc2c(c1)[nH]c(=O)c1nn(-c3ccccc3)nc12

>  <smiles>  (92) 
[H]c1c([H])c([H])c(-n2nc3c(=O)n([H])c4c([H])c(C([H])([H])[H])c([H])c([H])c4c3n2)c([H])c1[H]

$$$$
31:0:0
     RDKit          3D

 35 37  0  0  1  0  0  0  0  0999 V2000
    4.0129   -1.0442   -4.1868 C   0  0  0  0  0  0  0  0  0  0  0  0
    3.4444   -2.1215   -3.2650 C   0  0  0  0  0  0  0  0  0  0  0  0
    3.2569   -1.5814   -1.8586 C   0  0  0  0  0  0  0  0  0  0  0  0
    4.5796   -1.2968   -1.1231 C   0  0  0  0  0  0  0  0  0  0  0  0
    5.5091   -2.4484   -1.1795 N   0  0  0  0  0  0  0  0  0  0  0  0
    6.0108   -3.2512    0.2740 S   0  0  0  0  0  0  0  0  0  0  0  0
    7.2106   -4.0414   -0.0421 O   0  0  0  0  0  0  0  0  0  0  0  0
    6.0315   -2.2549    1.3533 O   0  0  0  0  0  0  0  0  0  0  0  0
    4.6987   -4.3639    0.6471 C   0  0  0  0  0  0  0  0  0  0  0  0
    3.3390   -4.0138    0.7598 C   0  0  0  0  0  0  0  0  0  0  0  0
    2.5562   -5.0394    1.0150 N   0  0  0  0  0  0  0  0  0  0  0  0
    3.4332   -6.0894    1.1348 N   0  0  0  0  0  0  0  0  0  0  0  0
    3.0981   -7.3753    1.4295 C   0  0  0  0  0  0  0  0  0  0  0  0
    4.1122   -8.3013    1.5020 C   0  0  0  0  0  0  0  0  0  0  0  0
    5.4427   -7.8604    1.2925 C   0  0  0  0  0  0  0  0  0  0  0  0
    5.7781   -6.6075    1.0073 N   0  0  0  0  0  0  0  0  0  0  0  0
    4.7854   -5.7038    0.9142 C   0  0  0  0  0  0  0  0  0  0  0  0
    5.6511   -3.1317   -2.4814 C   0  0  0  0  0  0  0  0  0  0  0  0
    4.3102   -3.3827   -3.1810 C   0  0  0  0  0  0  0  0  0  0  0  0
    4.9939   -0.7295   -3.8491 H   0  0  0  0  0  0  0  0  0  0  0  0
    3.3780   -0.1579   -4.2191 H   0  0  0  0  0  0  0  0  0  0  0  0
    4.1213   -1.4289   -5.1901 H   0  0  0  0  0  0  0  0  0  0  0  0
    2.4604   -2.4069   -3.6394 H   0  0  0  0  0  0  0  0  0  0  0  0
    2.6710   -0.6672   -1.9137 H   0  0  0  0  0  0  0  0  0  0  0  0
    2.6344   -2.2886   -1.3119 H   0  0  0  0  0  0  0  0  0  0  0  0
    5.0657   -0.4325   -1.5753 H   0  0  0  0  0  0  0  0  0  0  0  0
    4.3790   -1.0119   -0.0896 H   0  0  0  0  0  0  0  0  0  0  0  0
    2.9115   -3.0262    0.6607 H   0  0  0  0  0  0  0  0  0  0  0  0
    2.0451   -7.6039    1.5785 H   0  0  0  0  0  0  0  0  0  0  0  0
    3.8894   -9.3401    1.7194 H   0  0  0  0  0  0  0  0  0  0  0  0
    6.2541   -8.5833    1.3364 H   0  0  0  0  0  0  0  0  0  0  0  0
    6.2767   -2.5212   -3.1183 H   0  0  0  0  0  0  0  0  0  0  0  0
    6.1915   -4.0681   -2.3633 H   0  0  0  0  0  0  0  0  0  0  0  0
    3.7888   -4.1580   -2.6225 H   0  0  0  0  0  0  0  0  0  0  0  0
    4.4797   -3.7778   -4.1797 H   0  0  0  0  0  0  0  0  0  0  0  0
  1  2  1  0
  1 20  1  0
  1 21  1  0
  1 22  1  0
  2 19  1  0
  2  3  1  0
  2 23  1  0
  3  4  1  0
  3 24  1  0
  3 25  1  0
  4  5  1  0
  4 26  1  0
  4 27  1  0
  5  6  1  0
  5 18  1  0
  6  7  2  0
  6  8  2  0
  6  9  1  0
  9 17  2  0
  9 10  1  0
 10 11  2  0
 10 28  1  0
 11 12  1  0
 12 17  1  0
 12 13  1  0
 13 14  2  0
 13 29  1  0
 14 15  1  0
 14 30  1  0
 15 16  2  0
 15 31  1  0
 16 17  1  0
 18 19  1  0
 18 32  1  0
 18 33  1  0
 19 34  1  0
 19 35  1  0
M  END
>  <i_m_ct_stereo_status>  (93) 
1

>  <s_m_source_file>  (93) 
/var/tmp/pbs.5076255.sched01/tmp3foza_40/36o9al7bb4.sdf

>  <i_m_source_file_index>  (93) 
4

>  <i_lp_mmshare_version>  (93) 
48012

>  <i_f3d_flags>  (93) 
0

>  <s_epik_input>  (93) 
W0NIM11bQ0hdMVtDSDJdW0NIMl1OKFtDSDJdW0NIMl0xKVMoPU8pKD1PKWMoW2NIXW4yKWMobjIzKW5bY0hdW2NIXVtjSF0z

>  <s_epik_cmdline>  (93) 
J2VwaWtfcHl0aG9uJywgJy1waHQnLCAnMi4wJywgJy1waCcsICc3LjAnLCAnLXRuJywgJzgnLCAnLW1hJywgJzIwMCcsICctaW1hZScsICc8aW5maWxlLm1hZT4nLCAnLW9tYWUnLCAnPG91dGZpbGUubWFlPic=

>  <r_lp_tautomer_probability>  (93) 
1

>  <r_epik_Ionization_Penalty>  (93) 
7.20434e-10

>  <r_epik_Ionization_Penalty_Charging>  (93) 
0

>  <r_epik_Ionization_Penalty_Neutral>  (93) 
7.20434e-10

>  <r_epik_State_Penalty>  (93) 
-0

>  <r_epik_Charging_Adjusted_Penalty>  (93) 
0

>  <i_epik_Tot_Q>  (93) 
0

>  <i_epik_Tot_abs_Q>  (93) 
0

>  <s_lp_Force_Field>  (93) 
OPLS3e

>  <r_lp_Energy>  (93) 
15.1454

>  <b_lp_Chiralities_Consistent>  (93) 
1

>  <s_lp_Variant>  (93) 
31:0-1

>  <s_i_glide_gridfile>  (93) 
pfpi4k_grid

>  <i_i_glide_lignum>  (93) 
4

>  <i_i_glide_rotatable_bonds>  (93) 
2

>  <r_i_docking_score>  (93) 
-3.57356

>  <r_i_glide_ligand_efficiency>  (93) 
-0.188082

>  <r_i_glide_ligand_efficiency_sa>  (93) 
-0.501878

>  <r_i_glide_ligand_efficiency_ln>  (93) 
-0.905974

>  <r_i_glide_gscore>  (93) 
-3.57356

>  <r_i_glide_lipo>  (93) 
-0.67824

>  <r_i_glide_hbond>  (93) 
0

>  <r_i_glide_metal>  (93) 
-0

>  <r_i_glide_rewards>  (93) 
-1.73937

>  <r_i_glide_evdw>  (93) 
-24.3651

>  <r_i_glide_ecoul>  (93) 
-2.51681

>  <r_i_glide_erotb>  (93) 
0.459537

>  <r_i_glide_esite>  (93) 
-0.0197067

>  <r_i_glide_emodel>  (93) 
-32.9203

>  <r_i_glide_energy>  (93) 
-26.8819

>  <r_i_glide_einternal>  (93) 
1.28732

>  <r_i_glide_intrahb_reward>  (93) 
-0

>  <i_i_glide_confnum>  (93) 
4

>  <i_i_glide_posenum>  (93) 
34

>  <r_i_glide_eff_state_penalty>  (93) 
0

>  <ligand_id>  (93) 
31

>  <original_smiles>  (93) 
CC1CCN(S(=O)(=O)c2cnn3cccnc23)CC1

>  <smiles>  (93) 
[H]c1nc2c(S(=O)(=O)N3C([H])([H])C([H])([H])C([H])(C([H])([H])[H])C([H])([H])C3([H])[H])c([H])nn2c([H])c1[H]

$$$$
31:0:1
     RDKit          3D

 35 37  0  0  1  0  0  0  0  0999 V2000
    2.5831   -3.0605   -3.6710 C   0  0  0  0  0  0  0  0  0  0  0  0
    3.9933   -2.4602   -3.6540 C   0  0  0  0  0  0  0  0  0  0  0  0
    5.0374   -3.4476   -3.0998 C   0  0  0  0  0  0  0  0  0  0  0  0
    4.8340   -3.7172   -1.5960 C   0  0  0  0  0  0  0  0  0  0  0  0
    4.7718   -2.4491   -0.8482 N   0  0  0  0  0  0  0  0  0  0  0  0
    5.7836   -2.1118    0.5069 S   0  0  0  0  0  0  0  0  0  0  0  0
    6.6260   -3.2892    0.7635 O   0  0  0  0  0  0  0  0  0  0  0  0
    6.3809   -0.7859    0.2897 O   0  0  0  0  0  0  0  0  0  0  0  0
    4.6772   -1.9901    1.8737 C   0  0  0  0  0  0  0  0  0  0  0  0
    4.5612   -2.9256    2.9248 C   0  0  0  0  0  0  0  0  0  0  0  0
    3.6448   -2.5878    3.8072 N   0  0  0  0  0  0  0  0  0  0  0  0
    3.1519   -1.3927    3.3348 N   0  0  0  0  0  0  0  0  0  0  0  0
    2.1696   -0.6414    3.9074 C   0  0  0  0  0  0  0  0  0  0  0  0
    1.8063    0.5290    3.2780 C   0  0  0  0  0  0  0  0  0  0  0  0
    2.4732    0.8870    2.0826 C   0  0  0  0  0  0  0  0  0  0  0  0
    3.4417    0.1660    1.5281 N   0  0  0  0  0  0  0  0  0  0  0  0
    3.7858   -0.9855    2.1305 C   0  0  0  0  0  0  0  0  0  0  0  0
    3.8433   -1.4274   -1.3532 C   0  0  0  0  0  0  0  0  0  0  0  0
    4.0492   -1.1596   -2.8467 C   0  0  0  0  0  0  0  0  0  0  0  0
    2.2348   -3.3164   -2.6727 H   0  0  0  0  0  0  0  0  0  0  0  0
    2.5578   -3.9789   -4.2529 H   0  0  0  0  0  0  0  0  0  0  0  0
    1.8586   -2.3681   -4.0949 H   0  0  0  0  0  0  0  0  0  0  0  0
    4.2599   -2.2146   -4.6801 H   0  0  0  0  0  0  0  0  0  0  0  0
    4.9929   -4.3861   -3.6531 H   0  0  0  0  0  0  0  0  0  0  0  0
    6.0443   -3.0515   -3.2549 H   0  0  0  0  0  0  0  0  0  0  0  0
    3.9054   -4.2590   -1.4281 H   0  0  0  0  0  0  0  0  0  0  0  0
    5.6333   -4.3562   -1.2242 H   0  0  0  0  0  0  0  0  0  0  0  0
    5.1195   -3.8428    3.0549 H   0  0  0  0  0  0  0  0  0  0  0  0
    1.7265   -1.0046    4.8287 H   0  0  0  0  0  0  0  0  0  0  0  0
    1.0313    1.1675    3.6919 H   0  0  0  0  0  0  0  0  0  0  0  0
    2.2005    1.8053    1.5720 H   0  0  0  0  0  0  0  0  0  0  0  0
    2.8240   -1.7518   -1.1460 H   0  0  0  0  0  0  0  0  0  0  0  0
    3.9964   -0.4927   -0.8250 H   0  0  0  0  0  0  0  0  0  0  0  0
    5.0136   -0.6659   -2.9830 H   0  0  0  0  0  0  0  0  0  0  0  0
    3.2911   -0.4580   -3.2000 H   0  0  0  0  0  0  0  0  0  0  0  0
  1  2  1  0
  1 20  1  0
  1 21  1  0
  1 22  1  0
  2 19  1  0
  2  3  1  0
  2 23  1  0
  3  4  1  0
  3 24  1  0
  3 25  1  0
  4  5  1  0
  4 26  1  0
  4 27  1  0
  5  6  1  0
  5 18  1  0
  6  7  2  0
  6  8  2  0
  6  9  1  0
  9 17  2  0
  9 10  1  0
 10 11  2  0
 10 28  1  0
 11 12  1  0
 12 17  1  0
 12 13  1  0
 13 14  2  0
 13 29  1  0
 14 15  1  0
 14 30  1  0
 15 16  2  0
 15 31  1  0
 16 17  1  0
 18 19  1  0
 18 32  1  0
 18 33  1  0
 19 34  1  0
 19 35  1  0
M  END
>  <i_m_ct_stereo_status>  (94) 
1

>  <s_m_source_file>  (94) 
/var/tmp/pbs.5076255.sched01/tmp3foza_40/36o9al7bb4.sdf

>  <i_m_source_file_index>  (94) 
4

>  <i_lp_mmshare_version>  (94) 
48012

>  <i_f3d_flags>  (94) 
0

>  <s_epik_input>  (94) 
W0NIM11bQ0hdMVtDSDJdW0NIMl1OKFtDSDJdW0NIMl0xKVMoPU8pKD1PKWMoW2NIXW4yKWMobjIzKW5bY0hdW2NIXVtjSF0z

>  <s_epik_cmdline>  (94) 
J2VwaWtfcHl0aG9uJywgJy1waHQnLCAnMi4wJywgJy1waCcsICc3LjAnLCAnLXRuJywgJzgnLCAnLW1hJywgJzIwMCcsICctaW1hZScsICc8aW5maWxlLm1hZT4nLCAnLW9tYWUnLCAnPG91dGZpbGUubWFlPic=

>  <r_lp_tautomer_probability>  (94) 
1

>  <r_epik_Ionization_Penalty>  (94) 
7.20434e-10

>  <r_epik_Ionization_Penalty_Charging>  (94) 
0

>  <r_epik_Ionization_Penalty_Neutral>  (94) 
7.20434e-10

>  <r_epik_State_Penalty>  (94) 
-0

>  <r_epik_Charging_Adjusted_Penalty>  (94) 
0

>  <i_epik_Tot_Q>  (94) 
0

>  <i_epik_Tot_abs_Q>  (94) 
0

>  <s_lp_Force_Field>  (94) 
OPLS3e

>  <r_lp_Energy>  (94) 
15.1454

>  <b_lp_Chiralities_Consistent>  (94) 
1

>  <s_lp_Variant>  (94) 
31:0-1

>  <s_i_glide_gridfile>  (94) 
pfpi4k_grid

>  <i_i_glide_lignum>  (94) 
4

>  <i_i_glide_rotatable_bonds>  (94) 
2

>  <r_i_docking_score>  (94) 
-3.40673

>  <r_i_glide_ligand_efficiency>  (94) 
-0.179302

>  <r_i_glide_ligand_efficiency_sa>  (94) 
-0.478448

>  <r_i_glide_ligand_efficiency_ln>  (94) 
-0.863679

>  <r_i_glide_gscore>  (94) 
-3.40673

>  <r_i_glide_lipo>  (94) 
-0.690595

>  <r_i_glide_hbond>  (94) 
0

>  <r_i_glide_metal>  (94) 
-0

>  <r_i_glide_rewards>  (94) 
-1.5909

>  <r_i_glide_evdw>  (94) 
-28.3754

>  <r_i_glide_ecoul>  (94) 
-1.01342

>  <r_i_glide_erotb>  (94) 
0.459537

>  <r_i_glide_esite>  (94) 
-0.0139844

>  <r_i_glide_emodel>  (94) 
-34.0706

>  <r_i_glide_energy>  (94) 
-29.3888

>  <r_i_glide_einternal>  (94) 
3.03102

>  <r_i_glide_intrahb_reward>  (94) 
-0

>  <i_i_glide_confnum>  (94) 
5

>  <i_i_glide_posenum>  (94) 
20

>  <r_i_glide_eff_state_penalty>  (94) 
0

>  <ligand_id>  (94) 
31

>  <original_smiles>  (94) 
CC1CCN(S(=O)(=O)c2cnn3cccnc23)CC1

>  <smiles>  (94) 
[H]c1nc2c(S(=O)(=O)N3C([H])([H])C([H])([H])C([H])(C([H])([H])[H])C([H])([H])C3([H])[H])c([H])nn2c([H])c1[H]

$$$$
31:0:2
     RDKit          3D

 35 37  0  0  1  0  0  0  0  0999 V2000
    2.9910   -1.4716   -3.1699 C   0  0  0  0  0  0  0  0  0  0  0  0
    4.4535   -1.5624   -2.7327 C   0  0  0  0  0  0  0  0  0  0  0  0
    4.9940   -2.9975   -2.7604 C   0  0  0  0  0  0  0  0  0  0  0  0
    4.3523   -3.8498   -1.6517 C   0  0  0  0  0  0  0  0  0  0  0  0
    4.4875   -3.2133   -0.3331 N   0  0  0  0  0  0  0  0  0  0  0  0
    5.1798   -4.0787    0.9855 S   0  0  0  0  0  0  0  0  0  0  0  0
    6.3003   -4.8741    0.4585 O   0  0  0  0  0  0  0  0  0  0  0  0
    5.3748   -3.1409    2.0980 O   0  0  0  0  0  0  0  0  0  0  0  0
    3.9063   -5.1798    1.4969 C   0  0  0  0  0  0  0  0  0  0  0  0
    2.7081   -4.8006    2.1374 C   0  0  0  0  0  0  0  0  0  0  0  0
    1.9207   -5.8224    2.4048 N   0  0  0  0  0  0  0  0  0  0  0  0
    2.6426   -6.9118    1.9695 N   0  0  0  0  0  0  0  0  0  0  0  0
    2.2580   -8.2193    2.0457 C   0  0  0  0  0  0  0  0  0  0  0  0
    3.1147   -9.1675    1.5402 C   0  0  0  0  0  0  0  0  0  0  0  0
    4.3412   -8.7464    0.9749 C   0  0  0  0  0  0  0  0  0  0  0  0
    4.7263   -7.4759    0.8984 N   0  0  0  0  0  0  0  0  0  0  0  0
    3.8915   -6.5441    1.3888 C   0  0  0  0  0  0  0  0  0  0  0  0
    4.0390   -1.8112   -0.2258 C   0  0  0  0  0  0  0  0  0  0  0  0
    4.6866   -0.9701   -1.3370 C   0  0  0  0  0  0  0  0  0  0  0  0
    2.3307   -2.0105   -2.4955 H   0  0  0  0  0  0  0  0  0  0  0  0
    2.8357   -1.8892   -4.1637 H   0  0  0  0  0  0  0  0  0  0  0  0
    2.6428   -0.4384   -3.1744 H   0  0  0  0  0  0  0  0  0  0  0  0
    5.0179   -0.9693   -3.4487 H   0  0  0  0  0  0  0  0  0  0  0  0
    4.8021   -3.4504   -3.7346 H   0  0  0  0  0  0  0  0  0  0  0  0
    6.0791   -2.9960   -2.6268 H   0  0  0  0  0  0  0  0  0  0  0  0
    3.2887   -3.9765   -1.8536 H   0  0  0  0  0  0  0  0  0  0  0  0
    4.7919   -4.8492   -1.6417 H   0  0  0  0  0  0  0  0  0  0  0  0
    2.3907   -3.7983    2.3963 H   0  0  0  0  0  0  0  0  0  0  0  0
    1.2930   -8.4447    2.4921 H   0  0  0  0  0  0  0  0  0  0  0  0
    2.8556  -10.2237    1.5647 H   0  0  0  0  0  0  0  0  0  0  0  0
    5.0203   -9.4907    0.5672 H   0  0  0  0  0  0  0  0  0  0  0  0
    2.9533   -1.7755   -0.3022 H   0  0  0  0  0  0  0  0  0  0  0  0
    4.2841   -1.3843    0.7450 H   0  0  0  0  0  0  0  0  0  0  0  0
    5.7577   -0.8835   -1.1392 H   0  0  0  0  0  0  0  0  0  0  0  0
    4.2922    0.0422   -1.3049 H   0  0  0  0  0  0  0  0  0  0  0  0
  1  2  1  0
  1 20  1  0
  1 21  1  0
  1 22  1  0
  2 19  1  0
  2  3  1  0
  2 23  1  0
  3  4  1  0
  3 24  1  0
  3 25  1  0
  4  5  1  0
  4 26  1  0
  4 27  1  0
  5  6  1  0
  5 18  1  0
  6  7  2  0
  6  8  2  0
  6  9  1  0
  9 17  2  0
  9 10  1  0
 10 11  2  0
 10 28  1  0
 11 12  1  0
 12 17  1  0
 12 13  1  0
 13 14  2  0
 13 29  1  0
 14 15  1  0
 14 30  1  0
 15 16  2  0
 15 31  1  0
 16 17  1  0
 18 19  1  0
 18 32  1  0
 18 33  1  0
 19 34  1  0
 19 35  1  0
M  END
>  <i_m_ct_stereo_status>  (95) 
1

>  <s_m_source_file>  (95) 
/var/tmp/pbs.5076255.sched01/tmp3foza_40/36o9al7bb4.sdf

>  <i_m_source_file_index>  (95) 
4

>  <i_lp_mmshare_version>  (95) 
48012

>  <i_f3d_flags>  (95) 
0

>  <s_epik_input>  (95) 
W0NIM11bQ0hdMVtDSDJdW0NIMl1OKFtDSDJdW0NIMl0xKVMoPU8pKD1PKWMoW2NIXW4yKWMobjIzKW5bY0hdW2NIXVtjSF0z

>  <s_epik_cmdline>  (95) 
J2VwaWtfcHl0aG9uJywgJy1waHQnLCAnMi4wJywgJy1waCcsICc3LjAnLCAnLXRuJywgJzgnLCAnLW1hJywgJzIwMCcsICctaW1hZScsICc8aW5maWxlLm1hZT4nLCAnLW9tYWUnLCAnPG91dGZpbGUubWFlPic=

>  <r_lp_tautomer_probability>  (95) 
1

>  <r_epik_Ionization_Penalty>  (95) 
7.20434e-10

>  <r_epik_Ionization_Penalty_Charging>  (95) 
0

>  <r_epik_Ionization_Penalty_Neutral>  (95) 
7.20434e-10

>  <r_epik_State_Penalty>  (95) 
-0

>  <r_epik_Charging_Adjusted_Penalty>  (95) 
0

>  <i_epik_Tot_Q>  (95) 
0

>  <i_epik_Tot_abs_Q>  (95) 
0

>  <s_lp_Force_Field>  (95) 
OPLS3e

>  <r_lp_Energy>  (95) 
15.1454

>  <b_lp_Chiralities_Consistent>  (95) 
1

>  <s_lp_Variant>  (95) 
31:0-1

>  <s_i_glide_gridfile>  (95) 
pfpi4k_grid

>  <i_i_glide_lignum>  (95) 
4

>  <i_i_glide_rotatable_bonds>  (95) 
2

>  <r_i_docking_score>  (95) 
-3.18096

>  <r_i_glide_ligand_efficiency>  (95) 
-0.167419

>  <r_i_glide_ligand_efficiency_sa>  (95) 
-0.446741

>  <r_i_glide_ligand_efficiency_ln>  (95) 
-0.806442

>  <r_i_glide_gscore>  (95) 
-3.18096

>  <r_i_glide_lipo>  (95) 
-0.202649

>  <r_i_glide_hbond>  (95) 
0

>  <r_i_glide_metal>  (95) 
-0

>  <r_i_glide_rewards>  (95) 
-1.68806

>  <r_i_glide_evdw>  (95) 
-25.0591

>  <r_i_glide_ecoul>  (95) 
-3.29201

>  <r_i_glide_erotb>  (95) 
0.459537

>  <r_i_glide_esite>  (95) 
-0.00303773

>  <r_i_glide_emodel>  (95) 
-32.9463

>  <r_i_glide_energy>  (95) 
-28.3511

>  <r_i_glide_einternal>  (95) 
2.61322

>  <r_i_glide_intrahb_reward>  (95) 
-0

>  <i_i_glide_confnum>  (95) 
5

>  <i_i_glide_posenum>  (95) 
30

>  <r_i_glide_eff_state_penalty>  (95) 
0

>  <ligand_id>  (95) 
31

>  <original_smiles>  (95) 
CC1CCN(S(=O)(=O)c2cnn3cccnc23)CC1

>  <smiles>  (95) 
[H]c1nc2c(S(=O)(=O)N3C([H])([H])C([H])([H])C([H])(C([H])([H])[H])C([H])([H])C3([H])[H])c([H])nn2c([H])c1[H]

$$$$
32:0:0
     RDKit          3D

 77 85  0  0  1  0  0  0  0  0999 V2000
    5.5636    0.8946    5.5804 C   0  0  0  0  0  0  0  0  0  0  0  0
    4.9169   -0.3845    4.9488 C   0  0  2  0  0  0  0  0  0  0  0  0
    5.3431   -0.4152    3.4366 C   0  0  0  0  0  0  0  0  0  0  0  0
    4.4330   -1.3860    2.7118 C   0  0  2  0  0  0  0  0  0  0  0  0
    5.0393   -2.8816    3.2430 C   0  0  1  0  0  0  0  0  0  0  0  0
    5.4222   -3.0099    4.5972 O   0  0  0  0  0  0  0  0  0  0  0  0
    4.6279   -3.7117    5.5091 C   0  0  0  0  0  0  0  0  0  0  0  0
    3.6859   -2.9270    6.2026 O   0  0  0  0  0  0  0  0  0  0  0  0
    2.7200   -2.2235    5.4362 C   0  0  1  0  0  0  0  0  0  0  0  0
    2.1781   -3.1741    4.2685 C   0  0  0  0  0  0  0  0  0  0  0  0
    1.3991   -2.7174    3.0376 C   0  0  0  0  0  0  0  0  0  0  0  0
    2.1158   -1.8088    2.0366 C   0  0  2  0  0  0  0  0  0  0  0  0
    3.1803   -2.5023    1.1598 C   0  0  1  0  0  0  0  0  0  0  0  0
    3.5194   -2.5673   -0.2897 C   0  0  2  0  0  0  0  0  0  0  0  0
    4.4751   -3.7064   -0.7105 C   0  0  2  0  0  0  0  0  0  0  0  0
    5.4645   -4.1602    0.2810 O   0  0  0  0  0  0  0  0  0  0  0  0
    5.2834   -4.7921    1.5465 C   0  0  0  0  0  0  0  0  0  0  0  0
    4.4544   -6.0688    1.2873 C   0  0  0  0  0  0  0  0  0  0  0  0
    6.7003   -5.1954    2.0040 C   0  0  0  0  0  0  0  0  0  0  0  0
    4.6051   -4.1190    2.6362 O   0  0  0  0  0  0  0  0  0  0  0  0
    5.3663   -2.9564   -1.6669 C   0  0  2  0  0  0  0  0  0  0  0  0
    6.5244   -2.2567   -1.1361 O   0  0  0  0  0  0  0  0  0  0  0  0
    5.3268   -1.4525   -1.3205 C   0  0  2  0  0  0  0  0  0  0  0  0
    4.3305   -1.2724   -0.2142 C   0  0  2  0  0  0  0  0  0  0  0  0
    4.5726   -1.7644    1.2745 C   0  0  1  0  0  0  0  0  0  0  0  0
    2.9206   -0.7286    2.7903 C   0  0  2  0  0  0  0  0  0  0  0  0
    2.7223    0.4646    1.7668 C   0  0  0  0  0  0  0  0  0  0  0  0
    2.4769   -0.0442    4.2052 C   0  0  1  0  0  0  0  0  0  0  0  0
    2.7450    1.5228    4.2472 C   0  0  0  0  0  0  0  0  0  0  0  0
    0.9447   -0.1016    4.6023 C   0  0  0  0  0  0  0  0  0  0  0  0
    0.4114   -1.1277    5.6539 C   0  0  0  0  0  0  0  0  0  0  0  0
    1.4433   -2.0437    6.3478 C   0  0  1  0  0  0  0  0  0  0  0  0
    0.7613   -3.2235    6.7610 O   0  0  0  0  0  0  0  0  0  0  0  0
    3.3535   -0.6945    5.2898 C   0  0  2  0  0  0  0  0  0  0  0  0
    3.1982   -0.0363    6.5662 N   0  0  0  0  0  0  0  0  0  0  0  0
    5.1429    1.8394    5.2490 H   0  0  0  0  0  0  0  0  0  0  0  0
    6.6244    0.9306    5.3123 H   0  0  0  0  0  0  0  0  0  0  0  0
    5.5493    0.8926    6.6711 H   0  0  0  0  0  0  0  0  0  0  0  0
    5.5027   -1.0729    5.5366 H   0  0  0  0  0  0  0  0  0  0  0  0
    5.2600    0.5550    2.9787 H   0  0  0  0  0  0  0  0  0  0  0  0
    6.3999   -0.6633    3.3216 H   0  0  0  0  0  0  0  0  0  0  0  0
    6.0767   -2.8556    2.9366 H   0  0  0  0  0  0  0  0  0  0  0  0
    4.2508   -4.6594    5.1245 H   0  0  0  0  0  0  0  0  0  0  0  0
    5.3247   -4.0132    6.2953 H   0  0  0  0  0  0  0  0  0  0  0  0
    2.8740   -3.8618    3.8682 H   0  0  0  0  0  0  0  0  0  0  0  0
    1.5486   -3.9436    4.7018 H   0  0  0  0  0  0  0  0  0  0  0  0
    1.1120   -3.6314    2.5223 H   0  0  0  0  0  0  0  0  0  0  0  0
    0.4332   -2.2976    3.2995 H   0  0  0  0  0  0  0  0  0  0  0  0
    1.3061   -1.4323    1.4110 H   0  0  0  0  0  0  0  0  0  0  0  0
    3.0420   -3.5691    1.2978 H   0  0  0  0  0  0  0  0  0  0  0  0
    2.6307   -2.4594   -0.9336 H   0  0  0  0  0  0  0  0  0  0  0  0
    3.9728   -4.5359   -1.1927 H   0  0  0  0  0  0  0  0  0  0  0  0
    3.4427   -5.7975    0.9787 H   0  0  0  0  0  0  0  0  0  0  0  0
    4.3935   -6.6658    2.1954 H   0  0  0  0  0  0  0  0  0  0  0  0
    4.9128   -6.6594    0.4938 H   0  0  0  0  0  0  0  0  0  0  0  0
    7.3577   -4.3231    1.9937 H   0  0  0  0  0  0  0  0  0  0  0  0
    7.1228   -5.9189    1.3057 H   0  0  0  0  0  0  0  0  0  0  0  0
    6.6781   -5.6248    3.0037 H   0  0  0  0  0  0  0  0  0  0  0  0
    5.4453   -3.2725   -2.7102 H   0  0  0  0  0  0  0  0  0  0  0  0
    5.3591   -0.7427   -2.1446 H   0  0  0  0  0  0  0  0  0  0  0  0
    3.7204   -0.4097   -0.3967 H   0  0  0  0  0  0  0  0  0  0  0  0
    5.5653   -2.1799    1.1215 H   0  0  0  0  0  0  0  0  0  0  0  0
    1.8859    1.1158    2.0026 H   0  0  0  0  0  0  0  0  0  0  0  0
    2.3440    0.1955    0.7896 H   0  0  0  0  0  0  0  0  0  0  0  0
    3.6155    1.0683    1.6117 H   0  0  0  0  0  0  0  0  0  0  0  0
    2.7649    1.9541    5.2476 H   0  0  0  0  0  0  0  0  0  0  0  0
    1.9478    2.1017    3.7757 H   0  0  0  0  0  0  0  0  0  0  0  0
    3.6567    1.8360    3.7465 H   0  0  0  0  0  0  0  0  0  0  0  0
    0.6284    0.8569    5.0022 H   0  0  0  0  0  0  0  0  0  0  0  0
    0.3445   -0.1615    3.6858 H   0  0  0  0  0  0  0  0  0  0  0  0
   -0.1100   -0.5698    6.4350 H   0  0  0  0  0  0  0  0  0  0  0  0
   -0.3800   -1.7210    5.1982 H   0  0  0  0  0  0  0  0  0  0  0  0
    1.6841   -1.6429    7.3267 H   0  0  0  0  0  0  0  0  0  0  0  0
    0.6311   -3.7871    6.0311 H   0  0  0  0  0  0  0  0  0  0  0  0
    2.2282   -0.0407    6.8600 H   0  0  0  0  0  0  0  0  0  0  0  0
    3.5060    0.9283    6.4929 H   0  0  0  0  0  0  0  0  0  0  0  0
    3.7616   -0.5071    7.2685 H   0  0  0  0  0  0  0  0  0  0  0  0
  1  2  1  0
  1 36  1  0
  1 37  1  0
  1 38  1  0
  2 34  1  0
  2  3  1  0
  2 39  1  1
  4  3  1  6
  3 40  1  0
  3 41  1  0
  4 25  1  0
  4 26  1  0
  4  5  1  0
  5 20  1  0
  5  6  1  0
  5 42  1  6
  6  7  1  0
  7  8  1  0
  7 43  1  0
  7 44  1  0
  8  9  1  0
  9 32  1  0
  9 34  1  0
  9 10  1  6
 10 11  1  0
 10 45  1  0
 10 46  1  0
 11 12  1  0
 11 47  1  0
 11 48  1  0
 12 13  1  0
 12 26  1  0
 12 49  1  6
 13 25  1  0
 13 14  1  0
 13 50  1  1
 14 24  1  0
 14 15  1  0
 14 51  1  6
 15 16  1  0
 15 21  1  0
 15 52  1  6
 16 17  1  0
 17 18  1  0
 17 19  1  0
 17 20  1  0
 18 53  1  0
 18 54  1  0
 18 55  1  0
 19 56  1  0
 19 57  1  0
 19 58  1  0
 21 23  1  0
 21 22  1  0
 21 59  1  6
 22 23  1  0
 23 24  1  0
 23 60  1  6
 24 25  1  0
 24 61  1  1
 25 62  1  6
 26 27  1  6
 26 28  1  0
 27 63  1  0
 27 64  1  0
 27 65  1  0
 28 29  1  6
 28 30  1  0
 28 34  1  0
 29 66  1  0
 29 67  1  0
 29 68  1  0
 30 31  1  0
 30 69  1  0
 30 70  1  0
 31 32  1  0
 31 71  1  0
 31 72  1  0
 32 33  1  0
 32 73  1  1
 33 74  1  0
 34 35  1  1
 35 75  1  0
 35 76  1  0
 35 77  1  0
M  CHG  1  35   1
M  END
>  <i_m_ct_stereo_status>  (96) 
1

>  <s_m_source_file>  (96) 
/var/tmp/pbs.5076255.sched01/tmp3foza_40/36o9al7bb4.sdf

>  <i_m_source_file_index>  (96) 
5

>  <i_lp_mmshare_version>  (96) 
48012

>  <i_f3d_flags>  (96) 
0

>  <s_epik_input>  (96) 
W0NAXTEyM1tDQEhdNE9bQ0gyXU9bQ0BAXTU2W0NAQF0oW05IMl0pKFtDQEhdKFtDSDNdKVtDSDJdMSlbQ0BdKFtDSDNdKShbQ0gyXVtDSDJdW0NASF02W09IXSlbQ0BdMyhbQ0gzXSlbQ0BIXShbQ0gyXVtDSDJdNSlbQ0BIXTdbQ0BASF04W0NASF0oT0MoTzQpKFtDSDNdKVtDSDNdKVtDQEhdOVtDQEhdKE85KVtDQEBIXThbQ0BASF0yNw==

>  <s_epik_cmdline>  (96) 
J2VwaWtfcHl0aG9uJywgJy1waHQnLCAnMi4wJywgJy1waCcsICc3LjAnLCAnLXRuJywgJzgnLCAnLW1hJywgJzIwMCcsICctaW1hZScsICc8aW5maWxlLm1hZT4nLCAnLW9tYWUnLCAnPG91dGZpbGUubWFlPic=

>  <r_epik_Ionization_Penalty>  (96) 
0.00168025

>  <r_epik_Ionization_Penalty_Charging>  (96) 
0.00168017

>  <r_epik_Ionization_Penalty_Neutral>  (96) 
8.18343e-08

>  <r_epik_State_Penalty>  (96) 
0.00113428

>  <r_epik_Charging_Adjusted_Penalty>  (96) 
0.00281445

>  <i_epik_Tot_Q>  (96) 
1

>  <i_epik_Tot_abs_Q>  (96) 
1

>  <s_epik_Chemistry_Notes>  (96) 
This compound contains an acetal/aminal-like group ( X-CH(R)-Y where X, Y are N, S, or O) that may be acid/base labile, releasing an aldehyde.

>  <s_lp_Force_Field>  (96) 
OPLS3e

>  <r_lp_Energy>  (96) 
308.768

>  <b_lp_Chiralities_Consistent>  (96) 
1

>  <s_lp_Variant>  (96) 
32:0-1

>  <s_i_glide_gridfile>  (96) 
pfpi4k_grid

>  <i_i_glide_lignum>  (96) 
5

>  <i_i_glide_rotatable_bonds>  (96) 
1

>  <r_i_docking_score>  (96) 
-2.90992

>  <r_i_glide_ligand_efficiency>  (96) 
-0.0831405

>  <r_i_glide_ligand_efficiency_sa>  (96) 
-0.271958

>  <r_i_glide_ligand_efficiency_ln>  (96) 
-0.638792

>  <r_i_glide_gscore>  (96) 
-2.90992

>  <r_i_glide_lipo>  (96) 
-0.520137

>  <r_i_glide_hbond>  (96) 
-0.121329

>  <r_i_glide_metal>  (96) 
-0

>  <r_i_glide_rewards>  (96) 
-0.210651

>  <r_i_glide_evdw>  (96) 
-27.7206

>  <r_i_glide_ecoul>  (96) 
-4.47847

>  <r_i_glide_erotb>  (96) 
0

>  <r_i_glide_esite>  (96) 
0

>  <r_i_glide_emodel>  (96) 
-37.6616

>  <r_i_glide_energy>  (96) 
-32.1991

>  <r_i_glide_einternal>  (96) 
0.087746

>  <r_i_glide_intrahb_reward>  (96) 
-0

>  <i_i_glide_confnum>  (96) 
1

>  <i_i_glide_posenum>  (96) 
4

>  <r_i_glide_eff_state_penalty>  (96) 
0

>  <ligand_id>  (96) 
32

>  <original_smiles>  (96) 
CC1CC23C4OCOC56CCC(C7C8C(OC(C)(C)O4)C4OC4C8C72)C3(C)C(C)(CCC5O)C16N

>  <smiles>  (96) 
[H]OC1([H])C([H])([H])C([H])([H])C2(C([H])([H])[H])C3(C([H])([H])[H])C4([H])C([H])([H])C([H])([H])C15OC([H])([H])OC1([H])OC(C([H])([H])[H])(C([H])([H])[H])OC6([H])C7([H])OC7([H])C7([H])C6([H])C4([H])C7([H])C13C([H])([H])C([H])(C([H])([H])[H])C52[N+]([H])([H])[H]

$$$$
32:0:1
     RDKit          3D

 77 85  0  0  1  0  0  0  0  0999 V2000
    5.5363    0.9175    5.5820 C   0  0  0  0  0  0  0  0  0  0  0  0
    4.8931   -0.3712    4.9680 C   0  0  2  0  0  0  0  0  0  0  0  0
    5.3003   -0.4123    3.4522 C   0  0  0  0  0  0  0  0  0  0  0  0
    4.3873   -1.3931    2.7460 C   0  0  2  0  0  0  0  0  0  0  0  0
    5.0116   -2.8796    3.2764 C   0  0  1  0  0  0  0  0  0  0  0  0
    5.4169   -2.9951    4.6268 O   0  0  0  0  0  0  0  0  0  0  0  0
    4.6388   -3.6979    5.5539 C   0  0  0  0  0  0  0  0  0  0  0  0
    3.6987   -2.9173    6.2542 O   0  0  0  0  0  0  0  0  0  0  0  0
    2.7198   -2.2232    5.4926 C   0  0  1  0  0  0  0  0  0  0  0  0
    2.1664   -3.1858    4.3355 C   0  0  0  0  0  0  0  0  0  0  0  0
    1.3641   -2.7439    3.1116 C   0  0  0  0  0  0  0  0  0  0  0  0
    2.0616   -1.8335    2.0984 C   0  0  2  0  0  0  0  0  0  0  0  0
    3.1217   -2.5270    1.2162 C   0  0  1  0  0  0  0  0  0  0  0  0
    3.4487   -2.6006   -0.2361 C   0  0  2  0  0  0  0  0  0  0  0  0
    4.4064   -3.7318   -0.6624 C   0  0  2  0  0  0  0  0  0  0  0  0
    5.4114   -4.1730    0.3183 O   0  0  0  0  0  0  0  0  0  0  0  0
    5.2498   -4.7975    1.5898 C   0  0  0  0  0  0  0  0  0  0  0  0
    4.4279   -6.0826    1.3489 C   0  0  0  0  0  0  0  0  0  0  0  0
    6.6758   -5.1857    2.0300 C   0  0  0  0  0  0  0  0  0  0  0  0
    4.5809   -4.1243    2.6842 O   0  0  0  0  0  0  0  0  0  0  0  0
    5.2753   -2.9777   -1.6360 C   0  0  2  0  0  0  0  0  0  0  0  0
    6.4342   -2.2640   -1.1261 O   0  0  0  0  0  0  0  0  0  0  0  0
    5.2263   -1.4710   -1.2976 C   0  0  2  0  0  0  0  0  0  0  0  0
    4.2448   -1.2962   -0.1785 C   0  0  2  0  0  0  0  0  0  0  0  0
    4.5100   -1.7785    1.3098 C   0  0  1  0  0  0  0  0  0  0  0  0
    2.8696   -0.7455    2.8391 C   0  0  2  0  0  0  0  0  0  0  0  0
    2.6482    0.4420    1.8131 C   0  0  0  0  0  0  0  0  0  0  0  0
    2.4400   -0.0550    4.2557 C   0  0  1  0  0  0  0  0  0  0  0  0
    2.6959    1.5139    4.2844 C   0  0  0  0  0  0  0  0  0  0  0  0
    0.9146   -0.1232    4.6768 C   0  0  0  0  0  0  0  0  0  0  0  0
    0.4074   -1.1472    5.7441 C   0  0  0  0  0  0  0  0  0  0  0  0
    1.4615   -2.0459    6.4268 C   0  0  1  0  0  0  0  0  0  0  0  0
    0.8168   -3.2389    6.8489 O   0  0  0  0  0  0  0  0  0  0  0  0
    3.3376   -0.6895    5.3317 C   0  0  2  0  0  0  0  0  0  0  0  0
    3.1943   -0.0241    6.6052 N   0  0  0  0  0  0  0  0  0  0  0  0
    5.1030    1.8561    5.2489 H   0  0  0  0  0  0  0  0  0  0  0  0
    6.5928    0.9588    5.2989 H   0  0  0  0  0  0  0  0  0  0  0  0
    5.5369    0.9232    6.6726 H   0  0  0  0  0  0  0  0  0  0  0  0
    5.4903   -1.0521    5.5554 H   0  0  0  0  0  0  0  0  0  0  0  0
    5.2074    0.5455    2.9819 H   0  0  0  0  0  0  0  0  0  0  0  0
    6.3555   -0.6609    3.3313 H   0  0  0  0  0  0  0  0  0  0  0  0
    6.0469   -2.8471    2.9549 H   0  0  0  0  0  0  0  0  0  0  0  0
    4.2665   -4.6492    5.1775 H   0  0  0  0  0  0  0  0  0  0  0  0
    5.3498   -3.9879    6.3330 H   0  0  0  0  0  0  0  0  0  0  0  0
    2.8608   -3.8757    3.9368 H   0  0  0  0  0  0  0  0  0  0  0  0
    1.5422   -3.9553    4.7800 H   0  0  0  0  0  0  0  0  0  0  0  0
    1.0790   -3.6553    2.5845 H   0  0  0  0  0  0  0  0  0  0  0  0
    0.3984   -2.3336    3.3894 H   0  0  0  0  0  0  0  0  0  0  0  0
    1.2404   -1.4637    1.4845 H   0  0  0  0  0  0  0  0  0  0  0  0
    2.9942   -3.5946    1.3635 H   0  0  0  0  0  0  0  0  0  0  0  0
    2.5551   -2.5088   -0.8746 H   0  0  0  0  0  0  0  0  0  0  0  0
    3.9006   -4.5674   -1.1302 H   0  0  0  0  0  0  0  0  0  0  0  0
    3.4104   -5.8206    1.0522 H   0  0  0  0  0  0  0  0  0  0  0  0
    4.3848   -6.6731    2.2615 H   0  0  0  0  0  0  0  0  0  0  0  0
    4.8812   -6.6731    0.5530 H   0  0  0  0  0  0  0  0  0  0  0  0
    7.3254   -4.3073    2.0050 H   0  0  0  0  0  0  0  0  0  0  0  0
    7.0944   -5.9091    1.3301 H   0  0  0  0  0  0  0  0  0  0  0  0
    6.6705   -5.6085    3.0322 H   0  0  0  0  0  0  0  0  0  0  0  0
    5.3409   -3.2993   -2.6798 H   0  0  0  0  0  0  0  0  0  0  0  0
    5.2390   -0.7668   -2.1272 H   0  0  0  0  0  0  0  0  0  0  0  0
    3.6155   -0.4471   -0.3562 H   0  0  0  0  0  0  0  0  0  0  0  0
    5.5044   -2.1865    1.1450 H   0  0  0  0  0  0  0  0  0  0  0  0
    1.8086    1.0861    2.0560 H   0  0  0  0  0  0  0  0  0  0  0  0
    2.2577    0.1678    0.8422 H   0  0  0  0  0  0  0  0  0  0  0  0
    3.5337    1.0537    1.6438 H   0  0  0  0  0  0  0  0  0  0  0  0
    2.7253    1.9522    5.2818 H   0  0  0  0  0  0  0  0  0  0  0  0
    1.8873    2.0827    3.8201 H   0  0  0  0  0  0  0  0  0  0  0  0
    3.5983    1.8296    3.7691 H   0  0  0  0  0  0  0  0  0  0  0  0
    0.5943    0.8351    5.0737 H   0  0  0  0  0  0  0  0  0  0  0  0
    0.3012   -0.1975    3.7702 H   0  0  0  0  0  0  0  0  0  0  0  0
   -0.1130   -0.5916    6.5273 H   0  0  0  0  0  0  0  0  0  0  0  0
   -0.3798   -1.7581    5.3043 H   0  0  0  0  0  0  0  0  0  0  0  0
    1.7107   -1.6421    7.4026 H   0  0  0  0  0  0  0  0  0  0  0  0
    1.4474   -3.7709    7.2953 H   0  0  0  0  0  0  0  0  0  0  0  0
    2.2281   -0.0330    6.9107 H   0  0  0  0  0  0  0  0  0  0  0  0
    3.4930    0.9426    6.5198 H   0  0  0  0  0  0  0  0  0  0  0  0
    3.7715   -0.4840    7.3033 H   0  0  0  0  0  0  0  0  0  0  0  0
  1  2  1  0
  1 36  1  0
  1 37  1  0
  1 38  1  0
  2 34  1  0
  2  3  1  0
  2 39  1  1
  4  3  1  6
  3 40  1  0
  3 41  1  0
  4 25  1  0
  4 26  1  0
  4  5  1  0
  5 20  1  0
  5  6  1  0
  5 42  1  6
  6  7  1  0
  7  8  1  0
  7 43  1  0
  7 44  1  0
  8  9  1  0
  9 32  1  0
  9 34  1  0
  9 10  1  6
 10 11  1  0
 10 45  1  0
 10 46  1  0
 11 12  1  0
 11 47  1  0
 11 48  1  0
 12 13  1  0
 12 26  1  0
 12 49  1  6
 13 25  1  0
 13 14  1  0
 13 50  1  1
 14 24  1  0
 14 15  1  0
 14 51  1  6
 15 16  1  0
 15 21  1  0
 15 52  1  6
 16 17  1  0
 17 18  1  0
 17 19  1  0
 17 20  1  0
 18 53  1  0
 18 54  1  0
 18 55  1  0
 19 56  1  0
 19 57  1  0
 19 58  1  0
 21 23  1  0
 21 22  1  0
 21 59  1  6
 22 23  1  0
 23 24  1  0
 23 60  1  6
 24 25  1  0
 24 61  1  1
 25 62  1  6
 26 27  1  6
 26 28  1  0
 27 63  1  0
 27 64  1  0
 27 65  1  0
 28 29  1  6
 28 30  1  0
 28 34  1  0
 29 66  1  0
 29 67  1  0
 29 68  1  0
 30 31  1  0
 30 69  1  0
 30 70  1  0
 31 32  1  0
 31 71  1  0
 31 72  1  0
 32 33  1  0
 32 73  1  1
 33 74  1  0
 34 35  1  1
 35 75  1  0
 35 76  1  0
 35 77  1  0
M  CHG  1  35   1
M  END
>  <i_m_ct_stereo_status>  (97) 
1

>  <s_m_source_file>  (97) 
/var/tmp/pbs.5076255.sched01/tmp3foza_40/36o9al7bb4.sdf

>  <i_m_source_file_index>  (97) 
5

>  <i_lp_mmshare_version>  (97) 
48012

>  <i_f3d_flags>  (97) 
0

>  <s_epik_input>  (97) 
W0NAXTEyM1tDQEhdNE9bQ0gyXU9bQ0BAXTU2W0NAQF0oW05IMl0pKFtDQEhdKFtDSDNdKVtDSDJdMSlbQ0BdKFtDSDNdKShbQ0gyXVtDSDJdW0NASF02W09IXSlbQ0BdMyhbQ0gzXSlbQ0BIXShbQ0gyXVtDSDJdNSlbQ0BIXTdbQ0BASF04W0NASF0oT0MoTzQpKFtDSDNdKVtDSDNdKVtDQEhdOVtDQEhdKE85KVtDQEBIXThbQ0BASF0yNw==

>  <s_epik_cmdline>  (97) 
J2VwaWtfcHl0aG9uJywgJy1waHQnLCAnMi4wJywgJy1waCcsICc3LjAnLCAnLXRuJywgJzgnLCAnLW1hJywgJzIwMCcsICctaW1hZScsICc8aW5maWxlLm1hZT4nLCAnLW9tYWUnLCAnPG91dGZpbGUubWFlPic=

>  <r_epik_Ionization_Penalty>  (97) 
0.00168025

>  <r_epik_Ionization_Penalty_Charging>  (97) 
0.00168017

>  <r_epik_Ionization_Penalty_Neutral>  (97) 
8.18343e-08

>  <r_epik_State_Penalty>  (97) 
0.00113428

>  <r_epik_Charging_Adjusted_Penalty>  (97) 
0.00281445

>  <i_epik_Tot_Q>  (97) 
1

>  <i_epik_Tot_abs_Q>  (97) 
1

>  <s_epik_Chemistry_Notes>  (97) 
This compound contains an acetal/aminal-like group ( X-CH(R)-Y where X, Y are N, S, or O) that may be acid/base labile, releasing an aldehyde.

>  <s_lp_Force_Field>  (97) 
OPLS3e

>  <r_lp_Energy>  (97) 
308.768

>  <b_lp_Chiralities_Consistent>  (97) 
1

>  <s_lp_Variant>  (97) 
32:0-1

>  <s_i_glide_gridfile>  (97) 
pfpi4k_grid

>  <i_i_glide_lignum>  (97) 
5

>  <i_i_glide_rotatable_bonds>  (97) 
1

>  <r_i_docking_score>  (97) 
-2.77083

>  <r_i_glide_ligand_efficiency>  (97) 
-0.0791665

>  <r_i_glide_ligand_efficiency_sa>  (97) 
-0.258959

>  <r_i_glide_ligand_efficiency_ln>  (97) 
-0.608259

>  <r_i_glide_gscore>  (97) 
-2.77083

>  <r_i_glide_lipo>  (97) 
-0.484219

>  <r_i_glide_hbond>  (97) 
-0.0967207

>  <r_i_glide_metal>  (97) 
-0

>  <r_i_glide_rewards>  (97) 
-0.205264

>  <r_i_glide_evdw>  (97) 
-27.7154

>  <r_i_glide_ecoul>  (97) 
-3.99236

>  <r_i_glide_erotb>  (97) 
0

>  <r_i_glide_esite>  (97) 
0

>  <r_i_glide_emodel>  (97) 
-36.9011

>  <r_i_glide_energy>  (97) 
-31.7078

>  <r_i_glide_einternal>  (97) 
0.344647

>  <r_i_glide_intrahb_reward>  (97) 
-0

>  <i_i_glide_confnum>  (97) 
1

>  <i_i_glide_posenum>  (97) 
23

>  <r_i_glide_eff_state_penalty>  (97) 
0

>  <ligand_id>  (97) 
32

>  <original_smiles>  (97) 
CC1CC23C4OCOC56CCC(C7C8C(OC(C)(C)O4)C4OC4C8C72)C3(C)C(C)(CCC5O)C16N

>  <smiles>  (97) 
[H]OC1([H])C([H])([H])C([H])([H])C2(C([H])([H])[H])C3(C([H])([H])[H])C4([H])C([H])([H])C([H])([H])C15OC([H])([H])OC1([H])OC(C([H])([H])[H])(C([H])([H])[H])OC6([H])C7([H])OC7([H])C7([H])C6([H])C4([H])C7([H])C13C([H])([H])C([H])(C([H])([H])[H])C52[N+]([H])([H])[H]

$$$$
32:0:2
     RDKit          3D

 77 85  0  0  1  0  0  0  0  0999 V2000
    3.1620   -2.4291    7.7737 C   0  0  0  0  0  0  0  0  0  0  0  0
    3.1578   -1.4924    6.5252 C   0  0  2  0  0  0  0  0  0  0  0  0
    1.9030   -0.5575    6.6677 C   0  0  0  0  0  0  0  0  0  0  0  0
    1.6463    0.0809    5.3148 C   0  0  2  0  0  0  0  0  0  0  0  0
    2.8888    1.2447    5.2508 C   0  0  1  0  0  0  0  0  0  0  0  0
    4.1660    0.9021    5.7442 O   0  0  0  0  0  0  0  0  0  0  0  0
    5.2064    0.6075    4.8531 C   0  0  0  0  0  0  0  0  0  0  0  0
    5.3330   -0.7421    4.4805 O   0  0  0  0  0  0  0  0  0  0  0  0
    4.2359   -1.3698    3.8244 C   0  0  1  0  0  0  0  0  0  0  0  0
    3.6170   -0.3586    2.7287 C   0  0  0  0  0  0  0  0  0  0  0  0
    2.2404   -0.4951    2.0589 C   0  0  0  0  0  0  0  0  0  0  0  0
    1.0235   -0.3810    2.9751 C   0  0  2  0  0  0  0  0  0  0  0  0
    0.6966    1.0612    3.4648 C   0  0  1  0  0  0  0  0  0  0  0  0
   -0.5151    1.9293    3.5098 C   0  0  2  0  0  0  0  0  0  0  0  0
   -0.2228    3.4359    3.7722 C   0  0  2  0  0  0  0  0  0  0  0  0
    0.9562    3.7744    4.5814 O   0  0  0  0  0  0  0  0  0  0  0  0
    2.3469    3.5800    4.3133 C   0  0  0  0  0  0  0  0  0  0  0  0
    2.6318    4.2578    2.9604 C   0  0  0  0  0  0  0  0  0  0  0  0
    3.0804    4.3295    5.4393 C   0  0  0  0  0  0  0  0  0  0  0  0
    2.9024    2.2434    4.2049 O   0  0  0  0  0  0  0  0  0  0  0  0
   -1.3349    3.7346    4.7583 C   0  0  2  0  0  0  0  0  0  0  0  0
   -1.0738    3.5149    6.1534 O   0  0  0  0  0  0  0  0  0  0  0  0
   -1.7485    2.4482    5.4769 C   0  0  2  0  0  0  0  0  0  0  0  0
   -0.9730    1.3037    4.8301 C   0  0  2  0  0  0  0  0  0  0  0  0
    0.5720    1.0979    5.0418 C   0  0  1  0  0  0  0  0  0  0  0  0
    1.2419   -1.1565    4.2945 C   0  0  2  0  0  0  0  0  0  0  0  0
   -0.2379   -1.6662    4.5259 C   0  0  0  0  0  0  0  0  0  0  0  0
    2.1004   -2.5456    4.4357 C   0  0  1  0  0  0  0  0  0  0  0  0
    1.4176   -3.6111    5.3937 C   0  0  0  0  0  0  0  0  0  0  0  0
    2.3151   -3.4014    3.1208 C   0  0  0  0  0  0  0  0  0  0  0  0
    3.6728   -3.3818    2.3422 C   0  0  0  0  0  0  0  0  0  0  0  0
    4.8203   -2.5227    2.9220 C   0  0  1  0  0  0  0  0  0  0  0  0
    5.6877   -2.1454    1.8643 O   0  0  0  0  0  0  0  0  0  0  0  0
    3.4370   -2.1244    5.0544 C   0  0  2  0  0  0  0  0  0  0  0  0
    4.2425   -3.3188    5.4201 N   0  0  0  0  0  0  0  0  0  0  0  0
    2.3677   -3.1711    7.7963 H   0  0  0  0  0  0  0  0  0  0  0  0
    3.0302   -1.8279    8.6749 H   0  0  0  0  0  0  0  0  0  0  0  0
    4.1108   -2.9486    7.9168 H   0  0  0  0  0  0  0  0  0  0  0  0
    4.0621   -0.9700    6.8044 H   0  0  0  0  0  0  0  0  0  0  0  0
    1.0284   -1.1142    7.0024 H   0  0  0  0  0  0  0  0  0  0  0  0
    2.0694    0.1905    7.4432 H   0  0  0  0  0  0  0  0  0  0  0  0
    2.7146    1.8611    6.1263 H   0  0  0  0  0  0  0  0  0  0  0  0
    5.2702    1.3140    4.0290 H   0  0  0  0  0  0  0  0  0  0  0  0
    6.1193    0.7938    5.4206 H   0  0  0  0  0  0  0  0  0  0  0  0
    3.6690    0.6679    2.9725 H   0  0  0  0  0  0  0  0  0  0  0  0
    4.3015   -0.2839    1.8923 H   0  0  0  0  0  0  0  0  0  0  0  0
    2.1580    0.2911    1.3058 H   0  0  0  0  0  0  0  0  0  0  0  0
    2.1725   -1.3920    1.4525 H   0  0  0  0  0  0  0  0  0  0  0  0
    0.2160   -0.7530    2.3434 H   0  0  0  0  0  0  0  0  0  0  0  0
    1.3149    1.7214    2.8746 H   0  0  0  0  0  0  0  0  0  0  0  0
   -1.2075    1.7365    2.6848 H   0  0  0  0  0  0  0  0  0  0  0  0
   -0.3183    4.0600    2.8861 H   0  0  0  0  0  0  0  0  0  0  0  0
    2.1338    3.7239    2.1488 H   0  0  0  0  0  0  0  0  0  0  0  0
    3.7021    4.2602    2.7627 H   0  0  0  0  0  0  0  0  0  0  0  0
    2.2694    5.2880    2.9683 H   0  0  0  0  0  0  0  0  0  0  0  0
    2.7262    3.9938    6.4141 H   0  0  0  0  0  0  0  0  0  0  0  0
    2.8618    5.3968    5.3708 H   0  0  0  0  0  0  0  0  0  0  0  0
    4.1545    4.1758    5.3668 H   0  0  0  0  0  0  0  0  0  0  0  0
   -2.0827    4.4861    4.5060 H   0  0  0  0  0  0  0  0  0  0  0  0
   -2.8012    2.3121    5.7120 H   0  0  0  0  0  0  0  0  0  0  0  0
   -1.6316    0.4704    4.6516 H   0  0  0  0  0  0  0  0  0  0  0  0
    0.7526    1.9432    5.6943 H   0  0  0  0  0  0  0  0  0  0  0  0
   -0.4267   -2.6544    4.1208 H   0  0  0  0  0  0  0  0  0  0  0  0
   -0.9969   -1.1818    3.9322 H   0  0  0  0  0  0  0  0  0  0  0  0
   -0.5648   -1.6328    5.5650 H   0  0  0  0  0  0  0  0  0  0  0  0
    2.0881   -4.3856    5.7579 H   0  0  0  0  0  0  0  0  0  0  0  0
    0.6500   -4.1974    4.8884 H   0  0  0  0  0  0  0  0  0  0  0  0
    0.9252   -3.1791    6.2599 H   0  0  0  0  0  0  0  0  0  0  0  0
    2.1806   -4.4596    3.3460 H   0  0  0  0  0  0  0  0  0  0  0  0
    1.4873   -3.2095    2.4383 H   0  0  0  0  0  0  0  0  0  0  0  0
    4.0356   -4.4062    2.2579 H   0  0  0  0  0  0  0  0  0  0  0  0
    3.4780   -3.1006    1.3057 H   0  0  0  0  0  0  0  0  0  0  0  0
    5.5070   -3.1653    3.4675 H   0  0  0  0  0  0  0  0  0  0  0  0
    5.2055   -1.6367    1.2304 H   0  0  0  0  0  0  0  0  0  0  0  0
    4.3946   -3.8979    4.6073 H   0  0  0  0  0  0  0  0  0  0  0  0
    3.7449   -3.8513    6.1180 H   0  0  0  0  0  0  0  0  0  0  0  0
    5.1299   -3.0146    5.7952 H   0  0  0  0  0  0  0  0  0  0  0  0
  1  2  1  0
  1 36  1  0
  1 37  1  0
  1 38  1  0
  2 34  1  0
  2  3  1  0
  2 39  1  1
  4  3  1  1
  3 40  1  0
  3 41  1  0
  4 25  1  0
  4 26  1  0
  4  5  1  0
  5 20  1  0
  5  6  1  0
  5 42  1  1
  6  7  1  0
  7  8  1  0
  7 43  1  0
  7 44  1  0
  8  9  1  0
  9 32  1  0
  9 34  1  0
  9 10  1  6
 10 11  1  0
 10 45  1  0
 10 46  1  0
 11 12  1  0
 11 47  1  0
 11 48  1  0
 12 13  1  0
 12 26  1  0
 12 49  1  6
 13 25  1  0
 13 14  1  0
 13 50  1  1
 14 24  1  0
 14 15  1  0
 14 51  1  6
 15 16  1  0
 15 21  1  0
 15 52  1  6
 16 17  1  0
 17 18  1  0
 17 19  1  0
 17 20  1  0
 18 53  1  0
 18 54  1  0
 18 55  1  0
 19 56  1  0
 19 57  1  0
 19 58  1  0
 21 23  1  0
 21 22  1  0
 21 59  1  1
 22 23  1  0
 23 24  1  0
 23 60  1  1
 24 25  1  0
 24 61  1  6
 25 62  1  1
 26 27  1  1
 26 28  1  0
 27 63  1  0
 27 64  1  0
 27 65  1  0
 28 29  1  1
 28 30  1  0
 28 34  1  0
 29 66  1  0
 29 67  1  0
 29 68  1  0
 30 31  1  0
 30 69  1  0
 30 70  1  0
 31 32  1  0
 31 71  1  0
 31 72  1  0
 32 33  1  0
 32 73  1  1
 33 74  1  0
 34 35  1  1
 35 75  1  0
 35 76  1  0
 35 77  1  0
M  CHG  1  35   1
M  END
>  <i_m_ct_stereo_status>  (98) 
1

>  <s_m_source_file>  (98) 
/var/tmp/pbs.5076255.sched01/tmp3foza_40/36o9al7bb4.sdf

>  <i_m_source_file_index>  (98) 
5

>  <i_lp_mmshare_version>  (98) 
48012

>  <i_f3d_flags>  (98) 
0

>  <s_epik_input>  (98) 
W0NAXTEyM1tDQEhdNE9bQ0gyXU9bQ0BAXTU2W0NAQF0oW05IMl0pKFtDQEhdKFtDSDNdKVtDSDJdMSlbQ0BdKFtDSDNdKShbQ0gyXVtDSDJdW0NASF02W09IXSlbQ0BdMyhbQ0gzXSlbQ0BIXShbQ0gyXVtDSDJdNSlbQ0BIXTdbQ0BASF04W0NASF0oT0MoTzQpKFtDSDNdKVtDSDNdKVtDQEhdOVtDQEhdKE85KVtDQEBIXThbQ0BASF0yNw==

>  <s_epik_cmdline>  (98) 
J2VwaWtfcHl0aG9uJywgJy1waHQnLCAnMi4wJywgJy1waCcsICc3LjAnLCAnLXRuJywgJzgnLCAnLW1hJywgJzIwMCcsICctaW1hZScsICc8aW5maWxlLm1hZT4nLCAnLW9tYWUnLCAnPG91dGZpbGUubWFlPic=

>  <r_epik_Ionization_Penalty>  (98) 
0.00168025

>  <r_epik_Ionization_Penalty_Charging>  (98) 
0.00168017

>  <r_epik_Ionization_Penalty_Neutral>  (98) 
8.18343e-08

>  <r_epik_State_Penalty>  (98) 
0.00113428

>  <r_epik_Charging_Adjusted_Penalty>  (98) 
0.00281445

>  <i_epik_Tot_Q>  (98) 
1

>  <i_epik_Tot_abs_Q>  (98) 
1

>  <s_epik_Chemistry_Notes>  (98) 
This compound contains an acetal/aminal-like group ( X-CH(R)-Y where X, Y are N, S, or O) that may be acid/base labile, releasing an aldehyde.

>  <s_lp_Force_Field>  (98) 
OPLS3e

>  <r_lp_Energy>  (98) 
308.768

>  <b_lp_Chiralities_Consistent>  (98) 
1

>  <s_lp_Variant>  (98) 
32:0-1

>  <s_i_glide_gridfile>  (98) 
pfpi4k_grid

>  <i_i_glide_lignum>  (98) 
5

>  <i_i_glide_rotatable_bonds>  (98) 
1

>  <r_i_docking_score>  (98) 
-2.06045

>  <r_i_glide_ligand_efficiency>  (98) 
-0.05887

>  <r_i_glide_ligand_efficiency_sa>  (98) 
-0.192568

>  <r_i_glide_ligand_efficiency_ln>  (98) 
-0.452314

>  <r_i_glide_gscore>  (98) 
-2.06045

>  <r_i_glide_lipo>  (98) 
-0.0988389

>  <r_i_glide_hbond>  (98) 
0

>  <r_i_glide_metal>  (98) 
-0

>  <r_i_glide_rewards>  (98) 
-0.197203

>  <r_i_glide_evdw>  (98) 
-27.15

>  <r_i_glide_ecoul>  (98) 
-2.62252

>  <r_i_glide_erotb>  (98) 
0

>  <r_i_glide_esite>  (98) 
-0.0135288

>  <r_i_glide_emodel>  (98) 
-33.7509

>  <r_i_glide_energy>  (98) 
-29.7725

>  <r_i_glide_einternal>  (98) 
0.0224876

>  <r_i_glide_intrahb_reward>  (98) 
-0

>  <i_i_glide_confnum>  (98) 
2

>  <i_i_glide_posenum>  (98) 
10

>  <r_i_glide_eff_state_penalty>  (98) 
0

>  <ligand_id>  (98) 
32

>  <original_smiles>  (98) 
CC1CC23C4OCOC56CCC(C7C8C(OC(C)(C)O4)C4OC4C8C72)C3(C)C(C)(CCC5O)C16N

>  <smiles>  (98) 
[H]OC1([H])C([H])([H])C([H])([H])C2(C([H])([H])[H])C3(C([H])([H])[H])C4([H])C([H])([H])C([H])([H])C15OC([H])([H])OC1([H])OC(C([H])([H])[H])(C([H])([H])[H])OC6([H])C7([H])OC7([H])C7([H])C6([H])C4([H])C7([H])C13C([H])([H])C([H])(C([H])([H])[H])C52[N+]([H])([H])[H]

$$$$
32:1:0
     RDKit          3D

 77 85  0  0  1  0  0  0  0  0999 V2000
    4.7640   -3.1889    7.0480 C   0  0  0  0  0  0  0  0  0  0  0  0
    4.1162   -3.0118    5.6348 C   0  0  2  0  0  0  0  0  0  0  0  0
    5.3050   -2.8032    4.6581 C   0  0  0  0  0  0  0  0  0  0  0  0
    4.8542   -2.2071    3.3204 C   0  0  2  0  0  0  0  0  0  0  0  0
    4.0711   -3.4721    2.5973 C   0  0  1  0  0  0  0  0  0  0  0  0
    3.5044   -4.4369    3.4508 O   0  0  0  0  0  0  0  0  0  0  0  0
    2.1018   -4.5369    3.5568 C   0  0  0  0  0  0  0  0  0  0  0  0
    1.4673   -3.7198    4.5073 O   0  0  0  0  0  0  0  0  0  0  0  0
    1.6223   -2.3110    4.4107 C   0  0  1  0  0  0  0  0  0  0  0  0
    1.4773   -1.8009    2.8689 C   0  0  0  0  0  0  0  0  0  0  0  0
    2.3170   -0.7932    1.9976 C   0  0  0  0  0  0  0  0  0  0  0  0
    3.7373   -0.3771    2.3783 C   0  0  2  0  0  0  0  0  0  0  0  0
    4.9771   -0.8341    1.5354 C   0  0  2  0  0  0  0  0  0  0  0  0
    5.3512   -1.4467    0.1578 C   0  0  2  0  0  0  0  0  0  0  0  0
    5.2431   -2.7845   -0.6474 C   0  0  2  0  0  0  0  0  0  0  0  0
    4.7179   -3.9749   -0.1154 O   0  0  0  0  0  0  0  0  0  0  0  0
    3.4271   -3.9819    0.3261 C   0  0  0  0  0  0  0  0  0  0  0  0
    2.4963   -3.4026   -0.7555 C   0  0  0  0  0  0  0  0  0  0  0  0
    3.0638   -5.4558    0.5793 C   0  0  0  0  0  0  0  0  0  0  0  0
    3.2927   -3.1803    1.4716 O   0  0  0  0  0  0  0  0  0  0  0  0
    6.6783   -3.2894   -0.7842 C   0  0  2  0  0  0  0  0  0  0  0  0
    7.2485   -4.0194    0.3116 O   0  0  0  0  0  0  0  0  0  0  0  0
    7.5577   -2.6313    0.2421 C   0  0  2  0  0  0  0  0  0  0  0  0
    6.6603   -1.6042    0.9013 C   0  0  2  0  0  0  0  0  0  0  0  0
    6.0000   -1.6943    2.3498 C   0  0  1  0  0  0  0  0  0  0  0  0
    4.2039   -0.7772    3.7792 C   0  0  2  0  0  0  0  0  0  0  0  0
    5.3652    0.2831    4.0843 C   0  0  0  0  0  0  0  0  0  0  0  0
    3.2689   -0.6125    5.1033 C   0  0  1  0  0  0  0  0  0  0  0  0
    3.9695    0.0264    6.3709 C   0  0  0  0  0  0  0  0  0  0  0  0
    2.0249    0.3546    4.9082 C   0  0  0  0  0  0  0  0  0  0  0  0
    0.6316   -0.1576    5.3787 C   0  0  0  0  0  0  0  0  0  0  0  0
    0.3601   -1.6589    5.1071 C   0  0  1  0  0  0  0  0  0  0  0  0
   -0.9074   -1.8009    4.4783 O   0  0  0  0  0  0  0  0  0  0  0  0
    2.8424   -2.0391    5.4581 C   0  0  2  0  0  0  0  0  0  0  0  0
    2.3018   -2.1177    6.8279 N   0  0  0  0  0  0  0  0  0  0  0  0
    5.2458   -2.3042    7.4643 H   0  0  0  0  0  0  0  0  0  0  0  0
    5.5574   -3.9378    6.9869 H   0  0  0  0  0  0  0  0  0  0  0  0
    4.0797   -3.5844    7.8002 H   0  0  0  0  0  0  0  0  0  0  0  0
    3.7428   -4.0320    5.5741 H   0  0  0  0  0  0  0  0  0  0  0  0
    6.0332   -2.1664    5.1624 H   0  0  0  0  0  0  0  0  0  0  0  0
    5.8120   -3.7506    4.4875 H   0  0  0  0  0  0  0  0  0  0  0  0
    4.8705   -4.1154    2.2332 H   0  0  0  0  0  0  0  0  0  0  0  0
    1.5853   -4.5541    2.6028 H   0  0  0  0  0  0  0  0  0  0  0  0
    1.9521   -5.5422    3.9462 H   0  0  0  0  0  0  0  0  0  0  0  0
    1.2115   -2.6209    2.2220 H   0  0  0  0  0  0  0  0  0  0  0  0
    0.5265   -1.2925    2.7586 H   0  0  0  0  0  0  0  0  0  0  0  0
    2.2973   -1.1053    0.9568 H   0  0  0  0  0  0  0  0  0  0  0  0
    1.7283    0.1195    1.9141 H   0  0  0  0  0  0  0  0  0  0  0  0
    3.7036    0.7162    2.3306 H   0  0  0  0  0  0  0  0  0  0  0  0
    5.4127    0.1600    1.3787 H   0  0  0  0  0  0  0  0  0  0  0  0
    5.4189   -0.6094   -0.5371 H   0  0  0  0  0  0  0  0  0  0  0  0
    4.8677   -2.5994   -1.6574 H   0  0  0  0  0  0  0  0  0  0  0  0
    2.6931   -2.3457   -0.9306 H   0  0  0  0  0  0  0  0  0  0  0  0
    1.4561   -3.4650   -0.4334 H   0  0  0  0  0  0  0  0  0  0  0  0
    2.5875   -3.9392   -1.7046 H   0  0  0  0  0  0  0  0  0  0  0  0
    3.6542   -5.8881    1.3819 H   0  0  0  0  0  0  0  0  0  0  0  0
    3.2852   -6.0288   -0.3191 H   0  0  0  0  0  0  0  0  0  0  0  0
    1.9984   -5.5750    0.7838 H   0  0  0  0  0  0  0  0  0  0  0  0
    7.0702   -3.5246   -1.7630 H   0  0  0  0  0  0  0  0  0  0  0  0
    8.5841   -2.3776   -0.0117 H   0  0  0  0  0  0  0  0  0  0  0  0
    7.2193   -0.6688    0.8435 H   0  0  0  0  0  0  0  0  0  0  0  0
    6.3550   -2.6999    2.1899 H   0  0  0  0  0  0  0  0  0  0  0  0
    4.9459    1.2755    4.2554 H   0  0  0  0  0  0  0  0  0  0  0  0
    6.1078    0.4948    3.3208 H   0  0  0  0  0  0  0  0  0  0  0  0
    5.9995    0.0278    4.9317 H   0  0  0  0  0  0  0  0  0  0  0  0
    3.3307    0.0650    7.2457 H   0  0  0  0  0  0  0  0  0  0  0  0
    4.2305    1.0756    6.2338 H   0  0  0  0  0  0  0  0  0  0  0  0
    4.8885   -0.4628    6.6682 H   0  0  0  0  0  0  0  0  0  0  0  0
    2.1986    1.2958    5.4176 H   0  0  0  0  0  0  0  0  0  0  0  0
    1.9392    0.7244    3.8920 H   0  0  0  0  0  0  0  0  0  0  0  0
    0.5183    0.0418    6.4498 H   0  0  0  0  0  0  0  0  0  0  0  0
   -0.1299    0.4675    4.9077 H   0  0  0  0  0  0  0  0  0  0  0  0
    0.1048   -2.1574    6.0400 H   0  0  0  0  0  0  0  0  0  0  0  0
   -0.8241   -1.5793    3.5770 H   0  0  0  0  0  0  0  0  0  0  0  0
    1.5353   -1.4764    6.9315 H   0  0  0  0  0  0  0  0  0  0  0  0
    3.0348   -1.8815    7.4810 H   0  0  0  0  0  0  0  0  0  0  0  0
    1.9971   -3.0628    6.9933 H   0  0  0  0  0  0  0  0  0  0  0  0
  1  2  1  0
  1 36  1  0
  1 37  1  0
  1 38  1  0
  2 34  1  0
  2  3  1  0
  2 39  1  6
  4  3  1  1
  3 40  1  0
  3 41  1  0
  4 25  1  0
  4 26  1  0
  4  5  1  0
  5 20  1  0
  5  6  1  0
  5 42  1  6
  6  7  1  0
  7  8  1  0
  7 43  1  0
  7 44  1  0
  8  9  1  0
  9 32  1  0
  9 34  1  0
  9 10  1  6
 10 11  1  0
 10 45  1  0
 10 46  1  0
 11 12  1  0
 11 47  1  0
 11 48  1  0
 12 13  1  0
 12 26  1  0
 12 49  1  1
 13 25  1  0
 13 14  1  0
 13 50  1  6
 14 24  1  0
 14 15  1  0
 14 51  1  6
 15 16  1  0
 15 21  1  0
 15 52  1  6
 16 17  1  0
 17 18  1  0
 17 19  1  0
 17 20  1  0
 18 53  1  0
 18 54  1  0
 18 55  1  0
 19 56  1  0
 19 57  1  0
 19 58  1  0
 21 23  1  0
 21 22  1  0
 21 59  1  6
 22 23  1  0
 23 24  1  0
 23 60  1  6
 24 25  1  0
 24 61  1  1
 25 62  1  1
 26 27  1  1
 26 28  1  0
 27 63  1  0
 27 64  1  0
 27 65  1  0
 28 29  1  1
 28 30  1  0
 28 34  1  0
 29 66  1  0
 29 67  1  0
 29 68  1  0
 30 31  1  0
 30 69  1  0
 30 70  1  0
 31 32  1  0
 31 71  1  0
 31 72  1  0
 32 33  1  0
 32 73  1  1
 33 74  1  0
 34 35  1  1
 35 75  1  0
 35 76  1  0
 35 77  1  0
M  CHG  1  35   1
M  END
>  <i_m_ct_stereo_status>  (99) 
1

>  <s_m_source_file>  (99) 
/var/tmp/pbs.5076255.sched01/tmp3foza_40/36o9al7bb4.sdf

>  <i_m_source_file_index>  (99) 
6

>  <i_lp_mmshare_version>  (99) 
48012

>  <i_f3d_flags>  (99) 
0

>  <s_epik_input>  (99) 
W0NAXTEyM1tDQEhdNE9bQ0gyXU9bQ0BAXTU2W0NAQF0oW05IMl0pKFtDQEhdKFtDSDNdKVtDSDJdMSlbQ0BdKFtDSDNdKShbQ0gyXVtDSDJdW0NASF02W09IXSlbQ0BdMyhbQ0gzXSlbQ0BIXShbQ0gyXVtDSDJdNSlbQ0BIXTdbQ0BASF04W0NASF0oT0MoTzQpKFtDSDNdKVtDSDNdKVtDQEhdOVtDQEhdKE85KVtDQEBIXThbQ0BASF0yNw==

>  <s_epik_cmdline>  (99) 
J2VwaWtfcHl0aG9uJywgJy1waHQnLCAnMi4wJywgJy1waCcsICc3LjAnLCAnLXRuJywgJzgnLCAnLW1hJywgJzIwMCcsICctaW1hZScsICc8aW5maWxlLm1hZT4nLCAnLW9tYWUnLCAnPG91dGZpbGUubWFlPic=

>  <r_epik_Ionization_Penalty>  (99) 
0.00168025

>  <r_epik_Ionization_Penalty_Charging>  (99) 
0.00168017

>  <r_epik_Ionization_Penalty_Neutral>  (99) 
8.18343e-08

>  <r_epik_State_Penalty>  (99) 
0.00113428

>  <r_epik_Charging_Adjusted_Penalty>  (99) 
0.00281445

>  <i_epik_Tot_Q>  (99) 
1

>  <i_epik_Tot_abs_Q>  (99) 
1

>  <s_epik_Chemistry_Notes>  (99) 
This compound contains an acetal/aminal-like group ( X-CH(R)-Y where X, Y are N, S, or O) that may be acid/base labile, releasing an aldehyde.

>  <s_lp_Force_Field>  (99) 
OPLS3e

>  <r_lp_Energy>  (99) 
345.813

>  <b_lp_Chiralities_Consistent>  (99) 
1

>  <s_lp_Variant>  (99) 
32:0-2

>  <s_i_glide_gridfile>  (99) 
pfpi4k_grid

>  <i_i_glide_lignum>  (99) 
6

>  <i_i_glide_rotatable_bonds>  (99) 
1

>  <r_i_docking_score>  (99) 
-2.63602

>  <r_i_glide_ligand_efficiency>  (99) 
-0.0753148

>  <r_i_glide_ligand_efficiency_sa>  (99) 
-0.24636

>  <r_i_glide_ligand_efficiency_ln>  (99) 
-0.578664

>  <r_i_glide_gscore>  (99) 
-2.63602

>  <r_i_glide_lipo>  (99) 
-0.77708

>  <r_i_glide_hbond>  (99) 
0

>  <r_i_glide_metal>  (99) 
-0

>  <r_i_glide_rewards>  (99) 
-0.0800068

>  <r_i_glide_evdw>  (99) 
-23.8482

>  <r_i_glide_ecoul>  (99) 
-3.86493

>  <r_i_glide_erotb>  (99) 
0

>  <r_i_glide_esite>  (99) 
-0.00678094

>  <r_i_glide_emodel>  (99) 
-31.8305

>  <r_i_glide_energy>  (99) 
-27.7131

>  <r_i_glide_einternal>  (99) 
0.0848572

>  <r_i_glide_intrahb_reward>  (99) 
-0

>  <i_i_glide_confnum>  (99) 
2

>  <i_i_glide_posenum>  (99) 
26

>  <r_i_glide_eff_state_penalty>  (99) 
0

>  <ligand_id>  (99) 
32

>  <original_smiles>  (99) 
CC1CC23C4OCOC56CCC(C7C8C(OC(C)(C)O4)C4OC4C8C72)C3(C)C(C)(CCC5O)C16N

>  <smiles>  (99) 
[H]OC1([H])C([H])([H])C([H])([H])C2(C([H])([H])[H])C3(C([H])([H])[H])C4([H])C([H])([H])C([H])([H])C15OC([H])([H])OC1([H])OC(C([H])([H])[H])(C([H])([H])[H])OC6([H])C7([H])OC7([H])C7([H])C6([H])C4([H])C7([H])C13C([H])([H])C([H])(C([H])([H])[H])C52[N+]([H])([H])[H]

$$$$
32:1:1
     RDKit          3D

 77 85  0  0  1  0  0  0  0  0999 V2000
    5.1886   -0.0606    6.1705 C   0  0  0  0  0  0  0  0  0  0  0  0
    4.7052   -1.2814    5.3198 C   0  0  2  0  0  0  0  0  0  0  0  0
    4.9959   -0.9087    3.8321 C   0  0  0  0  0  0  0  0  0  0  0  0
    4.2239   -1.7990    2.8678 C   0  0  2  0  0  0  0  0  0  0  0  0
    4.9935   -3.2708    3.0018 C   0  0  1  0  0  0  0  0  0  0  0  0
    5.6179   -3.5355    4.2362 O   0  0  0  0  0  0  0  0  0  0  0  0
    5.1351   -4.5412    5.0856 C   0  0  0  0  0  0  0  0  0  0  0  0
    4.1646   -4.1538    6.0204 O   0  0  0  0  0  0  0  0  0  0  0  0
    2.9623   -3.5819    5.5303 C   0  0  1  0  0  0  0  0  0  0  0  0
    2.3957   -4.4083    4.2499 C   0  0  0  0  0  0  0  0  0  0  0  0
    1.8247   -3.9254    2.8715 C   0  0  0  0  0  0  0  0  0  0  0  0
    2.0851   -2.5121    2.3119 C   0  0  2  0  0  0  0  0  0  0  0  0
    3.0071   -2.2601    1.0778 C   0  0  2  0  0  0  0  0  0  0  0  0
    3.6516   -3.0253   -0.1178 C   0  0  2  0  0  0  0  0  0  0  0  0
    4.7874   -4.0576   -0.4210 C   0  0  2  0  0  0  0  0  0  0  0  0
    5.6388   -4.5992    0.5675 O   0  0  0  0  0  0  0  0  0  0  0  0
    5.0975   -5.2582    1.6310 C   0  0  0  0  0  0  0  0  0  0  0  0
    4.1260   -6.3664    1.1451 C   0  0  0  0  0  0  0  0  0  0  0  0
    6.2905   -5.9172    2.3635 C   0  0  0  0  0  0  0  0  0  0  0  0
    4.3617   -4.3876    2.4381 O   0  0  0  0  0  0  0  0  0  0  0  0
    5.8295   -3.2852   -1.1963 C   0  0  2  0  0  0  0  0  0  0  0  0
    6.7670   -2.4848   -0.4396 O   0  0  0  0  0  0  0  0  0  0  0  0
    5.6248   -1.8061   -1.0008 C   0  0  2  0  0  0  0  0  0  0  0  0
    4.3637   -1.6831   -0.2144 C   0  0  2  0  0  0  0  0  0  0  0  0
    4.2549   -1.3397    1.3567 C   0  0  1  0  0  0  0  0  0  0  0  0
    2.6645   -1.4898    3.2680 C   0  0  2  0  0  0  0  0  0  0  0  0
    2.1961   -0.0914    2.6431 C   0  0  0  0  0  0  0  0  0  0  0  0
    2.1531   -1.3468    4.8150 C   0  0  1  0  0  0  0  0  0  0  0  0
    1.9160    0.1323    5.3196 C   0  0  0  0  0  0  0  0  0  0  0  0
    0.7418   -2.0123    5.1108 C   0  0  0  0  0  0  0  0  0  0  0  0
    0.6196   -2.9426    6.3578 C   0  0  0  0  0  0  0  0  0  0  0  0
    1.8516   -3.8569    6.6269 C   0  0  1  0  0  0  0  0  0  0  0  0
    1.4324   -5.2007    6.8316 O   0  0  0  0  0  0  0  0  0  0  0  0
    3.2726   -1.9683    5.6599 C   0  0  2  0  0  0  0  0  0  0  0  0
    3.1550   -1.5980    7.0706 N   0  0  0  0  0  0  0  0  0  0  0  0
    4.6090    0.8500    6.0501 H   0  0  0  0  0  0  0  0  0  0  0  0
    6.2044    0.2045    5.8637 H   0  0  0  0  0  0  0  0  0  0  0  0
    5.2723   -0.2716    7.2379 H   0  0  0  0  0  0  0  0  0  0  0  0
    5.4561   -1.9544    5.7065 H   0  0  0  0  0  0  0  0  0  0  0  0
    4.7473    0.1367    3.6565 H   0  0  0  0  0  0  0  0  0  0  0  0
    6.0653   -0.9680    3.6240 H   0  0  0  0  0  0  0  0  0  0  0  0
    5.9101   -3.1414    2.4294 H   0  0  0  0  0  0  0  0  0  0  0  0
    4.9070   -5.4808    4.5975 H   0  0  0  0  0  0  0  0  0  0  0  0
    5.9989   -4.7808    5.7082 H   0  0  0  0  0  0  0  0  0  0  0  0
    2.9906   -5.2879    4.0535 H   0  0  0  0  0  0  0  0  0  0  0  0
    1.5262   -4.9728    4.5526 H   0  0  0  0  0  0  0  0  0  0  0  0
    2.0552   -4.6558    2.1008 H   0  0  0  0  0  0  0  0  0  0  0  0
    0.7421   -4.0573    2.9125 H   0  0  0  0  0  0  0  0  0  0  0  0
    1.0823   -2.1702    2.0518 H   0  0  0  0  0  0  0  0  0  0  0  0
    2.2613   -1.6992    0.5027 H   0  0  0  0  0  0  0  0  0  0  0  0
    2.8940   -3.0942   -0.9099 H   0  0  0  0  0  0  0  0  0  0  0  0
    4.4208   -4.8476   -1.0651 H   0  0  0  0  0  0  0  0  0  0  0  0
    3.2624   -5.9341    0.6360 H   0  0  0  0  0  0  0  0  0  0  0  0
    3.7595   -6.9317    2.0000 H   0  0  0  0  0  0  0  0  0  0  0  0
    4.6335   -7.0453    0.4588 H   0  0  0  0  0  0  0  0  0  0  0  0
    6.9563   -5.1693    2.7930 H   0  0  0  0  0  0  0  0  0  0  0  0
    6.8714   -6.4925    1.6418 H   0  0  0  0  0  0  0  0  0  0  0  0
    5.9526   -6.6070    3.1300 H   0  0  0  0  0  0  0  0  0  0  0  0
    6.2248   -3.6804   -2.1331 H   0  0  0  0  0  0  0  0  0  0  0  0
    5.8349   -1.1210   -1.8202 H   0  0  0  0  0  0  0  0  0  0  0  0
    3.7334   -0.9826   -0.7672 H   0  0  0  0  0  0  0  0  0  0  0  0
    5.3243   -1.5372    1.2918 H   0  0  0  0  0  0  0  0  0  0  0  0
    1.1249    0.0628    2.7870 H   0  0  0  0  0  0  0  0  0  0  0  0
    2.2983    0.0711    1.5722 H   0  0  0  0  0  0  0  0  0  0  0  0
    2.7270    0.7690    3.0461 H   0  0  0  0  0  0  0  0  0  0  0  0
    1.6375    0.1919    6.3718 H   0  0  0  0  0  0  0  0  0  0  0  0
    1.0772    0.6265    4.8318 H   0  0  0  0  0  0  0  0  0  0  0  0
    2.7612    0.7916    5.1777 H   0  0  0  0  0  0  0  0  0  0  0  0
   -0.0307   -1.2435    5.2119 H   0  0  0  0  0  0  0  0  0  0  0  0
    0.3428   -2.5314    4.2560 H   0  0  0  0  0  0  0  0  0  0  0  0
    0.4351   -2.3309    7.2400 H   0  0  0  0  0  0  0  0  0  0  0  0
   -0.2845   -3.5426    6.2465 H   0  0  0  0  0  0  0  0  0  0  0  0
    2.2216   -3.6716    7.6331 H   0  0  0  0  0  0  0  0  0  0  0  0
    1.1885   -5.5903    6.0164 H   0  0  0  0  0  0  0  0  0  0  0  0
    2.2501   -1.8590    7.4377 H   0  0  0  0  0  0  0  0  0  0  0  0
    3.2742   -0.5965    7.1702 H   0  0  0  0  0  0  0  0  0  0  0  0
    3.8791   -2.0679    7.6030 H   0  0  0  0  0  0  0  0  0  0  0  0
  1  2  1  0
  1 36  1  0
  1 37  1  0
  1 38  1  0
  2 34  1  0
  2  3  1  0
  2 39  1  1
  4  3  1  1
  3 40  1  0
  3 41  1  0
  4 25  1  0
  4 26  1  0
  4  5  1  0
  5 20  1  0
  5  6  1  0
  5 42  1  6
  6  7  1  0
  7  8  1  0
  7 43  1  0
  7 44  1  0
  8  9  1  0
  9 32  1  0
  9 34  1  0
  9 10  1  6
 10 11  1  0
 10 45  1  0
 10 46  1  0
 11 12  1  0
 11 47  1  0
 11 48  1  0
 12 13  1  0
 12 26  1  0
 12 49  1  6
 13 25  1  0
 13 14  1  0
 13 50  1  6
 14 24  1  0
 14 15  1  0
 14 51  1  6
 15 16  1  0
 15 21  1  0
 15 52  1  6
 16 17  1  0
 17 18  1  0
 17 19  1  0
 17 20  1  0
 18 53  1  0
 18 54  1  0
 18 55  1  0
 19 56  1  0
 19 57  1  0
 19 58  1  0
 21 23  1  0
 21 22  1  0
 21 59  1  6
 22 23  1  0
 23 24  1  0
 23 60  1  6
 24 25  1  0
 24 61  1  6
 25 62  1  1
 26 27  1  6
 26 28  1  0
 27 63  1  0
 27 64  1  0
 27 65  1  0
 28 29  1  1
 28 30  1  0
 28 34  1  0
 29 66  1  0
 29 67  1  0
 29 68  1  0
 30 31  1  0
 30 69  1  0
 30 70  1  0
 31 32  1  0
 31 71  1  0
 31 72  1  0
 32 33  1  0
 32 73  1  1
 33 74  1  0
 34 35  1  1
 35 75  1  0
 35 76  1  0
 35 77  1  0
M  CHG  1  35   1
M  END
>  <i_m_ct_stereo_status>  (100) 
1

>  <s_m_source_file>  (100) 
/var/tmp/pbs.5076255.sched01/tmp3foza_40/36o9al7bb4.sdf

>  <i_m_source_file_index>  (100) 
6

>  <i_lp_mmshare_version>  (100) 
48012

>  <i_f3d_flags>  (100) 
0

>  <s_epik_input>  (100) 
W0NAXTEyM1tDQEhdNE9bQ0gyXU9bQ0BAXTU2W0NAQF0oW05IMl0pKFtDQEhdKFtDSDNdKVtDSDJdMSlbQ0BdKFtDSDNdKShbQ0gyXVtDSDJdW0NASF02W09IXSlbQ0BdMyhbQ0gzXSlbQ0BIXShbQ0gyXVtDSDJdNSlbQ0BIXTdbQ0BASF04W0NASF0oT0MoTzQpKFtDSDNdKVtDSDNdKVtDQEhdOVtDQEhdKE85KVtDQEBIXThbQ0BASF0yNw==

>  <s_epik_cmdline>  (100) 
J2VwaWtfcHl0aG9uJywgJy1waHQnLCAnMi4wJywgJy1waCcsICc3LjAnLCAnLXRuJywgJzgnLCAnLW1hJywgJzIwMCcsICctaW1hZScsICc8aW5maWxlLm1hZT4nLCAnLW9tYWUnLCAnPG91dGZpbGUubWFlPic=

>  <r_epik_Ionization_Penalty>  (100) 
0.00168025

>  <r_epik_Ionization_Penalty_Charging>  (100) 
0.00168017

>  <r_epik_Ionization_Penalty_Neutral>  (100) 
8.18343e-08

>  <r_epik_State_Penalty>  (100) 
0.00113428

>  <r_epik_Charging_Adjusted_Penalty>  (100) 
0.00281445

>  <i_epik_Tot_Q>  (100) 
1

>  <i_epik_Tot_abs_Q>  (100) 
1

>  <s_epik_Chemistry_Notes>  (100) 
This compound contains an acetal/aminal-like group ( X-CH(R)-Y where X, Y are N, S, or O) that may be acid/base labile, releasing an aldehyde.

>  <s_lp_Force_Field>  (100) 
OPLS3e

>  <r_lp_Energy>  (100) 
345.813

>  <b_lp_Chiralities_Consistent>  (100) 
1

>  <s_lp_Variant>  (100) 
32:0-2

>  <s_i_glide_gridfile>  (100) 
pfpi4k_grid

>  <i_i_glide_lignum>  (100) 
6

>  <i_i_glide_rotatable_bonds>  (100) 
1

>  <r_i_docking_score>  (100) 
-2.24113

>  <r_i_glide_ligand_efficiency>  (100) 
-0.0640322

>  <r_i_glide_ligand_efficiency_sa>  (100) 
-0.209453

>  <r_i_glide_ligand_efficiency_ln>  (100) 
-0.491977

>  <r_i_glide_gscore>  (100) 
-2.24113

>  <r_i_glide_lipo>  (100) 
-0.372673

>  <r_i_glide_hbond>  (100) 
0

>  <r_i_glide_metal>  (100) 
-0

>  <r_i_glide_rewards>  (100) 
-0.185343

>  <r_i_glide_evdw>  (100) 
-23.9822

>  <r_i_glide_ecoul>  (100) 
-3.22667

>  <r_i_glide_erotb>  (100) 
0

>  <r_i_glide_esite>  (100) 
0

>  <r_i_glide_emodel>  (100) 
-30.7613

>  <r_i_glide_energy>  (100) 
-27.2089

>  <r_i_glide_einternal>  (100) 
0.0479347

>  <r_i_glide_intrahb_reward>  (100) 
-0

>  <i_i_glide_confnum>  (100) 
1

>  <i_i_glide_posenum>  (100) 
1

>  <r_i_glide_eff_state_penalty>  (100) 
0

>  <ligand_id>  (100) 
32

>  <original_smiles>  (100) 
CC1CC23C4OCOC56CCC(C7C8C(OC(C)(C)O4)C4OC4C8C72)C3(C)C(C)(CCC5O)C16N

>  <smiles>  (100) 
[H]OC1([H])C([H])([H])C([H])([H])C2(C([H])([H])[H])C3(C([H])([H])[H])C4([H])C([H])([H])C([H])([H])C15OC([H])([H])OC1([H])OC(C([H])([H])[H])(C([H])([H])[H])OC6([H])C7([H])OC7([H])C7([H])C6([H])C4([H])C7([H])C13C([H])([H])C([H])(C([H])([H])[H])C52[N+]([H])([H])[H]

$$$$
32:1:2
     RDKit          3D

 77 85  0  0  1  0  0  0  0  0999 V2000
    4.9102    1.6666    5.8449 C   0  0  0  0  0  0  0  0  0  0  0  0
    4.2966    0.3143    5.3575 C   0  0  2  0  0  0  0  0  0  0  0  0
    4.9146    0.0311    3.9536 C   0  0  0  0  0  0  0  0  0  0  0  0
    4.1149   -1.0000    3.1722 C   0  0  2  0  0  0  0  0  0  0  0  0
    4.4929   -2.4155    3.9547 C   0  0  1  0  0  0  0  0  0  0  0  0
    4.8524   -2.3070    5.3145 O   0  0  0  0  0  0  0  0  0  0  0  0
    3.9938   -2.8159    6.3096 C   0  0  0  0  0  0  0  0  0  0  0  0
    2.9948   -1.9566    6.7988 O   0  0  0  0  0  0  0  0  0  0  0  0
    2.0517   -1.4177    5.8819 C   0  0  1  0  0  0  0  0  0  0  0  0
    1.5223   -2.5597    4.8417 C   0  0  0  0  0  0  0  0  0  0  0  0
    1.3160   -2.5425    3.2833 C   0  0  0  0  0  0  0  0  0  0  0  0
    1.9788   -1.5002    2.3692 C   0  0  2  0  0  0  0  0  0  0  0  0
    3.1301   -1.8710    1.3749 C   0  0  2  0  0  0  0  0  0  0  0  0
    3.7634   -3.1168    0.6967 C   0  0  2  0  0  0  0  0  0  0  0  0
    4.6573   -4.3574    1.0406 C   0  0  2  0  0  0  0  0  0  0  0  0
    5.1803   -4.6270    2.3222 O   0  0  0  0  0  0  0  0  0  0  0  0
    4.3324   -4.7542    3.3866 C   0  0  0  0  0  0  0  0  0  0  0  0
    3.2203   -5.7797    3.0724 C   0  0  0  0  0  0  0  0  0  0  0  0
    5.2014   -5.2725    4.5519 C   0  0  0  0  0  0  0  0  0  0  0  0
    3.7079   -3.5359    3.6636 O   0  0  0  0  0  0  0  0  0  0  0  0
    5.9746   -4.1142    0.3263 C   0  0  2  0  0  0  0  0  0  0  0  0
    6.9211   -3.2649    0.9855 O   0  0  0  0  0  0  0  0  0  0  0  0
    6.1098   -2.6640   -0.0228 C   0  0  2  0  0  0  0  0  0  0  0  0
    4.7830   -2.0439    0.3472 C   0  0  2  0  0  0  0  0  0  0  0  0
    4.5022   -1.1360    1.6391 C   0  0  1  0  0  0  0  0  0  0  0  0
    2.6281   -0.3091    3.0562 C   0  0  2  0  0  0  0  0  0  0  0  0
    2.6120    0.8183    1.9205 C   0  0  0  0  0  0  0  0  0  0  0  0
    1.9225    0.4866    4.3003 C   0  0  1  0  0  0  0  0  0  0  0  0
    1.9625    2.0670    4.2216 C   0  0  0  0  0  0  0  0  0  0  0  0
    0.3629    0.2223    4.4572 C   0  0  0  0  0  0  0  0  0  0  0  0
   -0.1764   -0.1491    5.8748 C   0  0  0  0  0  0  0  0  0  0  0  0
    0.7451   -1.0825    6.7133 C   0  0  1  0  0  0  0  0  0  0  0  0
    0.0021   -2.1728    7.2350 O   0  0  0  0  0  0  0  0  0  0  0  0
    2.7111    0.0410    5.5349 C   0  0  2  0  0  0  0  0  0  0  0  0
    2.4491    0.9419    6.6907 N   0  0  0  0  0  0  0  0  0  0  0  0
    4.5888    2.5476    5.2951 H   0  0  0  0  0  0  0  0  0  0  0  0
    5.9934    1.6314    5.7193 H   0  0  0  0  0  0  0  0  0  0  0  0
    4.7631    1.8609    6.9083 H   0  0  0  0  0  0  0  0  0  0  0  0
    4.7861   -0.2856    6.1154 H   0  0  0  0  0  0  0  0  0  0  0  0
    4.9412    0.9483    3.3730 H   0  0  0  0  0  0  0  0  0  0  0  0
    5.9585   -0.2682    4.0485 H   0  0  0  0  0  0  0  0  0  0  0  0
    5.4919   -2.6534    3.5939 H   0  0  0  0  0  0  0  0  0  0  0  0
    3.6241   -3.8159    6.1143 H   0  0  0  0  0  0  0  0  0  0  0  0
    4.6490   -2.9472    7.1712 H   0  0  0  0  0  0  0  0  0  0  0  0
    1.9129   -3.5314    5.1012 H   0  0  0  0  0  0  0  0  0  0  0  0
    0.5033   -2.8205    5.0969 H   0  0  0  0  0  0  0  0  0  0  0  0
    1.4877   -3.5343    2.8757 H   0  0  0  0  0  0  0  0  0  0  0  0
    0.2397   -2.4714    3.1151 H   0  0  0  0  0  0  0  0  0  0  0  0
    1.1426   -1.1266    1.7722 H   0  0  0  0  0  0  0  0  0  0  0  0
    2.6452   -1.4427    0.4858 H   0  0  0  0  0  0  0  0  0  0  0  0
    3.1595   -3.3543   -0.1842 H   0  0  0  0  0  0  0  0  0  0  0  0
    4.2221   -5.2626    0.6239 H   0  0  0  0  0  0  0  0  0  0  0  0
    2.5808   -5.4342    2.2601 H   0  0  0  0  0  0  0  0  0  0  0  0
    2.5950   -5.9212    3.9527 H   0  0  0  0  0  0  0  0  0  0  0  0
    3.6587   -6.7391    2.7910 H   0  0  0  0  0  0  0  0  0  0  0  0
    5.9468   -4.5411    4.8598 H   0  0  0  0  0  0  0  0  0  0  0  0
    5.7381   -6.1630    4.2192 H   0  0  0  0  0  0  0  0  0  0  0  0
    4.5872   -5.5660    5.3992 H   0  0  0  0  0  0  0  0  0  0  0  0
    6.4013   -4.8926   -0.3029 H   0  0  0  0  0  0  0  0  0  0  0  0
    6.6158   -2.3714   -0.9418 H   0  0  0  0  0  0  0  0  0  0  0  0
    4.4489   -1.5061   -0.5425 H   0  0  0  0  0  0  0  0  0  0  0  0
    5.4867   -1.5111    1.8987 H   0  0  0  0  0  0  0  0  0  0  0  0
    1.6000    1.1865    1.7439 H   0  0  0  0  0  0  0  0  0  0  0  0
    2.9274    0.5559    0.9150 H   0  0  0  0  0  0  0  0  0  0  0  0
    3.2569    1.6670    2.1358 H   0  0  0  0  0  0  0  0  0  0  0  0
    1.5378    2.5573    5.0943 H   0  0  0  0  0  0  0  0  0  0  0  0
    1.3582    2.4736    3.4121 H   0  0  0  0  0  0  0  0  0  0  0  0
    2.9526    2.4780    4.0746 H   0  0  0  0  0  0  0  0  0  0  0  0
   -0.2104    1.0847    4.1146 H   0  0  0  0  0  0  0  0  0  0  0  0
    0.0004   -0.5119    3.7536 H   0  0  0  0  0  0  0  0  0  0  0  0
   -0.3586    0.7700    6.4333 H   0  0  0  0  0  0  0  0  0  0  0  0
   -1.1637   -0.5956    5.7531 H   0  0  0  0  0  0  0  0  0  0  0  0
    0.9801   -0.6039    7.6638 H   0  0  0  0  0  0  0  0  0  0  0  0
    0.6040   -2.7207    7.7208 H   0  0  0  0  0  0  0  0  0  0  0  0
    1.4607    0.9853    6.8877 H   0  0  0  0  0  0  0  0  0  0  0  0
    2.7858    1.8673    6.4675 H   0  0  0  0  0  0  0  0  0  0  0  0
    2.9469    0.5898    7.4965 H   0  0  0  0  0  0  0  0  0  0  0  0
  1  2  1  0
  1 36  1  0
  1 37  1  0
  1 38  1  0
  2 34  1  0
  2  3  1  0
  2 39  1  1
  4  3  1  1
  3 40  1  0
  3 41  1  0
  4 25  1  0
  4 26  1  0
  4  5  1  0
  5 20  1  0
  5  6  1  0
  5 42  1  6
  6  7  1  0
  7  8  1  0
  7 43  1  0
  7 44  1  0
  8  9  1  0
  9 32  1  0
  9 34  1  0
  9 10  1  6
 10 11  1  0
 10 45  1  0
 10 46  1  0
 11 12  1  0
 11 47  1  0
 11 48  1  0
 12 13  1  0
 12 26  1  0
 12 49  1  6
 13 25  1  0
 13 14  1  0
 13 50  1  6
 14 24  1  0
 14 15  1  0
 14 51  1  6
 15 16  1  0
 15 21  1  0
 15 52  1  6
 16 17  1  0
 17 18  1  0
 17 19  1  0
 17 20  1  0
 18 53  1  0
 18 54  1  0
 18 55  1  0
 19 56  1  0
 19 57  1  0
 19 58  1  0
 21 23  1  0
 21 22  1  0
 21 59  1  6
 22 23  1  0
 23 24  1  0
 23 60  1  6
 24 25  1  0
 24 61  1  6
 25 62  1  6
 26 27  1  6
 26 28  1  0
 27 63  1  0
 27 64  1  0
 27 65  1  0
 28 29  1  6
 28 30  1  0
 28 34  1  0
 29 66  1  0
 29 67  1  0
 29 68  1  0
 30 31  1  0
 30 69  1  0
 30 70  1  0
 31 32  1  0
 31 71  1  0
 31 72  1  0
 32 33  1  0
 32 73  1  1
 33 74  1  0
 34 35  1  1
 35 75  1  0
 35 76  1  0
 35 77  1  0
M  CHG  1  35   1
M  END
>  <i_m_ct_stereo_status>  (101) 
1

>  <s_m_source_file>  (101) 
/var/tmp/pbs.5076255.sched01/tmp3foza_40/36o9al7bb4.sdf

>  <i_m_source_file_index>  (101) 
6

>  <i_lp_mmshare_version>  (101) 
48012

>  <i_f3d_flags>  (101) 
0

>  <s_epik_input>  (101) 
W0NAXTEyM1tDQEhdNE9bQ0gyXU9bQ0BAXTU2W0NAQF0oW05IMl0pKFtDQEhdKFtDSDNdKVtDSDJdMSlbQ0BdKFtDSDNdKShbQ0gyXVtDSDJdW0NASF02W09IXSlbQ0BdMyhbQ0gzXSlbQ0BIXShbQ0gyXVtDSDJdNSlbQ0BIXTdbQ0BASF04W0NASF0oT0MoTzQpKFtDSDNdKVtDSDNdKVtDQEhdOVtDQEhdKE85KVtDQEBIXThbQ0BASF0yNw==

>  <s_epik_cmdline>  (101) 
J2VwaWtfcHl0aG9uJywgJy1waHQnLCAnMi4wJywgJy1waCcsICc3LjAnLCAnLXRuJywgJzgnLCAnLW1hJywgJzIwMCcsICctaW1hZScsICc8aW5maWxlLm1hZT4nLCAnLW9tYWUnLCAnPG91dGZpbGUubWFlPic=

>  <r_epik_Ionization_Penalty>  (101) 
0.00168025

>  <r_epik_Ionization_Penalty_Charging>  (101) 
0.00168017

>  <r_epik_Ionization_Penalty_Neutral>  (101) 
8.18343e-08

>  <r_epik_State_Penalty>  (101) 
0.00113428

>  <r_epik_Charging_Adjusted_Penalty>  (101) 
0.00281445

>  <i_epik_Tot_Q>  (101) 
1

>  <i_epik_Tot_abs_Q>  (101) 
1

>  <s_epik_Chemistry_Notes>  (101) 
This compound contains an acetal/aminal-like group ( X-CH(R)-Y where X, Y are N, S, or O) that may be acid/base labile, releasing an aldehyde.

>  <s_lp_Force_Field>  (101) 
OPLS3e

>  <r_lp_Energy>  (101) 
345.813

>  <b_lp_Chiralities_Consistent>  (101) 
1

>  <s_lp_Variant>  (101) 
32:0-2

>  <s_i_glide_gridfile>  (101) 
pfpi4k_grid

>  <i_i_glide_lignum>  (101) 
6

>  <i_i_glide_rotatable_bonds>  (101) 
1

>  <r_i_docking_score>  (101) 
-2.22987

>  <r_i_glide_ligand_efficiency>  (101) 
-0.0637107

>  <r_i_glide_ligand_efficiency_sa>  (101) 
-0.208402

>  <r_i_glide_ligand_efficiency_ln>  (101) 
-0.489507

>  <r_i_glide_gscore>  (101) 
-2.22987

>  <r_i_glide_lipo>  (101) 
-0.359679

>  <r_i_glide_hbond>  (101) 
0

>  <r_i_glide_metal>  (101) 
-0

>  <r_i_glide_rewards>  (101) 
-0.107017

>  <r_i_glide_evdw>  (101) 
-25.0096

>  <r_i_glide_ecoul>  (101) 
-3.418

>  <r_i_glide_erotb>  (101) 
0

>  <r_i_glide_esite>  (101) 
0

>  <r_i_glide_emodel>  (101) 
-31.9042

>  <r_i_glide_energy>  (101) 
-28.4276

>  <r_i_glide_einternal>  (101) 
0.394897

>  <r_i_glide_intrahb_reward>  (101) 
-0

>  <i_i_glide_confnum>  (101) 
1

>  <i_i_glide_posenum>  (101) 
14

>  <r_i_glide_eff_state_penalty>  (101) 
0

>  <ligand_id>  (101) 
32

>  <original_smiles>  (101) 
CC1CC23C4OCOC56CCC(C7C8C(OC(C)(C)O4)C4OC4C8C72)C3(C)C(C)(CCC5O)C16N

>  <smiles>  (101) 
[H]OC1([H])C([H])([H])C([H])([H])C2(C([H])([H])[H])C3(C([H])([H])[H])C4([H])C([H])([H])C([H])([H])C15OC([H])([H])OC1([H])OC(C([H])([H])[H])(C([H])([H])[H])OC6([H])C7([H])OC7([H])C7([H])C6([H])C4([H])C7([H])C13C([H])([H])C([H])(C([H])([H])[H])C52[N+]([H])([H])[H]

$$$$
33:0:0
     RDKit          3D

 56 59  0  0  1  0  0  0  0  0999 V2000
    3.9700   -3.4524   -3.8907 C   0  0  0  0  0  0  0  0  0  0  0  0
    3.5356   -2.8082   -2.5574 C   0  0  0  0  0  0  0  0  0  0  0  0
    2.0794   -3.1808   -2.2915 C   0  0  0  0  0  0  0  0  0  0  0  0
    4.3517   -3.2218   -1.3448 C   0  0  0  0  0  0  0  0  0  0  0  0
    5.0129   -4.3815   -1.1601 C   0  0  0  0  0  0  0  0  0  0  0  0
    5.8609   -4.6923    0.0589 C   0  0  0  0  0  0  0  0  0  0  0  0
    5.7723   -3.6458    1.1902 C   0  0  1  0  0  0  0  0  0  0  0  0
    5.6822   -2.2311    0.5907 C   0  0  2  0  0  0  0  0  0  0  0  0
    5.6811   -1.2477    1.7548 C   0  0  1  0  0  0  0  0  0  0  0  0
    5.6541    0.0590    1.2608 O   0  0  0  0  0  0  0  0  0  0  0  0
    4.4685   -1.4083    2.6541 C   0  0  0  0  0  0  0  0  0  0  0  0
    4.3341   -2.8201    3.2760 C   0  0  1  0  0  0  0  0  0  0  0  0
    2.8890   -3.1306    3.8069 C   0  0  0  0  0  0  0  0  0  0  0  0
    2.9255   -3.5906    5.2783 C   0  0  0  0  0  0  0  0  0  0  0  0
    1.8597   -1.9756    3.7011 C   0  0  0  0  0  0  0  0  0  0  0  0
    2.4289   -4.2580    2.8889 C   0  0  0  0  0  0  0  0  0  0  0  0
    1.3801   -4.8784    3.0324 O   0  0  0  0  0  0  0  0  0  0  0  0
    3.3988   -4.5298    1.7681 C   0  0  0  0  0  0  0  0  0  0  0  0
    4.7318   -4.0009    2.3098 C   0  0  1  0  0  0  0  0  0  0  0  0
    5.3867   -5.1205    3.1752 C   0  0  0  0  0  0  0  0  0  0  0  0
    4.5047   -2.0607   -0.4071 C   0  0  1  0  0  0  0  0  0  0  0  0
    4.6069   -0.8975   -1.3922 C   0  0  0  0  0  0  0  0  0  0  0  0
    3.6483   -1.2545   -2.5431 C   0  0  1  0  0  0  0  0  0  0  0  0
    4.1044   -0.6877   -3.7532 O   0  0  0  0  0  0  0  0  0  0  0  0
    3.3540   -3.0686   -4.7026 H   0  0  0  0  0  0  0  0  0  0  0  0
    3.8317   -4.5322   -3.9112 H   0  0  0  0  0  0  0  0  0  0  0  0
    5.0174   -3.2635   -4.1050 H   0  0  0  0  0  0  0  0  0  0  0  0
    1.4124   -2.8091   -3.0664 H   0  0  0  0  0  0  0  0  0  0  0  0
    1.7810   -2.7699   -1.3341 H   0  0  0  0  0  0  0  0  0  0  0  0
    1.9074   -4.2509   -2.2025 H   0  0  0  0  0  0  0  0  0  0  0  0
    4.9577   -5.1562   -1.9079 H   0  0  0  0  0  0  0  0  0  0  0  0
    5.6214   -5.7003    0.4015 H   0  0  0  0  0  0  0  0  0  0  0  0
    6.8986   -4.7223   -0.2653 H   0  0  0  0  0  0  0  0  0  0  0  0
    6.7507   -3.6778    1.6790 H   0  0  0  0  0  0  0  0  0  0  0  0
    6.5982   -2.0700    0.0196 H   0  0  0  0  0  0  0  0  0  0  0  0
    6.5893   -1.3649    2.3470 H   0  0  0  0  0  0  0  0  0  0  0  0
    6.5439    0.3688    1.2600 H   0  0  0  0  0  0  0  0  0  0  0  0
    4.5676   -0.6901    3.4694 H   0  0  0  0  0  0  0  0  0  0  0  0
    3.5905   -1.0869    2.0942 H   0  0  0  0  0  0  0  0  0  0  0  0
    5.0355   -2.8260    4.1201 H   0  0  0  0  0  0  0  0  0  0  0  0
    3.2958   -2.7943    5.9284 H   0  0  0  0  0  0  0  0  0  0  0  0
    3.5676   -4.4557    5.4282 H   0  0  0  0  0  0  0  0  0  0  0  0
    1.9314   -3.8691    5.6346 H   0  0  0  0  0  0  0  0  0  0  0  0
    2.1958   -1.0731    4.2168 H   0  0  0  0  0  0  0  0  0  0  0  0
    0.9041   -2.2590    4.1443 H   0  0  0  0  0  0  0  0  0  0  0  0
    1.6320   -1.7136    2.6666 H   0  0  0  0  0  0  0  0  0  0  0  0
    3.4268   -5.5875    1.5140 H   0  0  0  0  0  0  0  0  0  0  0  0
    3.0572   -3.9791    0.9017 H   0  0  0  0  0  0  0  0  0  0  0  0
    4.7136   -5.5284    3.9308 H   0  0  0  0  0  0  0  0  0  0  0  0
    6.2629   -4.7469    3.7111 H   0  0  0  0  0  0  0  0  0  0  0  0
    5.7203   -5.9730    2.5772 H   0  0  0  0  0  0  0  0  0  0  0  0
    3.5547   -1.9800    0.1108 H   0  0  0  0  0  0  0  0  0  0  0  0
    4.3367    0.0442   -0.9187 H   0  0  0  0  0  0  0  0  0  0  0  0
    5.6305   -0.8067   -1.7649 H   0  0  0  0  0  0  0  0  0  0  0  0
    2.6716   -0.8017   -2.3345 H   0  0  0  0  0  0  0  0  0  0  0  0
    3.9239    0.2423   -3.7163 H   0  0  0  0  0  0  0  0  0  0  0  0
  1  2  1  0
  1 25  1  0
  1 26  1  0
  1 27  1  0
  2 23  1  0
  2  3  1  0
  2  4  1  0
  3 28  1  0
  3 29  1  0
  3 30  1  0
  4 21  1  0
  4  5  2  0
  5  6  1  0
  5 31  1  0
  6  7  1  0
  6 32  1  0
  6 33  1  0
  7 19  1  0
  7  8  1  0
  7 34  1  1
  8  9  1  0
  8 21  1  0
  8 35  1  6
  9 10  1  0
  9 11  1  0
  9 36  1  1
 10 37  1  0
 11 12  1  0
 11 38  1  0
 11 39  1  0
 12 19  1  0
 12 13  1  0
 12 40  1  1
 13 14  1  0
 13 15  1  0
 13 16  1  0
 14 41  1  0
 14 42  1  0
 14 43  1  0
 15 44  1  0
 15 45  1  0
 15 46  1  0
 16 17  2  0
 16 18  1  0
 18 19  1  0
 18 47  1  0
 18 48  1  0
 19 20  1  1
 20 49  1  0
 20 50  1  0
 20 51  1  0
 21 22  1  0
 21 52  1  1
 22 23  1  0
 22 53  1  0
 22 54  1  0
 23 24  1  0
 23 55  1  1
 24 56  1  0
M  END
>  <i_m_ct_stereo_status>  (102) 
1

>  <s_m_source_file>  (102) 
/var/tmp/pbs.5076255.sched01/tmp3foza_40/36o9al7bb4.sdf

>  <i_m_source_file_index>  (102) 
7

>  <i_lp_mmshare_version>  (102) 
48012

>  <i_f3d_flags>  (102) 
0

>  <s_epik_input>  (102) 
W0NIMl0xW0NAQEhdKFtPSF0pQyhbQ0gzXSkoW0NIM10pQyg9W0NIXVtDSDJdMilbQ0BIXTFbQ0BIXShbQ0BIXTJbQ0BAXTM0W0NIM10pW0NAQEhdKFtPSF0pW0NIMl1bQ0BIXTNDKFtDSDNdKShbQ0gzXSlDKD1PKVtDSDJdNA==

>  <s_epik_cmdline>  (102) 
J2VwaWtfcHl0aG9uJywgJy1waHQnLCAnMi4wJywgJy1waCcsICc3LjAnLCAnLXRuJywgJzgnLCAnLW1hJywgJzIwMCcsICctaW1hZScsICc8aW5maWxlLm1hZT4nLCAnLW9tYWUnLCAnPG91dGZpbGUubWFlPic=

>  <r_lp_tautomer_probability>  (102) 
1

>  <r_epik_Ionization_Penalty>  (102) 
1.73372e-06

>  <r_epik_Ionization_Penalty_Charging>  (102) 
0

>  <r_epik_Ionization_Penalty_Neutral>  (102) 
1.73372e-06

>  <r_epik_State_Penalty>  (102) 
-0

>  <r_epik_Charging_Adjusted_Penalty>  (102) 
0

>  <i_epik_Tot_Q>  (102) 
0

>  <i_epik_Tot_abs_Q>  (102) 
0

>  <s_lp_Force_Field>  (102) 
OPLS3e

>  <r_lp_Energy>  (102) 
29.5689

>  <b_lp_Chiralities_Consistent>  (102) 
1

>  <s_lp_Variant>  (102) 
33:0-1

>  <s_i_glide_gridfile>  (102) 
pfpi4k_grid

>  <i_i_glide_lignum>  (102) 
7

>  <i_i_glide_rotatable_bonds>  (102) 
2

>  <r_i_docking_score>  (102) 
-4.25015

>  <r_i_glide_ligand_efficiency>  (102) 
-0.177089

>  <r_i_glide_ligand_efficiency_sa>  (102) 
-0.510814

>  <r_i_glide_ligand_efficiency_ln>  (102) 
-1.01726

>  <r_i_glide_gscore>  (102) 
-4.25015

>  <r_i_glide_lipo>  (102) 
-0.64688

>  <r_i_glide_hbond>  (102) 
-0.575076

>  <r_i_glide_metal>  (102) 
-0

>  <r_i_glide_rewards>  (102) 
-1.1422

>  <r_i_glide_evdw>  (102) 
-21.6013

>  <r_i_glide_ecoul>  (102) 
-5.34879

>  <r_i_glide_erotb>  (102) 
0

>  <r_i_glide_esite>  (102) 
-0.00360714

>  <r_i_glide_emodel>  (102) 
-33.8507

>  <r_i_glide_energy>  (102) 
-26.9501

>  <r_i_glide_einternal>  (102) 
1.56052

>  <r_i_glide_intrahb_reward>  (102) 
-0

>  <i_i_glide_confnum>  (102) 
2

>  <i_i_glide_posenum>  (102) 
13

>  <r_i_glide_eff_state_penalty>  (102) 
0

>  <ligand_id>  (102) 
33

>  <original_smiles>  (102) 
CC1(C)C2=CCC3C(C(O)CC4C(C)(C)C(=O)CC34C)C2CC1O

>  <smiles>  (102) 
[H]OC1([H])C([H])([H])C2([H])C(C([H])([H])[H])(C([H])([H])[H])C(=O)C([H])([H])C2(C([H])([H])[H])C2([H])C([H])([H])C([H])=C3C([H])(C([H])([H])C([H])(O[H])C3(C([H])([H])[H])C([H])([H])[H])C12[H]

$$$$
33:0:1
     RDKit          3D

 56 59  0  0  1  0  0  0  0  0999 V2000
    4.1934   -3.0782   -3.8032 C   0  0  0  0  0  0  0  0  0  0  0  0
    3.5968   -2.6359   -2.4500 C   0  0  0  0  0  0  0  0  0  0  0  0
    2.1372   -3.1068   -2.3976 C   0  0  0  0  0  0  0  0  0  0  0  0
    4.3316   -3.2083   -1.2436 C   0  0  0  0  0  0  0  0  0  0  0  0
    5.0159   -4.3584   -1.1730 C   0  0  0  0  0  0  0  0  0  0  0  0
    5.7841   -4.8181    0.0531 C   0  0  0  0  0  0  0  0  0  0  0  0
    5.5269   -3.9675    1.3201 C   0  0  1  0  0  0  0  0  0  0  0  0
    5.4174   -2.4692    0.9499 C   0  0  2  0  0  0  0  0  0  0  0  0
    5.2778   -1.6667    2.2502 C   0  0  1  0  0  0  0  0  0  0  0  0
    5.3302   -0.2764    2.0140 O   0  0  0  0  0  0  0  0  0  0  0  0
    3.9828   -2.0269    2.9803 C   0  0  0  0  0  0  0  0  0  0  0  0
    3.8483   -3.5359    3.3440 C   0  0  1  0  0  0  0  0  0  0  0  0
    2.3772   -3.9911    3.6755 C   0  0  0  0  0  0  0  0  0  0  0  0
    2.2886   -4.6808    5.0528 C   0  0  0  0  0  0  0  0  0  0  0  0
    1.2969   -2.8802    3.6436 C   0  0  0  0  0  0  0  0  0  0  0  0
    2.0645   -4.9839    2.5569 C   0  0  0  0  0  0  0  0  0  0  0  0
    1.0263   -5.6447    2.4781 O   0  0  0  0  0  0  0  0  0  0  0  0
    3.1599   -5.0307    1.5179 C   0  0  0  0  0  0  0  0  0  0  0  0
    4.4112   -4.5405    2.2677 C   0  0  1  0  0  0  0  0  0  0  0  0
    5.0384   -5.7543    3.0177 C   0  0  0  0  0  0  0  0  0  0  0  0
    4.3288   -2.1971   -0.1276 C   0  0  1  0  0  0  0  0  0  0  0  0
    4.4695   -0.8916   -0.8988 C   0  0  0  0  0  0  0  0  0  0  0  0
    3.6546   -1.1013   -2.1932 C   0  0  1  0  0  0  0  0  0  0  0  0
    4.1856   -0.3247   -3.2482 O   0  0  0  0  0  0  0  0  0  0  0  0
    3.6615   -2.5978   -4.6250 H   0  0  0  0  0  0  0  0  0  0  0  0
    4.0950   -4.1530   -3.9553 H   0  0  0  0  0  0  0  0  0  0  0  0
    5.2472   -2.8234   -3.8833 H   0  0  0  0  0  0  0  0  0  0  0  0
    1.5306   -2.6490   -3.1809 H   0  0  0  0  0  0  0  0  0  0  0  0
    1.6997   -2.8689   -1.4334 H   0  0  0  0  0  0  0  0  0  0  0  0
    2.0436   -4.1850   -2.5064 H   0  0  0  0  0  0  0  0  0  0  0  0
    5.0293   -5.0194   -2.0269 H   0  0  0  0  0  0  0  0  0  0  0  0
    5.5756   -5.8741    0.2183 H   0  0  0  0  0  0  0  0  0  0  0  0
    6.8406   -4.7488   -0.1991 H   0  0  0  0  0  0  0  0  0  0  0  0
    6.4507   -4.0373    1.9017 H   0  0  0  0  0  0  0  0  0  0  0  0
    6.3757   -2.1954    0.5061 H   0  0  0  0  0  0  0  0  0  0  0  0
    6.1264   -1.8926    2.8928 H   0  0  0  0  0  0  0  0  0  0  0  0
    4.5735   -0.0366    1.4993 H   0  0  0  0  0  0  0  0  0  0  0  0
    3.9353   -1.4529    3.9072 H   0  0  0  0  0  0  0  0  0  0  0  0
    3.1488   -1.6722    2.3826 H   0  0  0  0  0  0  0  0  0  0  0  0
    4.4539   -3.6515    4.2446 H   0  0  0  0  0  0  0  0  0  0  0  0
    2.5454   -3.9864    5.8543 H   0  0  0  0  0  0  0  0  0  0  0  0
    2.9602   -5.5340    5.1393 H   0  0  0  0  0  0  0  0  0  0  0  0
    1.2818   -5.0508    5.2554 H   0  0  0  0  0  0  0  0  0  0  0  0
    1.5268   -2.0589    4.3239 H   0  0  0  0  0  0  0  0  0  0  0  0
    0.3186   -3.2677    3.9340 H   0  0  0  0  0  0  0  0  0  0  0  0
    1.1575   -2.4632    2.6451 H   0  0  0  0  0  0  0  0  0  0  0  0
    3.2744   -6.0296    1.1026 H   0  0  0  0  0  0  0  0  0  0  0  0
    2.8729   -4.3651    0.7104 H   0  0  0  0  0  0  0  0  0  0  0  0
    4.3172   -6.2998    3.6247 H   0  0  0  0  0  0  0  0  0  0  0  0
    5.8419   -5.4339    3.6847 H   0  0  0  0  0  0  0  0  0  0  0  0
    5.4664   -6.4876    2.3329 H   0  0  0  0  0  0  0  0  0  0  0  0
    3.3298   -2.2414    0.2998 H   0  0  0  0  0  0  0  0  0  0  0  0
    4.1246   -0.0432   -0.3139 H   0  0  0  0  0  0  0  0  0  0  0  0
    5.5161   -0.7094   -1.1408 H   0  0  0  0  0  0  0  0  0  0  0  0
    2.6422   -0.7285   -2.0319 H   0  0  0  0  0  0  0  0  0  0  0  0
    3.8669    0.5610   -3.1406 H   0  0  0  0  0  0  0  0  0  0  0  0
  1  2  1  0
  1 25  1  0
  1 26  1  0
  1 27  1  0
  2 23  1  0
  2  3  1  0
  2  4  1  0
  3 28  1  0
  3 29  1  0
  3 30  1  0
  4 21  1  0
  4  5  2  0
  5  6  1  0
  5 31  1  0
  6  7  1  0
  6 32  1  0
  6 33  1  0
  7 19  1  0
  7  8  1  0
  7 34  1  1
  8  9  1  0
  8 21  1  0
  8 35  1  6
  9 10  1  0
  9 11  1  0
  9 36  1  1
 10 37  1  0
 11 12  1  0
 11 38  1  0
 11 39  1  0
 12 19  1  0
 12 13  1  0
 12 40  1  1
 13 14  1  0
 13 15  1  0
 13 16  1  0
 14 41  1  0
 14 42  1  0
 14 43  1  0
 15 44  1  0
 15 45  1  0
 15 46  1  0
 16 17  2  0
 16 18  1  0
 18 19  1  0
 18 47  1  0
 18 48  1  0
 19 20  1  1
 20 49  1  0
 20 50  1  0
 20 51  1  0
 21 22  1  0
 21 52  1  1
 22 23  1  0
 22 53  1  0
 22 54  1  0
 23 24  1  0
 23 55  1  1
 24 56  1  0
M  END
>  <i_m_ct_stereo_status>  (103) 
1

>  <s_m_source_file>  (103) 
/var/tmp/pbs.5076255.sched01/tmp3foza_40/36o9al7bb4.sdf

>  <i_m_source_file_index>  (103) 
7

>  <i_lp_mmshare_version>  (103) 
48012

>  <i_f3d_flags>  (103) 
0

>  <s_epik_input>  (103) 
W0NIMl0xW0NAQEhdKFtPSF0pQyhbQ0gzXSkoW0NIM10pQyg9W0NIXVtDSDJdMilbQ0BIXTFbQ0BIXShbQ0BIXTJbQ0BAXTM0W0NIM10pW0NAQEhdKFtPSF0pW0NIMl1bQ0BIXTNDKFtDSDNdKShbQ0gzXSlDKD1PKVtDSDJdNA==

>  <s_epik_cmdline>  (103) 
J2VwaWtfcHl0aG9uJywgJy1waHQnLCAnMi4wJywgJy1waCcsICc3LjAnLCAnLXRuJywgJzgnLCAnLW1hJywgJzIwMCcsICctaW1hZScsICc8aW5maWxlLm1hZT4nLCAnLW9tYWUnLCAnPG91dGZpbGUubWFlPic=

>  <r_lp_tautomer_probability>  (103) 
1

>  <r_epik_Ionization_Penalty>  (103) 
1.73372e-06

>  <r_epik_Ionization_Penalty_Charging>  (103) 
0

>  <r_epik_Ionization_Penalty_Neutral>  (103) 
1.73372e-06

>  <r_epik_State_Penalty>  (103) 
-0

>  <r_epik_Charging_Adjusted_Penalty>  (103) 
0

>  <i_epik_Tot_Q>  (103) 
0

>  <i_epik_Tot_abs_Q>  (103) 
0

>  <s_lp_Force_Field>  (103) 
OPLS3e

>  <r_lp_Energy>  (103) 
29.5689

>  <b_lp_Chiralities_Consistent>  (103) 
1

>  <s_lp_Variant>  (103) 
33:0-1

>  <s_i_glide_gridfile>  (103) 
pfpi4k_grid

>  <i_i_glide_lignum>  (103) 
7

>  <i_i_glide_rotatable_bonds>  (103) 
2

>  <r_i_docking_score>  (103) 
-3.93256

>  <r_i_glide_ligand_efficiency>  (103) 
-0.163857

>  <r_i_glide_ligand_efficiency_sa>  (103) 
-0.472644

>  <r_i_glide_ligand_efficiency_ln>  (103) 
-0.941241

>  <r_i_glide_gscore>  (103) 
-3.93256

>  <r_i_glide_lipo>  (103) 
-0.587684

>  <r_i_glide_hbond>  (103) 
-0.204305

>  <r_i_glide_metal>  (103) 
-0

>  <r_i_glide_rewards>  (103) 
-1.1422

>  <r_i_glide_evdw>  (103) 
-24.8184

>  <r_i_glide_ecoul>  (103) 
-4.96103

>  <r_i_glide_erotb>  (103) 
0

>  <r_i_glide_esite>  (103) 
-0.0132925

>  <r_i_glide_emodel>  (103) 
-36.9203

>  <r_i_glide_energy>  (103) 
-29.7794

>  <r_i_glide_einternal>  (103) 
0.654984

>  <r_i_glide_intrahb_reward>  (103) 
-0

>  <i_i_glide_confnum>  (103) 
2

>  <i_i_glide_posenum>  (103) 
1

>  <r_i_glide_eff_state_penalty>  (103) 
0

>  <ligand_id>  (103) 
33

>  <original_smiles>  (103) 
CC1(C)C2=CCC3C(C(O)CC4C(C)(C)C(=O)CC34C)C2CC1O

>  <smiles>  (103) 
[H]OC1([H])C([H])([H])C2([H])C(C([H])([H])[H])(C([H])([H])[H])C(=O)C([H])([H])C2(C([H])([H])[H])C2([H])C([H])([H])C([H])=C3C([H])(C([H])([H])C([H])(O[H])C3(C([H])([H])[H])C([H])([H])[H])C12[H]

$$$$
33:0:2
     RDKit          3D

 56 59  0  0  1  0  0  0  0  0999 V2000
    3.9634   -3.4545   -3.8932 C   0  0  0  0  0  0  0  0  0  0  0  0
    3.5289   -2.8032   -2.5532 C   0  0  0  0  0  0  0  0  0  0  0  0
    2.0765   -3.1793   -2.2892 C   0  0  0  0  0  0  0  0  0  0  0  0
    4.3444   -3.2277   -1.3393 C   0  0  0  0  0  0  0  0  0  0  0  0
    5.0106   -4.3805   -1.1633 C   0  0  0  0  0  0  0  0  0  0  0  0
    5.8552   -4.6993    0.0536 C   0  0  0  0  0  0  0  0  0  0  0  0
    5.7672   -3.6620    1.1896 C   0  0  1  0  0  0  0  0  0  0  0  0
    5.6800   -2.2417    0.6019 C   0  0  2  0  0  0  0  0  0  0  0  0
    5.6794   -1.2611    1.7673 C   0  0  1  0  0  0  0  0  0  0  0  0
    5.6699    0.0358    1.2741 O   0  0  0  0  0  0  0  0  0  0  0  0
    4.4648   -1.4310    2.6673 C   0  0  0  0  0  0  0  0  0  0  0  0
    4.3278   -2.8473    3.2827 C   0  0  1  0  0  0  0  0  0  0  0  0
    2.8899   -3.1580    3.8140 C   0  0  0  0  0  0  0  0  0  0  0  0
    2.9200   -3.6299    5.2807 C   0  0  0  0  0  0  0  0  0  0  0  0
    1.8546   -2.0056    3.7149 C   0  0  0  0  0  0  0  0  0  0  0  0
    2.4250   -4.2836    2.8871 C   0  0  0  0  0  0  0  0  0  0  0  0
    1.3786   -4.9014    3.0270 O   0  0  0  0  0  0  0  0  0  0  0  0
    3.3943   -4.5487    1.7646 C   0  0  0  0  0  0  0  0  0  0  0  0
    4.7294   -4.0229    2.3136 C   0  0  1  0  0  0  0  0  0  0  0  0
    5.3827   -5.1453    3.1663 C   0  0  0  0  0  0  0  0  0  0  0  0
    4.5014   -2.0646   -0.4007 C   0  0  1  0  0  0  0  0  0  0  0  0
    4.6056   -0.9007   -1.3847 C   0  0  0  0  0  0  0  0  0  0  0  0
    3.6497   -1.2529   -2.5408 C   0  0  1  0  0  0  0  0  0  0  0  0
    4.0872   -0.6951   -3.7588 O   0  0  0  0  0  0  0  0  0  0  0  0
    3.3488   -3.0623   -4.7063 H   0  0  0  0  0  0  0  0  0  0  0  0
    3.8241   -4.5292   -3.9186 H   0  0  0  0  0  0  0  0  0  0  0  0
    5.0095   -3.2614   -4.1069 H   0  0  0  0  0  0  0  0  0  0  0  0
    1.4092   -2.7925   -3.0581 H   0  0  0  0  0  0  0  0  0  0  0  0
    1.7804   -2.7692   -1.3290 H   0  0  0  0  0  0  0  0  0  0  0  0
    1.8980   -4.2504   -2.2068 H   0  0  0  0  0  0  0  0  0  0  0  0
    4.9570   -5.1564   -1.9099 H   0  0  0  0  0  0  0  0  0  0  0  0
    5.6159   -5.7088    0.3927 H   0  0  0  0  0  0  0  0  0  0  0  0
    6.8911   -4.7265   -0.2752 H   0  0  0  0  0  0  0  0  0  0  0  0
    6.7474   -3.6962    1.6816 H   0  0  0  0  0  0  0  0  0  0  0  0
    6.5946   -2.0805    0.0290 H   0  0  0  0  0  0  0  0  0  0  0  0
    6.5857   -1.3932    2.3641 H   0  0  0  0  0  0  0  0  0  0  0  0
    6.5692    0.3458    1.2671 H   0  0  0  0  0  0  0  0  0  0  0  0
    4.5651   -0.7180    3.4820 H   0  0  0  0  0  0  0  0  0  0  0  0
    3.5831   -1.1102    2.1067 H   0  0  0  0  0  0  0  0  0  0  0  0
    5.0338   -2.8551    4.1299 H   0  0  0  0  0  0  0  0  0  0  0  0
    3.2917   -2.8369    5.9348 H   0  0  0  0  0  0  0  0  0  0  0  0
    3.5652   -4.4953    5.4265 H   0  0  0  0  0  0  0  0  0  0  0  0
    1.9300   -3.9090    5.6355 H   0  0  0  0  0  0  0  0  0  0  0  0
    2.1937   -1.1071    4.2352 H   0  0  0  0  0  0  0  0  0  0  0  0
    0.9030   -2.2926    4.1565 H   0  0  0  0  0  0  0  0  0  0  0  0
    1.6276   -1.7375    2.6824 H   0  0  0  0  0  0  0  0  0  0  0  0
    3.4242   -5.6084    1.5059 H   0  0  0  0  0  0  0  0  0  0  0  0
    3.0540   -3.9953    0.9000 H   0  0  0  0  0  0  0  0  0  0  0  0
    4.7129   -5.5566    3.9209 H   0  0  0  0  0  0  0  0  0  0  0  0
    6.2599   -4.7768    3.7046 H   0  0  0  0  0  0  0  0  0  0  0  0
    5.7165   -5.9940    2.5673 H   0  0  0  0  0  0  0  0  0  0  0  0
    3.5522   -1.9908    0.1167 H   0  0  0  0  0  0  0  0  0  0  0  0
    4.3304    0.0368   -0.9040 H   0  0  0  0  0  0  0  0  0  0  0  0
    5.6313   -0.8047   -1.7488 H   0  0  0  0  0  0  0  0  0  0  0  0
    2.6758   -0.7929   -2.3248 H   0  0  0  0  0  0  0  0  0  0  0  0
    4.9608   -1.0325   -3.9410 H   0  0  0  0  0  0  0  0  0  0  0  0
  1  2  1  0
  1 25  1  0
  1 26  1  0
  1 27  1  0
  2 23  1  0
  2  3  1  0
  2  4  1  0
  3 28  1  0
  3 29  1  0
  3 30  1  0
  4 21  1  0
  4  5  2  0
  5  6  1  0
  5 31  1  0
  6  7  1  0
  6 32  1  0
  6 33  1  0
  7 19  1  0
  7  8  1  0
  7 34  1  1
  8  9  1  0
  8 21  1  0
  8 35  1  6
  9 10  1  0
  9 11  1  0
  9 36  1  1
 10 37  1  0
 11 12  1  0
 11 38  1  0
 11 39  1  0
 12 19  1  0
 12 13  1  0
 12 40  1  1
 13 14  1  0
 13 15  1  0
 13 16  1  0
 14 41  1  0
 14 42  1  0
 14 43  1  0
 15 44  1  0
 15 45  1  0
 15 46  1  0
 16 17  2  0
 16 18  1  0
 18 19  1  0
 18 47  1  0
 18 48  1  0
 19 20  1  1
 20 49  1  0
 20 50  1  0
 20 51  1  0
 21 22  1  0
 21 52  1  1
 22 23  1  0
 22 53  1  0
 22 54  1  0
 23 24  1  0
 23 55  1  1
 24 56  1  0
M  END
>  <i_m_ct_stereo_status>  (104) 
1

>  <s_m_source_file>  (104) 
/var/tmp/pbs.5076255.sched01/tmp3foza_40/36o9al7bb4.sdf

>  <i_m_source_file_index>  (104) 
7

>  <i_lp_mmshare_version>  (104) 
48012

>  <i_f3d_flags>  (104) 
0

>  <s_epik_input>  (104) 
W0NIMl0xW0NAQEhdKFtPSF0pQyhbQ0gzXSkoW0NIM10pQyg9W0NIXVtDSDJdMilbQ0BIXTFbQ0BIXShbQ0BIXTJbQ0BAXTM0W0NIM10pW0NAQEhdKFtPSF0pW0NIMl1bQ0BIXTNDKFtDSDNdKShbQ0gzXSlDKD1PKVtDSDJdNA==

>  <s_epik_cmdline>  (104) 
J2VwaWtfcHl0aG9uJywgJy1waHQnLCAnMi4wJywgJy1waCcsICc3LjAnLCAnLXRuJywgJzgnLCAnLW1hJywgJzIwMCcsICctaW1hZScsICc8aW5maWxlLm1hZT4nLCAnLW9tYWUnLCAnPG91dGZpbGUubWFlPic=

>  <r_lp_tautomer_probability>  (104) 
1

>  <r_epik_Ionization_Penalty>  (104) 
1.73372e-06

>  <r_epik_Ionization_Penalty_Charging>  (104) 
0

>  <r_epik_Ionization_Penalty_Neutral>  (104) 
1.73372e-06

>  <r_epik_State_Penalty>  (104) 
-0

>  <r_epik_Charging_Adjusted_Penalty>  (104) 
0

>  <i_epik_Tot_Q>  (104) 
0

>  <i_epik_Tot_abs_Q>  (104) 
0

>  <s_lp_Force_Field>  (104) 
OPLS3e

>  <r_lp_Energy>  (104) 
29.5689

>  <b_lp_Chiralities_Consistent>  (104) 
1

>  <s_lp_Variant>  (104) 
33:0-1

>  <s_i_glide_gridfile>  (104) 
pfpi4k_grid

>  <i_i_glide_lignum>  (104) 
7

>  <i_i_glide_rotatable_bonds>  (104) 
2

>  <r_i_docking_score>  (104) 
-3.91853

>  <r_i_glide_ligand_efficiency>  (104) 
-0.163272

>  <r_i_glide_ligand_efficiency_sa>  (104) 
-0.470958

>  <r_i_glide_ligand_efficiency_ln>  (104) 
-0.937884

>  <r_i_glide_gscore>  (104) 
-3.91853

>  <r_i_glide_lipo>  (104) 
-0.642076

>  <r_i_glide_hbond>  (104) 
-0.578964

>  <r_i_glide_metal>  (104) 
-0

>  <r_i_glide_rewards>  (104) 
-1.1422

>  <r_i_glide_evdw>  (104) 
-21.708

>  <r_i_glide_ecoul>  (104) 
-3.10783

>  <r_i_glide_erotb>  (104) 
0

>  <r_i_glide_esite>  (104) 
-0.00371222

>  <r_i_glide_emodel>  (104) 
-31.3211

>  <r_i_glide_energy>  (104) 
-24.8158

>  <r_i_glide_einternal>  (104) 
1.11369

>  <r_i_glide_intrahb_reward>  (104) 
-0

>  <i_i_glide_confnum>  (104) 
1

>  <i_i_glide_posenum>  (104) 
23

>  <r_i_glide_eff_state_penalty>  (104) 
0

>  <ligand_id>  (104) 
33

>  <original_smiles>  (104) 
CC1(C)C2=CCC3C(C(O)CC4C(C)(C)C(=O)CC34C)C2CC1O

>  <smiles>  (104) 
[H]OC1([H])C([H])([H])C2([H])C(C([H])([H])[H])(C([H])([H])[H])C(=O)C([H])([H])C2(C([H])([H])[H])C2([H])C([H])([H])C([H])=C3C([H])(C([H])([H])C([H])(O[H])C3(C([H])([H])[H])C([H])([H])[H])C12[H]

$$$$
34:0:0
     RDKit          3D

 46 52  0  0  1  0  0  0  0  0999 V2000
    4.0627   -6.3680    3.9247 C   0  0  0  0  0  0  0  0  0  0  0  0
    4.5803   -6.0818    2.5176 C   0  0  1  0  0  0  0  0  0  0  0  0
    6.0454   -5.5992    2.4380 C   0  0  0  0  0  0  0  0  0  0  0  0
    5.8307   -6.0915    1.0021 C   0  0  1  0  0  0  0  0  0  0  0  0
    5.1983   -7.2757    1.7520 C   0  0  0  0  0  0  0  0  0  0  0  0
    4.6866   -5.3585    0.3176 C   0  0  2  0  0  0  0  0  0  0  0  0
    5.0348   -4.2681   -0.7797 C   0  0  1  0  0  0  0  0  0  0  0  0
    3.9141   -3.3032   -1.2526 C   0  0  1  0  0  0  0  0  0  0  0  0
    3.5738   -2.2867   -0.1475 C   0  0  1  0  0  0  0  0  0  0  0  0
    2.7824   -2.7866    1.0793 C   0  0  0  0  0  0  0  0  0  0  0  0
    3.4756   -3.7728    2.0430 C   0  0  0  0  0  0  0  0  0  0  0  0
    3.6893   -5.2269    1.5372 C   0  0  2  0  0  0  0  0  0  0  0  0
    2.3161   -5.9040    1.1517 C   0  0  0  0  0  0  0  0  0  0  0  0
    1.1589   -5.9716    2.1499 C   0  0  0  0  0  0  0  0  0  0  0  0
    0.0449   -6.2574    1.6584 O   0  0  0  0  0  0  0  0  0  0  0  0
    1.3563   -5.7187    3.3548 O   0  0  0  0  0  0  0  0  0  0  0  0
    4.9374   -1.6876    0.1243 C   0  0  0  0  0  0  0  0  0  0  0  0
    5.9268   -2.5474    0.4335 C   0  0  0  0  0  0  0  0  0  0  0  0
    6.3732   -3.3425   -0.8062 C   0  0  1  0  0  0  0  0  0  0  0  0
    6.0541   -3.1505   -2.3954 C   0  0  0  0  0  0  0  0  0  0  0  0
    4.7497   -2.4121   -2.2028 C   0  0  2  0  0  0  0  0  0  0  0  0
    5.3659   -1.3760   -1.2640 C   0  0  2  0  0  0  0  0  0  0  0  0
    6.6428   -1.9749   -1.2103 O   0  0  0  0  0  0  0  0  0  0  0  0
    3.7160   -5.4597    4.4184 H   0  0  0  0  0  0  0  0  0  0  0  0
    4.8606   -6.7679    4.5413 H   0  0  0  0  0  0  0  0  0  0  0  0
    3.2313   -7.0804    3.9061 H   0  0  0  0  0  0  0  0  0  0  0  0
    6.1830   -4.5303    2.5716 H   0  0  0  0  0  0  0  0  0  0  0  0
    6.7709   -6.1485    3.0357 H   0  0  0  0  0  0  0  0  0  0  0  0
    6.7310   -6.3107    0.4141 H   0  0  0  0  0  0  0  0  0  0  0  0
    5.8709   -7.9233    2.3097 H   0  0  0  0  0  0  0  0  0  0  0  0
    4.4892   -7.8621    1.1655 H   0  0  0  0  0  0  0  0  0  0  0  0
    4.2077   -6.1205   -0.3139 H   0  0  0  0  0  0  0  0  0  0  0  0
    5.1348   -5.0286   -1.5570 H   0  0  0  0  0  0  0  0  0  0  0  0
    3.0615   -3.8020   -1.7157 H   0  0  0  0  0  0  0  0  0  0  0  0
    2.9664   -1.4887   -0.6005 H   0  0  0  0  0  0  0  0  0  0  0  0
    2.5185   -1.9058    1.6636 H   0  0  0  0  0  0  0  0  0  0  0  0
    1.8295   -3.1888    0.7435 H   0  0  0  0  0  0  0  0  0  0  0  0
    4.3901   -3.3327    2.4165 H   0  0  0  0  0  0  0  0  0  0  0  0
    2.8583   -3.8132    2.9375 H   0  0  0  0  0  0  0  0  0  0  0  0
    1.9208   -5.3875    0.2754 H   0  0  0  0  0  0  0  0  0  0  0  0
    2.4736   -6.9260    0.8039 H   0  0  0  0  0  0  0  0  0  0  0  0
    6.1803   -2.8624    1.4269 H   0  0  0  0  0  0  0  0  0  0  0  0
    6.7639   -2.6622   -3.0888 H   0  0  0  0  0  0  0  0  0  0  0  0
    5.9282   -4.0525   -3.0035 H   0  0  0  0  0  0  0  0  0  0  0  0
    4.2523   -2.0250   -3.0926 H   0  0  0  0  0  0  0  0  0  0  0  0
    5.3320   -0.3285   -1.5868 H   0  0  0  0  0  0  0  0  0  0  0  0
  2  1  1  1
  1 24  1  0
  1 25  1  0
  1 26  1  0
  2  5  1  0
  2 12  1  0
  2  3  1  0
  3  4  1  0
  3 27  1  0
  3 28  1  0
  4  5  1  0
  4  6  1  0
  4 29  1  6
  5 30  1  0
  5 31  1  0
  6 12  1  0
  6  7  1  0
  6 32  1  6
  7 19  1  0
  7  8  1  0
  7 33  1  6
  8 21  1  0
  8  9  1  0
  8 34  1  6
  9 10  1  0
  9 17  1  0
  9 35  1  6
 10 11  1  0
 10 36  1  0
 10 37  1  0
 11 12  1  0
 11 38  1  0
 11 39  1  0
 12 13  1  6
 13 14  1  0
 13 40  1  0
 13 41  1  0
 14 15  2  0
 14 16  1  0
 17 22  1  0
 17 18  2  0
 19 18  1  6
 18 42  1  0
 19 23  1  0
 19 20  1  0
 20 21  1  0
 20 43  1  0
 20 44  1  0
 21 22  1  0
 21 45  1  6
 22 23  1  0
 22 46  1  6
M  CHG  1  16  -1
M  END
>  <i_m_ct_stereo_status>  (105) 
1

>  <s_m_source_file>  (105) 
/var/tmp/pbs.5076255.sched01/tmp3foza_40/36o9al7bb4.sdf

>  <i_m_source_file_index>  (105) 
8

>  <i_lp_mmshare_version>  (105) 
48012

>  <i_f3d_flags>  (105) 
2

>  <s_epik_input>  (105) 
QzEyM1tDQEBIXTRbQ0BIXTVbQ0BIXTZbQ0gyXVtDQF0oW0NIM10pKFtDSDJdNilbQ0BAXTUoW0NIMl1DKD1PKVtPSF0pW0NIMl1bQ0gyXVtDQEBIXTdbQ0BIXTRbQ0BIXShbQ0gyXTIpW0NASF0oTzMpQzc9W0NIXTE=

>  <s_epik_cmdline>  (105) 
J2VwaWtfcHl0aG9uJywgJy1waHQnLCAnMi4wJywgJy1waCcsICc3LjAnLCAnLXRuJywgJzgnLCAnLW1hJywgJzIwMCcsICctaW1hZScsICc8aW5maWxlLm1hZT4nLCAnLW9tYWUnLCAnPG91dGZpbGUubWFlPic=

>  <r_epik_Ionization_Penalty>  (105) 
0.00584531

>  <r_epik_Ionization_Penalty_Charging>  (105) 
0.00584531

>  <r_epik_Ionization_Penalty_Neutral>  (105) 
3.24399e-11

>  <r_epik_State_Penalty>  (105) 
0.00429503

>  <r_epik_Charging_Adjusted_Penalty>  (105) 
0.0101403

>  <i_epik_Tot_Q>  (105) 
-1

>  <i_epik_Tot_abs_Q>  (105) 
1

>  <s_lp_Force_Field>  (105) 
OPLS3e

>  <r_lp_Energy>  (105) 
253.952

>  <b_lp_Chiralities_Consistent>  (105) 
0

>  <s_lp_Variant>  (105) 
34:0-1

>  <s_i_glide_gridfile>  (105) 
pfpi4k_grid

>  <i_i_glide_lignum>  (105) 
8

>  <i_i_glide_rotatable_bonds>  (105) 
2

>  <r_i_docking_score>  (105) 
-3.98668

>  <r_i_glide_ligand_efficiency>  (105) 
-0.173334

>  <r_i_glide_ligand_efficiency_sa>  (105) 
-0.492939

>  <r_i_glide_ligand_efficiency_ln>  (105) 
-0.964015

>  <r_i_glide_gscore>  (105) 
-3.98668

>  <r_i_glide_lipo>  (105) 
-0.740333

>  <r_i_glide_hbond>  (105) 
-0.522212

>  <r_i_glide_metal>  (105) 
-0

>  <r_i_glide_rewards>  (105) 
-1.28594

>  <r_i_glide_evdw>  (105) 
-16.3854

>  <r_i_glide_ecoul>  (105) 
-4.96859

>  <r_i_glide_erotb>  (105) 
0.191248

>  <r_i_glide_esite>  (105) 
-0.0648787

>  <r_i_glide_emodel>  (105) 
-29.2858

>  <r_i_glide_energy>  (105) 
-21.354

>  <r_i_glide_einternal>  (105) 
0.127035

>  <r_i_glide_intrahb_reward>  (105) 
-0

>  <i_i_glide_confnum>  (105) 
4

>  <i_i_glide_posenum>  (105) 
26

>  <r_i_glide_eff_state_penalty>  (105) 
0

>  <ligand_id>  (105) 
34

>  <original_smiles>  (105) 
CC12CC(C1)C1C3C4C(CCC12CC(=O)O)C1=CC32CC4C1O2

>  <smiles>  (105) 
[H]C1=C2C3([H])OC14C([H])([H])C3([H])C1([H])C2([H])C([H])([H])C([H])([H])C2(C([H])([H])C(=O)[O-])C([H])(C3([H])C([H])([H])C2(C([H])([H])[H])C3([H])[H])C41[H]

$$$$
36:0:0
     RDKit          3D

 67 72  0  0  1  0  0  0  0  0999 V2000
   -2.5976    2.9497    6.5830 C   0  0  0  0  0  0  0  0  0  0  0  0
   -1.6427    3.1895    5.3896 C   0  0  2  0  0  0  0  0  0  0  0  0
   -2.0755    2.2467    4.2233 C   0  0  0  0  0  0  0  0  0  0  0  0
   -1.0649    2.0616    3.0700 C   0  0  0  0  0  0  0  0  0  0  0  0
    0.3372    1.8910    3.6537 C   0  0  1  0  0  0  0  0  0  0  0  0
    1.3289    1.4112    2.7644 O   0  0  0  0  0  0  0  0  0  0  0  0
    2.4954    0.8828    3.4086 C   0  0  1  0  0  0  0  0  0  0  0  0
    2.6701    1.3560    4.8906 C   0  0  1  0  0  0  0  0  0  0  0  0
    4.0616    0.9289    5.3973 C   0  0  0  0  0  0  0  0  0  0  0  0
    4.2814   -0.5857    5.2327 C   0  0  0  0  0  0  0  0  0  0  0  0
    4.0772   -1.0677    3.7809 C   0  0  2  0  0  0  0  0  0  0  0  0
    5.2727   -0.6241    2.8983 C   0  0  0  0  0  0  0  0  0  0  0  0
    5.1415   -1.0433    1.4296 C   0  0  1  0  0  0  0  0  0  0  0  0
    5.2896   -2.4464    1.3154 O   0  0  0  0  0  0  0  0  0  0  0  0
    3.7980   -0.5981    0.8551 C   0  0  0  0  0  0  0  0  0  0  0  0
    2.6154   -1.0614    1.7238 C   0  0  0  0  0  0  0  0  0  0  0  0
    2.6925   -0.6543    3.2169 C   0  0  2  0  0  0  0  0  0  0  0  0
    1.5592   -1.4256    3.9268 C   0  0  0  0  0  0  0  0  0  0  0  0
    2.3272    2.8753    4.8665 C   0  0  2  0  0  0  0  0  0  0  0  0
    2.7150    3.8678    5.9839 C   0  0  2  0  0  0  0  0  0  0  0  0
    4.1955    3.8713    6.4284 C   0  0  0  0  0  0  0  0  0  0  0  0
    1.8040    3.7784    7.2354 C   0  0  0  0  0  0  0  0  0  0  0  0
    0.3029    3.9317    6.9381 C   0  0  0  0  0  0  0  0  0  0  0  0
   -0.1332    3.0109    5.7824 C   0  0  2  0  0  0  0  0  0  0  0  0
    0.8124    3.1026    4.5231 C   0  0  2  0  0  0  0  0  0  0  0  0
    0.8279    4.5385    3.8671 C   0  0  1  0  0  0  0  0  0  0  0  0
   -0.3930    4.9433    3.3054 O   0  0  0  0  0  0  0  0  0  0  0  0
    1.2794    5.4578    4.8587 O   0  0  0  0  0  0  0  0  0  0  0  0
    2.6910    5.1259    5.3030 O   0  0  0  0  0  0  0  0  0  0  0  0
   -2.4511    1.9607    7.0241 H   0  0  0  0  0  0  0  0  0  0  0  0
   -3.6401    3.0071    6.2644 H   0  0  0  0  0  0  0  0  0  0  0  0
   -2.4669    3.6907    7.3702 H   0  0  0  0  0  0  0  0  0  0  0  0
   -1.8298    4.2160    5.0941 H   0  0  0  0  0  0  0  0  0  0  0  0
   -2.3107    1.2651    4.6264 H   0  0  0  0  0  0  0  0  0  0  0  0
   -3.0125    2.6180    3.7927 H   0  0  0  0  0  0  0  0  0  0  0  0
   -1.3358    1.1766    2.5039 H   0  0  0  0  0  0  0  0  0  0  0  0
   -1.1008    2.8641    2.3324 H   0  0  0  0  0  0  0  0  0  0  0  0
    0.1843    1.0378    4.3078 H   0  0  0  0  0  0  0  0  0  0  0  0
    3.2939    1.3704    2.8462 H   0  0  0  0  0  0  0  0  0  0  0  0
    1.9601    0.8820    5.5631 H   0  0  0  0  0  0  0  0  0  0  0  0
    4.8605    1.4803    4.8966 H   0  0  0  0  0  0  0  0  0  0  0  0
    4.1466    1.1247    6.4634 H   0  0  0  0  0  0  0  0  0  0  0  0
    5.2737   -0.8655    5.5832 H   0  0  0  0  0  0  0  0  0  0  0  0
    3.5904   -1.1188    5.8847 H   0  0  0  0  0  0  0  0  0  0  0  0
    4.1224   -2.1595    3.8087 H   0  0  0  0  0  0  0  0  0  0  0  0
    5.3606    0.4615    2.9237 H   0  0  0  0  0  0  0  0  0  0  0  0
    6.2001   -1.0090    3.2936 H   0  0  0  0  0  0  0  0  0  0  0  0
    5.9530   -0.5907    0.8563 H   0  0  0  0  0  0  0  0  0  0  0  0
    4.5705   -2.8544    1.7552 H   0  0  0  0  0  0  0  0  0  0  0  0
    3.7887    0.4875    0.7721 H   0  0  0  0  0  0  0  0  0  0  0  0
    3.6808   -0.9744   -0.1639 H   0  0  0  0  0  0  0  0  0  0  0  0
    1.6847   -0.6912    1.3055 H   0  0  0  0  0  0  0  0  0  0  0  0
    2.5608   -2.1465    1.6502 H   0  0  0  0  0  0  0  0  0  0  0  0
    1.7004   -2.5015    3.8348 H   0  0  0  0  0  0  0  0  0  0  0  0
    0.5905   -1.1879    3.4890 H   0  0  0  0  0  0  0  0  0  0  0  0
    1.4973   -1.2077    4.9918 H   0  0  0  0  0  0  0  0  0  0  0  0
    2.9254    3.2258    4.0288 H   0  0  0  0  0  0  0  0  0  0  0  0
    4.4167    3.0991    7.1623 H   0  0  0  0  0  0  0  0  0  0  0  0
    4.4391    4.8194    6.9115 H   0  0  0  0  0  0  0  0  0  0  0  0
    4.8671    3.7638    5.5779 H   0  0  0  0  0  0  0  0  0  0  0  0
    1.9510    2.7845    7.6660 H   0  0  0  0  0  0  0  0  0  0  0  0
    2.1118    4.4847    8.0029 H   0  0  0  0  0  0  0  0  0  0  0  0
   -0.2373    3.6790    7.8503 H   0  0  0  0  0  0  0  0  0  0  0  0
    0.0615    4.9765    6.7505 H   0  0  0  0  0  0  0  0  0  0  0  0
   -0.0533    2.0139    6.2024 H   0  0  0  0  0  0  0  0  0  0  0  0
    1.5328    4.5390    3.0363 H   0  0  0  0  0  0  0  0  0  0  0  0
   -0.2568    4.8575    2.3177 H   0  0  0  0  0  0  0  0  0  0  0  0
  1  2  1  0
  1 30  1  0
  1 31  1  0
  1 32  1  0
  2 24  1  0
  2  3  1  0
  2 33  1  6
  3  4  1  0
  3 34  1  0
  3 35  1  0
  4  5  1  0
  4 36  1  0
  4 37  1  0
  5 25  1  0
  5  6  1  0
  5 38  1  1
  6  7  1  0
  7 17  1  0
  7  8  1  0
  7 39  1  6
  8  9  1  0
  8 19  1  0
  8 40  1  1
  9 10  1  0
  9 41  1  0
  9 42  1  0
 10 11  1  0
 10 43  1  0
 10 44  1  0
 11 17  1  0
 11 12  1  0
 11 45  1  1
 12 13  1  0
 12 46  1  0
 12 47  1  0
 13 14  1  0
 13 15  1  0
 13 48  1  6
 14 49  1  0
 15 16  1  0
 15 50  1  0
 15 51  1  0
 16 17  1  0
 16 52  1  0
 16 53  1  0
 17 18  1  1
 18 54  1  0
 18 55  1  0
 18 56  1  0
 19 25  1  0
 19 20  1  0
 19 57  1  6
 20 29  1  0
 20 21  1  1
 20 22  1  0
 21 58  1  0
 21 59  1  0
 21 60  1  0
 22 23  1  0
 22 61  1  0
 22 62  1  0
 23 24  1  0
 23 63  1  0
 23 64  1  0
 24 25  1  0
 24 65  1  1
 25 26  1  6
 26 27  1  0
 26 28  1  0
 26 66  1  6
 27 67  1  0
 28 29  1  0
M  END
>  <i_m_ct_stereo_status>  (106) 
1

>  <s_m_source_file>  (106) 
/var/tmp/pbs.5076255.sched01/tmp3foza_40/36o9al7bb4.sdf

>  <i_m_source_file_index>  (106) 
10

>  <i_lp_mmshare_version>  (106) 
48012

>  <i_f3d_flags>  (106) 
0

>  <s_epik_input>  (106) 
W0NAQF0xMjNbQ0BIXTRbQ0gyXVtDSDJdW0NAQEhdKFtDSDNdKVtDQEBIXTJbQ0gyXVtDSDJdW0NAXShbQ0gzXSkoT09bQ0BASF0zW09IXSlbQ0BIXTFbQ0BIXTVbQ0BIXShPNClbQ0BdNihbQ0gzXSlbQ0BIXShbQ0gyXVtDSDJdNSlbQ0gyXVtDQEBIXShbT0hdKVtDSDJdW0NIMl02

>  <s_epik_cmdline>  (106) 
J2VwaWtfcHl0aG9uJywgJy1waHQnLCAnMi4wJywgJy1waCcsICc3LjAnLCAnLXRuJywgJzgnLCAnLW1hJywgJzIwMCcsICctaW1hZScsICc8aW5maWxlLm1hZT4nLCAnLW9tYWUnLCAnPG91dGZpbGUubWFlPic=

>  <r_lp_tautomer_probability>  (106) 
1

>  <r_epik_Ionization_Penalty>  (106) 
4.3062e-06

>  <r_epik_Ionization_Penalty_Charging>  (106) 
0

>  <r_epik_Ionization_Penalty_Neutral>  (106) 
4.3062e-06

>  <r_epik_State_Penalty>  (106) 
-0

>  <r_epik_Charging_Adjusted_Penalty>  (106) 
0

>  <i_epik_Tot_Q>  (106) 
0

>  <i_epik_Tot_abs_Q>  (106) 
0

>  <s_epik_Chemistry_Notes>  (106) 
This compound contains an acetal/aminal-like group ( X-CH(R)-Y where X, Y are N, S, or O) that may be acid/base labile, releasing an aldehyde.

>  <s_lp_Force_Field>  (106) 
OPLS3e

>  <r_lp_Energy>  (106) 
82.4381

>  <b_lp_Chiralities_Consistent>  (106) 
1

>  <s_lp_Variant>  (106) 
36:0-1

>  <s_i_glide_gridfile>  (106) 
pfpi4k_grid

>  <i_i_glide_lignum>  (106) 
10

>  <i_i_glide_rotatable_bonds>  (106) 
2

>  <r_i_docking_score>  (106) 
-3.40591

>  <r_i_glide_ligand_efficiency>  (106) 
-0.117445

>  <r_i_glide_ligand_efficiency_sa>  (106) 
-0.360829

>  <r_i_glide_ligand_efficiency_ln>  (106) 
-0.779868

>  <r_i_glide_gscore>  (106) 
-3.40591

>  <r_i_glide_lipo>  (106) 
-0.40561

>  <r_i_glide_hbond>  (106) 
0

>  <r_i_glide_metal>  (106) 
-0

>  <r_i_glide_rewards>  (106) 
-0.637121

>  <r_i_glide_evdw>  (106) 
-26.3814

>  <r_i_glide_ecoul>  (106) 
-6.44907

>  <r_i_glide_erotb>  (106) 
0

>  <r_i_glide_esite>  (106) 
-0.076756

>  <r_i_glide_emodel>  (106) 
-38.4632

>  <r_i_glide_energy>  (106) 
-32.8304

>  <r_i_glide_einternal>  (106) 
1.96326

>  <r_i_glide_intrahb_reward>  (106) 
-0

>  <i_i_glide_confnum>  (106) 
2

>  <i_i_glide_posenum>  (106) 
7

>  <r_i_glide_eff_state_penalty>  (106) 
0

>  <ligand_id>  (106) 
36

>  <original_smiles>  (106) 
CC1CCC2OC3C(CCC4CC(O)CCC43C)C3C4(C)CCC1C23C(O)OO4

>  <smiles>  (106) 
[H]OC1([H])OOC2(C([H])([H])[H])C([H])([H])C([H])([H])C3([H])C([H])(C([H])([H])[H])C([H])([H])C([H])([H])C4([H])OC5([H])C([H])(C([H])([H])C([H])([H])C6([H])C([H])([H])C([H])(O[H])C([H])([H])C([H])([H])C56C([H])([H])[H])C2([H])C143

$$$$
36:0:1
     RDKit          3D

 67 72  0  0  1  0  0  0  0  0999 V2000
    2.4248   -2.9499    8.3761 C   0  0  0  0  0  0  0  0  0  0  0  0
    1.6182   -2.8167    7.0728 C   0  0  2  0  0  0  0  0  0  0  0  0
    1.5575   -4.2186    6.3929 C   0  0  0  0  0  0  0  0  0  0  0  0
    1.1163   -4.2572    4.9094 C   0  0  0  0  0  0  0  0  0  0  0  0
    1.7880   -3.1094    4.1561 C   0  0  1  0  0  0  0  0  0  0  0  0
    1.7303   -3.1831    2.7452 O   0  0  0  0  0  0  0  0  0  0  0  0
    2.6804   -2.3386    2.0671 C   0  0  1  0  0  0  0  0  0  0  0  0
    3.2604   -1.1921    2.9657 C   0  0  1  0  0  0  0  0  0  0  0  0
    4.0792   -0.2364    2.0774 C   0  0  0  0  0  0  0  0  0  0  0  0
    5.1694   -0.9796    1.2888 C   0  0  0  0  0  0  0  0  0  0  0  0
    4.6114   -2.1274    0.4258 C   0  0  2  0  0  0  0  0  0  0  0  0
    3.8671   -1.5615   -0.8090 C   0  0  0  0  0  0  0  0  0  0  0  0
    3.2711   -2.6500   -1.7096 C   0  0  1  0  0  0  0  0  0  0  0  0
    4.2861   -3.3737   -2.3697 O   0  0  0  0  0  0  0  0  0  0  0  0
    2.3942   -3.5990   -0.8901 C   0  0  0  0  0  0  0  0  0  0  0  0
    3.1356   -4.1838    0.3209 C   0  0  0  0  0  0  0  0  0  0  0  0
    3.7606   -3.1296    1.2718 C   0  0  2  0  0  0  0  0  0  0  0  0
    4.6649   -3.9129    2.2465 C   0  0  0  0  0  0  0  0  0  0  0  0
    2.0349   -0.6250    3.7297 C   0  0  2  0  0  0  0  0  0  0  0  0
    2.0023    0.7546    4.4369 C   0  0  2  0  0  0  0  0  0  0  0  0
    2.4602    1.9606    3.6052 C   0  0  0  0  0  0  0  0  0  0  0  0
    2.7432    0.7524    5.7937 C   0  0  0  0  0  0  0  0  0  0  0  0
    2.2600   -0.3125    6.7870 C   0  0  0  0  0  0  0  0  0  0  0  0
    2.1782   -1.7040    6.1242 C   0  0  2  0  0  0  0  0  0  0  0  0
    1.4556   -1.6904    4.7185 C   0  0  2  0  0  0  0  0  0  0  0  0
   -0.0577   -1.2701    4.8053 C   0  0  1  0  0  0  0  0  0  0  0  0
   -0.8976   -2.1895    5.4729 O   0  0  0  0  0  0  0  0  0  0  0  0
   -0.0896    0.0065    5.4191 O   0  0  0  0  0  0  0  0  0  0  0  0
    0.6019    1.0236    4.5216 O   0  0  0  0  0  0  0  0  0  0  0  0
    3.4798   -3.1526    8.1738 H   0  0  0  0  0  0  0  0  0  0  0  0
    2.0510   -3.7730    8.9878 H   0  0  0  0  0  0  0  0  0  0  0  0
    2.3693   -2.0525    8.9936 H   0  0  0  0  0  0  0  0  0  0  0  0
    0.6143   -2.5409    7.3984 H   0  0  0  0  0  0  0  0  0  0  0  0
    2.5459   -4.6821    6.4642 H   0  0  0  0  0  0  0  0  0  0  0  0
    0.8947   -4.8676    6.9620 H   0  0  0  0  0  0  0  0  0  0  0  0
    1.4281   -5.2010    4.4711 H   0  0  0  0  0  0  0  0  0  0  0  0
    0.0367   -4.2604    4.7819 H   0  0  0  0  0  0  0  0  0  0  0  0
    2.8395   -3.3163    4.3537 H   0  0  0  0  0  0  0  0  0  0  0  0
    2.0482   -1.8459    1.3258 H   0  0  0  0  0  0  0  0  0  0  0  0
    3.9589   -1.5638    3.7109 H   0  0  0  0  0  0  0  0  0  0  0  0
    3.4352    0.3247    1.3987 H   0  0  0  0  0  0  0  0  0  0  0  0
    4.5975    0.4805    2.7060 H   0  0  0  0  0  0  0  0  0  0  0  0
    5.7229   -0.2760    0.6638 H   0  0  0  0  0  0  0  0  0  0  0  0
    5.9040   -1.3770    1.9913 H   0  0  0  0  0  0  0  0  0  0  0  0
    5.4704   -2.6699    0.0286 H   0  0  0  0  0  0  0  0  0  0  0  0
    3.0482   -0.9223   -0.4861 H   0  0  0  0  0  0  0  0  0  0  0  0
    4.5295   -0.9233   -1.3986 H   0  0  0  0  0  0  0  0  0  0  0  0
    2.6486   -2.1779   -2.4726 H   0  0  0  0  0  0  0  0  0  0  0  0
    3.8956   -4.1679   -2.7136 H   0  0  0  0  0  0  0  0  0  0  0  0
    1.5155   -3.0626   -0.5495 H   0  0  0  0  0  0  0  0  0  0  0  0
    1.9926   -4.3878   -1.5212 H   0  0  0  0  0  0  0  0  0  0  0  0
    2.4627   -4.8380    0.8739 H   0  0  0  0  0  0  0  0  0  0  0  0
    3.9257   -4.8256   -0.0627 H   0  0  0  0  0  0  0  0  0  0  0  0
    5.4529   -4.4439    1.7137 H   0  0  0  0  0  0  0  0  0  0  0  0
    4.0895   -4.6586    2.7975 H   0  0  0  0  0  0  0  0  0  0  0  0
    5.1554   -3.2788    2.9840 H   0  0  0  0  0  0  0  0  0  0  0  0
    1.3191   -0.4800    2.9179 H   0  0  0  0  0  0  0  0  0  0  0  0
    3.5438    2.0871    3.5933 H   0  0  0  0  0  0  0  0  0  0  0  0
    2.0644    2.8876    4.0331 H   0  0  0  0  0  0  0  0  0  0  0  0
    2.0986    1.9133    2.5727 H   0  0  0  0  0  0  0  0  0  0  0  0
    3.7956    0.5520    5.5936 H   0  0  0  0  0  0  0  0  0  0  0  0
    2.7130    1.7381    6.2621 H   0  0  0  0  0  0  0  0  0  0  0  0
    2.9567   -0.3338    7.6232 H   0  0  0  0  0  0  0  0  0  0  0  0
    1.3092   -0.0180    7.2347 H   0  0  0  0  0  0  0  0  0  0  0  0
    3.2237   -1.9637    5.9583 H   0  0  0  0  0  0  0  0  0  0  0  0
   -0.4889   -1.1668    3.8169 H   0  0  0  0  0  0  0  0  0  0  0  0
   -0.3767   -2.6156    6.1229 H   0  0  0  0  0  0  0  0  0  0  0  0
  1  2  1  0
  1 30  1  0
  1 31  1  0
  1 32  1  0
  2 24  1  0
  2  3  1  0
  2 33  1  1
  3  4  1  0
  3 34  1  0
  3 35  1  0
  4  5  1  0
  4 36  1  0
  4 37  1  0
  5 25  1  0
  5  6  1  0
  5 38  1  6
  6  7  1  0
  7 17  1  0
  7  8  1  0
  7 39  1  6
  8  9  1  0
  8 19  1  0
  8 40  1  1
  9 10  1  0
  9 41  1  0
  9 42  1  0
 10 11  1  0
 10 43  1  0
 10 44  1  0
 11 17  1  0
 11 12  1  0
 11 45  1  6
 12 13  1  0
 12 46  1  0
 12 47  1  0
 13 14  1  0
 13 15  1  0
 13 48  1  6
 14 49  1  0
 15 16  1  0
 15 50  1  0
 15 51  1  0
 16 17  1  0
 16 52  1  0
 16 53  1  0
 17 18  1  1
 18 54  1  0
 18 55  1  0
 18 56  1  0
 19 25  1  0
 19 20  1  0
 19 57  1  6
 20 29  1  0
 20 21  1  6
 20 22  1  0
 21 58  1  0
 21 59  1  0
 21 60  1  0
 22 23  1  0
 22 61  1  0
 22 62  1  0
 23 24  1  0
 23 63  1  0
 23 64  1  0
 24 25  1  0
 24 65  1  6
 25 26  1  1
 26 27  1  0
 26 28  1  0
 26 66  1  6
 27 67  1  0
 28 29  1  0
M  END
>  <i_m_ct_stereo_status>  (107) 
1

>  <s_m_source_file>  (107) 
/var/tmp/pbs.5076255.sched01/tmp3foza_40/36o9al7bb4.sdf

>  <i_m_source_file_index>  (107) 
10

>  <i_lp_mmshare_version>  (107) 
48012

>  <i_f3d_flags>  (107) 
0

>  <s_epik_input>  (107) 
W0NAQF0xMjNbQ0BIXTRbQ0gyXVtDSDJdW0NAQEhdKFtDSDNdKVtDQEBIXTJbQ0gyXVtDSDJdW0NAXShbQ0gzXSkoT09bQ0BASF0zW09IXSlbQ0BIXTFbQ0BIXTVbQ0BIXShPNClbQ0BdNihbQ0gzXSlbQ0BIXShbQ0gyXVtDSDJdNSlbQ0gyXVtDQEBIXShbT0hdKVtDSDJdW0NIMl02

>  <s_epik_cmdline>  (107) 
J2VwaWtfcHl0aG9uJywgJy1waHQnLCAnMi4wJywgJy1waCcsICc3LjAnLCAnLXRuJywgJzgnLCAnLW1hJywgJzIwMCcsICctaW1hZScsICc8aW5maWxlLm1hZT4nLCAnLW9tYWUnLCAnPG91dGZpbGUubWFlPic=

>  <r_lp_tautomer_probability>  (107) 
1

>  <r_epik_Ionization_Penalty>  (107) 
4.3062e-06

>  <r_epik_Ionization_Penalty_Charging>  (107) 
0

>  <r_epik_Ionization_Penalty_Neutral>  (107) 
4.3062e-06

>  <r_epik_State_Penalty>  (107) 
-0

>  <r_epik_Charging_Adjusted_Penalty>  (107) 
0

>  <i_epik_Tot_Q>  (107) 
0

>  <i_epik_Tot_abs_Q>  (107) 
0

>  <s_epik_Chemistry_Notes>  (107) 
This compound contains an acetal/aminal-like group ( X-CH(R)-Y where X, Y are N, S, or O) that may be acid/base labile, releasing an aldehyde.

>  <s_lp_Force_Field>  (107) 
OPLS3e

>  <r_lp_Energy>  (107) 
82.4381

>  <b_lp_Chiralities_Consistent>  (107) 
1

>  <s_lp_Variant>  (107) 
36:0-1

>  <s_i_glide_gridfile>  (107) 
pfpi4k_grid

>  <i_i_glide_lignum>  (107) 
10

>  <i_i_glide_rotatable_bonds>  (107) 
2

>  <r_i_docking_score>  (107) 
-2.7564

>  <r_i_glide_ligand_efficiency>  (107) 
-0.0950481

>  <r_i_glide_ligand_efficiency_sa>  (107) 
-0.292018

>  <r_i_glide_ligand_efficiency_ln>  (107) 
-0.631145

>  <r_i_glide_gscore>  (107) 
-2.7564

>  <r_i_glide_lipo>  (107) 
-0.215044

>  <r_i_glide_hbond>  (107) 
-0.229598

>  <r_i_glide_metal>  (107) 
-0

>  <r_i_glide_rewards>  (107) 
-0.637121

>  <r_i_glide_evdw>  (107) 
-23.9558

>  <r_i_glide_ecoul>  (107) 
-3.07527

>  <r_i_glide_erotb>  (107) 
0

>  <r_i_glide_esite>  (107) 
-0.0155499

>  <r_i_glide_emodel>  (107) 
-31.7103

>  <r_i_glide_energy>  (107) 
-27.0311

>  <r_i_glide_einternal>  (107) 
1.92215

>  <r_i_glide_intrahb_reward>  (107) 
-0

>  <i_i_glide_confnum>  (107) 
1

>  <i_i_glide_posenum>  (107) 
6

>  <r_i_glide_eff_state_penalty>  (107) 
0

>  <ligand_id>  (107) 
36

>  <original_smiles>  (107) 
CC1CCC2OC3C(CCC4CC(O)CCC43C)C3C4(C)CCC1C23C(O)OO4

>  <smiles>  (107) 
[H]OC1([H])OOC2(C([H])([H])[H])C([H])([H])C([H])([H])C3([H])C([H])(C([H])([H])[H])C([H])([H])C([H])([H])C4([H])OC5([H])C([H])(C([H])([H])C([H])([H])C6([H])C([H])([H])C([H])(O[H])C([H])([H])C([H])([H])C56C([H])([H])[H])C2([H])C143

$$$$
36:0:2
     RDKit          3D

 67 72  0  0  1  0  0  0  0  0999 V2000
    3.4764   -3.8672    7.6965 C   0  0  0  0  0  0  0  0  0  0  0  0
    2.5356   -3.6551    6.4954 C   0  0  2  0  0  0  0  0  0  0  0  0
    2.5108   -4.9708    5.6585 C   0  0  0  0  0  0  0  0  0  0  0  0
    1.9197   -4.8738    4.2310 C   0  0  0  0  0  0  0  0  0  0  0  0
    2.4235   -3.5924    3.5634 C   0  0  1  0  0  0  0  0  0  0  0  0
    2.2151   -3.5008    2.1621 O   0  0  0  0  0  0  0  0  0  0  0  0
    3.0338   -2.5116    1.5100 C   0  0  1  0  0  0  0  0  0  0  0  0
    3.6143   -1.4319    2.4838 C   0  0  1  0  0  0  0  0  0  0  0  0
    4.2649   -0.3085    1.6526 C   0  0  0  0  0  0  0  0  0  0  0  0
    5.3283   -0.8637    0.6857 C   0  0  0  0  0  0  0  0  0  0  0  0
    4.7762   -1.9529   -0.2562 C   0  0  2  0  0  0  0  0  0  0  0  0
    3.8714   -1.3213   -1.3423 C   0  0  0  0  0  0  0  0  0  0  0  0
    3.2566   -2.3383   -2.3085 C   0  0  1  0  0  0  0  0  0  0  0  0
    4.2545   -2.8836   -3.1566 O   0  0  0  0  0  0  0  0  0  0  0  0
    2.5412   -3.4566   -1.5363 C   0  0  0  0  0  0  0  0  0  0  0  0
    3.4491   -4.0961   -0.4748 C   0  0  0  0  0  0  0  0  0  0  0  0
    4.0912   -3.1119    0.5339 C   0  0  2  0  0  0  0  0  0  0  0  0
    5.1462   -3.9197    1.3190 C   0  0  0  0  0  0  0  0  0  0  0  0
    2.4345   -1.0660    3.4273 C   0  0  2  0  0  0  0  0  0  0  0  0
    2.3752    0.2140    4.2965 C   0  0  2  0  0  0  0  0  0  0  0  0
    2.6474    1.5488    3.5786 C   0  0  0  0  0  0  0  0  0  0  0  0
    3.2483    0.1218    5.5721 C   0  0  0  0  0  0  0  0  0  0  0  0
    2.9447   -1.0894    6.4651 C   0  0  0  0  0  0  0  0  0  0  0  0
    2.9087   -2.3916    5.6440 C   0  0  2  0  0  0  0  0  0  0  0  0
    2.0446   -2.2874    4.3286 C   0  0  2  0  0  0  0  0  0  0  0  0
    0.5201   -2.0057    4.6115 C   0  0  1  0  0  0  0  0  0  0  0  0
   -0.1762   -3.0509    5.2577 O   0  0  0  0  0  0  0  0  0  0  0  0
    0.4399   -0.7897    5.3536 O   0  0  0  0  0  0  0  0  0  0  0  0
    0.9717    0.3679    4.5294 O   0  0  0  0  0  0  0  0  0  0  0  0
    4.5199   -3.9528    7.3812 H   0  0  0  0  0  0  0  0  0  0  0  0
    3.2280   -4.7856    8.2376 H   0  0  0  0  0  0  0  0  0  0  0  0
    3.4126   -3.0551    8.4234 H   0  0  0  0  0  0  0  0  0  0  0  0
    1.5539   -3.5163    6.9504 H   0  0  0  0  0  0  0  0  0  0  0  0
    3.5324   -5.3570    5.5786 H   0  0  0  0  0  0  0  0  0  0  0  0
    1.9570   -5.7360    6.2024 H   0  0  0  0  0  0  0  0  0  0  0  0
    2.2510   -5.7330    3.6537 H   0  0  0  0  0  0  0  0  0  0  0  0
    0.8343   -4.9439    4.2111 H   0  0  0  0  0  0  0  0  0  0  0  0
    3.5023   -3.7334    3.6293 H   0  0  0  0  0  0  0  0  0  0  0  0
    2.2978   -1.9954    0.8966 H   0  0  0  0  0  0  0  0  0  0  0  0
    4.4124   -1.8233    3.1091 H   0  0  0  0  0  0  0  0  0  0  0  0
    3.5191    0.2700    1.1038 H   0  0  0  0  0  0  0  0  0  0  0  0
    4.7865    0.3734    2.3172 H   0  0  0  0  0  0  0  0  0  0  0  0
    5.7638   -0.0504    0.1047 H   0  0  0  0  0  0  0  0  0  0  0  0
    6.1566   -1.2702    1.2679 H   0  0  0  0  0  0  0  0  0  0  0  0
    5.6305   -2.3670   -0.7900 H   0  0  0  0  0  0  0  0  0  0  0  0
    3.0443   -0.7989   -0.8654 H   0  0  0  0  0  0  0  0  0  0  0  0
    4.4158   -0.5587   -1.9043 H   0  0  0  0  0  0  0  0  0  0  0  0
    2.5402   -1.8248   -2.9485 H   0  0  0  0  0  0  0  0  0  0  0  0
    4.7131   -3.5447   -2.6736 H   0  0  0  0  0  0  0  0  0  0  0  0
    1.6578   -3.0532   -1.0466 H   0  0  0  0  0  0  0  0  0  0  0  0
    2.1499   -4.1945   -2.2309 H   0  0  0  0  0  0  0  0  0  0  0  0
    2.8916   -4.8691    0.0522 H   0  0  0  0  0  0  0  0  0  0  0  0
    4.2452   -4.6230   -1.0036 H   0  0  0  0  0  0  0  0  0  0  0  0
    5.9132   -4.3140    0.6545 H   0  0  0  0  0  0  0  0  0  0  0  0
    4.6893   -4.7703    1.8220 H   0  0  0  0  0  0  0  0  0  0  0  0
    5.6601   -3.3350    2.0791 H   0  0  0  0  0  0  0  0  0  0  0  0
    1.6316   -0.8897    2.7085 H   0  0  0  0  0  0  0  0  0  0  0  0
    3.7091    1.7648    3.4843 H   0  0  0  0  0  0  0  0  0  0  0  0
    2.2290    2.3813    4.1498 H   0  0  0  0  0  0  0  0  0  0  0  0
    2.1881    1.5833    2.5882 H   0  0  0  0  0  0  0  0  0  0  0  0
    4.2856    0.0386    5.2460 H   0  0  0  0  0  0  0  0  0  0  0  0
    3.1929    1.0423    6.1538 H   0  0  0  0  0  0  0  0  0  0  0  0
    3.7201   -1.1419    7.2235 H   0  0  0  0  0  0  0  0  0  0  0  0
    2.0229   -0.9284    7.0218 H   0  0  0  0  0  0  0  0  0  0  0  0
    3.9506   -2.5404    5.3525 H   0  0  0  0  0  0  0  0  0  0  0  0
   -0.0089   -1.8771    3.6686 H   0  0  0  0  0  0  0  0  0  0  0  0
    0.2646   -3.2086    6.0736 H   0  0  0  0  0  0  0  0  0  0  0  0
  1  2  1  0
  1 30  1  0
  1 31  1  0
  1 32  1  0
  2 24  1  0
  2  3  1  0
  2 33  1  1
  3  4  1  0
  3 34  1  0
  3 35  1  0
  4  5  1  0
  4 36  1  0
  4 37  1  0
  5 25  1  0
  5  6  1  0
  5 38  1  6
  6  7  1  0
  7 17  1  0
  7  8  1  0
  7 39  1  6
  8  9  1  0
  8 19  1  0
  8 40  1  1
  9 10  1  0
  9 41  1  0
  9 42  1  0
 10 11  1  0
 10 43  1  0
 10 44  1  0
 11 17  1  0
 11 12  1  0
 11 45  1  6
 12 13  1  0
 12 46  1  0
 12 47  1  0
 13 14  1  0
 13 15  1  0
 13 48  1  6
 14 49  1  0
 15 16  1  0
 15 50  1  0
 15 51  1  0
 16 17  1  0
 16 52  1  0
 16 53  1  0
 17 18  1  1
 18 54  1  0
 18 55  1  0
 18 56  1  0
 19 25  1  0
 19 20  1  0
 19 57  1  6
 20 29  1  0
 20 21  1  6
 20 22  1  0
 21 58  1  0
 21 59  1  0
 21 60  1  0
 22 23  1  0
 22 61  1  0
 22 62  1  0
 23 24  1  0
 23 63  1  0
 23 64  1  0
 24 25  1  0
 24 65  1  6
 25 26  1  1
 26 27  1  0
 26 28  1  0
 26 66  1  6
 27 67  1  0
 28 29  1  0
M  END
>  <i_m_ct_stereo_status>  (108) 
1

>  <s_m_source_file>  (108) 
/var/tmp/pbs.5076255.sched01/tmp3foza_40/36o9al7bb4.sdf

>  <i_m_source_file_index>  (108) 
10

>  <i_lp_mmshare_version>  (108) 
48012

>  <i_f3d_flags>  (108) 
0

>  <s_epik_input>  (108) 
W0NAQF0xMjNbQ0BIXTRbQ0gyXVtDSDJdW0NAQEhdKFtDSDNdKVtDQEBIXTJbQ0gyXVtDSDJdW0NAXShbQ0gzXSkoT09bQ0BASF0zW09IXSlbQ0BIXTFbQ0BIXTVbQ0BIXShPNClbQ0BdNihbQ0gzXSlbQ0BIXShbQ0gyXVtDSDJdNSlbQ0gyXVtDQEBIXShbT0hdKVtDSDJdW0NIMl02

>  <s_epik_cmdline>  (108) 
J2VwaWtfcHl0aG9uJywgJy1waHQnLCAnMi4wJywgJy1waCcsICc3LjAnLCAnLXRuJywgJzgnLCAnLW1hJywgJzIwMCcsICctaW1hZScsICc8aW5maWxlLm1hZT4nLCAnLW9tYWUnLCAnPG91dGZpbGUubWFlPic=

>  <r_lp_tautomer_probability>  (108) 
1

>  <r_epik_Ionization_Penalty>  (108) 
4.3062e-06

>  <r_epik_Ionization_Penalty_Charging>  (108) 
0

>  <r_epik_Ionization_Penalty_Neutral>  (108) 
4.3062e-06

>  <r_epik_State_Penalty>  (108) 
-0

>  <r_epik_Charging_Adjusted_Penalty>  (108) 
0

>  <i_epik_Tot_Q>  (108) 
0

>  <i_epik_Tot_abs_Q>  (108) 
0

>  <s_epik_Chemistry_Notes>  (108) 
This compound contains an acetal/aminal-like group ( X-CH(R)-Y where X, Y are N, S, or O) that may be acid/base labile, releasing an aldehyde.

>  <s_lp_Force_Field>  (108) 
OPLS3e

>  <r_lp_Energy>  (108) 
82.4381

>  <b_lp_Chiralities_Consistent>  (108) 
1

>  <s_lp_Variant>  (108) 
36:0-1

>  <s_i_glide_gridfile>  (108) 
pfpi4k_grid

>  <i_i_glide_lignum>  (108) 
10

>  <i_i_glide_rotatable_bonds>  (108) 
2

>  <r_i_docking_score>  (108) 
-2.57413

>  <r_i_glide_ligand_efficiency>  (108) 
-0.0887632

>  <r_i_glide_ligand_efficiency_sa>  (108) 
-0.272709

>  <r_i_glide_ligand_efficiency_ln>  (108) 
-0.589411

>  <r_i_glide_gscore>  (108) 
-2.57413

>  <r_i_glide_lipo>  (108) 
-0.378016

>  <r_i_glide_hbond>  (108) 
0

>  <r_i_glide_metal>  (108) 
-0

>  <r_i_glide_rewards>  (108) 
-0.658182

>  <r_i_glide_evdw>  (108) 
-24.5566

>  <r_i_glide_ecoul>  (108) 
-2.06736

>  <r_i_glide_erotb>  (108) 
0

>  <r_i_glide_esite>  (108) 
0

>  <r_i_glide_emodel>  (108) 
-31.837

>  <r_i_glide_energy>  (108) 
-26.624

>  <r_i_glide_einternal>  (108) 
0.380701

>  <r_i_glide_intrahb_reward>  (108) 
-0

>  <i_i_glide_confnum>  (108) 
1

>  <i_i_glide_posenum>  (108) 
2

>  <r_i_glide_eff_state_penalty>  (108) 
0

>  <ligand_id>  (108) 
36

>  <original_smiles>  (108) 
CC1CCC2OC3C(CCC4CC(O)CCC43C)C3C4(C)CCC1C23C(O)OO4

>  <smiles>  (108) 
[H]OC1([H])OOC2(C([H])([H])[H])C([H])([H])C([H])([H])C3([H])C([H])(C([H])([H])[H])C([H])([H])C([H])([H])C4([H])OC5([H])C([H])(C([H])([H])C([H])([H])C6([H])C([H])([H])C([H])(O[H])C([H])([H])C([H])([H])C56C([H])([H])[H])C2([H])C143

$$$$
37:0:0
     RDKit          3D

 24 26  0  0  1  0  0  0  0  0999 V2000
   -5.4827  -10.1630   -7.9016 C   0  0  0  0  0  0  0  0  0  0  0  0
   -6.7235  -10.2450   -7.0016 C   0  0  2  0  0  0  0  0  0  0  0  0
   -8.0251  -10.3523   -7.8016 C   0  0  0  0  0  0  0  0  0  0  0  0
   -8.2779   -9.0918   -8.6297 C   0  0  0  0  0  0  0  0  0  0  0  0
   -8.0926   -7.7910   -7.8701 C   0  0  0  0  0  0  0  0  0  0  0  0
   -8.6986   -6.1764   -8.3369 S   0  0  0  0  0  0  0  0  0  0  0  0
   -7.9686   -5.5066   -6.8797 C   0  0  0  0  0  0  0  0  0  0  0  0
   -7.7977   -4.3869   -6.2377 N   0  0  0  0  0  0  0  0  0  0  0  0
   -7.0630   -4.7552   -5.1342 C   0  0  0  0  0  0  0  0  0  0  0  0
   -6.7511   -6.0506   -5.0477 N   0  0  0  0  0  0  0  0  0  0  0  0
   -7.3452   -6.4910   -6.1704 N   0  0  0  0  0  0  0  0  0  0  0  0
   -7.3625   -7.7583   -6.6339 C   0  0  0  0  0  0  0  0  0  0  0  0
   -6.7766   -9.0434   -6.0374 C   0  0  0  0  0  0  0  0  0  0  0  0
   -5.4506   -9.2270   -8.4610 H   0  0  0  0  0  0  0  0  0  0  0  0
   -5.4568  -10.9855   -8.6137 H   0  0  0  0  0  0  0  0  0  0  0  0
   -4.5745  -10.2105   -7.3033 H   0  0  0  0  0  0  0  0  0  0  0  0
   -6.6160  -11.1581   -6.4124 H   0  0  0  0  0  0  0  0  0  0  0  0
   -8.0330  -11.2297   -8.4467 H   0  0  0  0  0  0  0  0  0  0  0  0
   -8.8562  -10.4743   -7.1080 H   0  0  0  0  0  0  0  0  0  0  0  0
   -7.6183   -9.0662   -9.4988 H   0  0  0  0  0  0  0  0  0  0  0  0
   -9.2963   -9.1072   -9.0173 H   0  0  0  0  0  0  0  0  0  0  0  0
   -6.7477   -4.0440   -4.3811 H   0  0  0  0  0  0  0  0  0  0  0  0
   -7.3857   -9.3318   -5.1839 H   0  0  0  0  0  0  0  0  0  0  0  0
   -5.7901   -8.8487   -5.6140 H   0  0  0  0  0  0  0  0  0  0  0  0
  1  2  1  0
  1 14  1  0
  1 15  1  0
  1 16  1  0
  2 13  1  0
  2  3  1  0
  2 17  1  1
  3  4  1  0
  3 18  1  0
  3 19  1  0
  4  5  1  0
  4 20  1  0
  4 21  1  0
  5 12  2  0
  5  6  1  0
  6  7  1  0
  7 11  1  0
  7  8  2  0
  8  9  1  0
  9 10  2  0
  9 22  1  0
 10 11  1  0
 11 12  1  0
 12 13  1  0
 13 23  1  0
 13 24  1  0
M  END
>  <i_m_ct_stereo_status>  (109) 
1

>  <s_m_source_file>  (109) 
/var/tmp/pbs.5076255.sched01/tmp3foza_40/36o9al7bb4.sdf

>  <i_m_source_file_index>  (109) 
11

>  <i_lp_mmshare_version>  (109) 
48012

>  <i_f3d_flags>  (109) 
0

>  <s_epik_input>  (109) 
W0NIMl0xW0NIMl1bQ0BASF0oW0NIM10pW0NIMl1jKGMxMiluM2MoczIpbltjSF1uMw==

>  <s_epik_cmdline>  (109) 
J2VwaWtfcHl0aG9uJywgJy1waHQnLCAnMi4wJywgJy1waCcsICc3LjAnLCAnLXRuJywgJzgnLCAnLW1hJywgJzIwMCcsICctaW1hZScsICc8aW5maWxlLm1hZT4nLCAnLW9tYWUnLCAnPG91dGZpbGUubWFlPic=

>  <r_epik_Ionization_Penalty>  (109) 
0.00119332

>  <r_epik_Ionization_Penalty_Charging>  (109) 
0

>  <r_epik_Ionization_Penalty_Neutral>  (109) 
0.00119332

>  <r_epik_State_Penalty>  (109) 
0.000787213

>  <r_epik_Charging_Adjusted_Penalty>  (109) 
0.000787213

>  <i_epik_Tot_Q>  (109) 
0

>  <i_epik_Tot_abs_Q>  (109) 
0

>  <s_lp_Force_Field>  (109) 
OPLS3e

>  <r_lp_Energy>  (109) 
6.249

>  <b_lp_Chiralities_Consistent>  (109) 
1

>  <s_lp_Variant>  (109) 
37:0-1

>  <s_i_glide_gridfile>  (109) 
pfpi4k_grid

>  <i_i_glide_lignum>  (109) 
11

>  <i_i_glide_rotatable_bonds>  (109) 
0

>  <r_i_docking_score>  (109) 
-5.60781

>  <r_i_glide_ligand_efficiency>  (109) 
-0.43137

>  <r_i_glide_ligand_efficiency_sa>  (109) 
-1.01429

>  <r_i_glide_ligand_efficiency_ln>  (109) 
-1.57304

>  <r_i_glide_gscore>  (109) 
-5.60781

>  <r_i_glide_lipo>  (109) 
-1.0387

>  <r_i_glide_hbond>  (109) 
0

>  <r_i_glide_metal>  (109) 
-0

>  <r_i_glide_rewards>  (109) 
-3.34715

>  <r_i_glide_evdw>  (109) 
-21.901

>  <r_i_glide_ecoul>  (109) 
-0.846054

>  <r_i_glide_erotb>  (109) 
0

>  <r_i_glide_esite>  (109) 
0

>  <r_i_glide_emodel>  (109) 
-30.4638

>  <r_i_glide_energy>  (109) 
-22.747

>  <r_i_glide_einternal>  (109) 
0

>  <r_i_glide_intrahb_reward>  (109) 
-0

>  <i_i_glide_confnum>  (109) 
1

>  <i_i_glide_posenum>  (109) 
26

>  <r_i_glide_eff_state_penalty>  (109) 
0

>  <ligand_id>  (109) 
37

>  <original_smiles>  (109) 
CC1CCc2sc3ncnn3c2C1

>  <smiles>  (109) 
[H]c1nc2sc3c(n2n1)C([H])([H])C([H])(C([H])([H])[H])C([H])([H])C3([H])[H]

$$$$
37:0:1
     RDKit          3D

 24 26  0  0  1  0  0  0  0  0999 V2000
    4.1126   -3.3839   -3.6040 C   0  0  0  0  0  0  0  0  0  0  0  0
    3.2213   -2.5490   -2.6667 C   0  0  2  0  0  0  0  0  0  0  0  0
    4.0301   -1.6114   -1.7644 C   0  0  0  0  0  0  0  0  0  0  0  0
    4.9106   -2.3941   -0.7933 C   0  0  0  0  0  0  0  0  0  0  0  0
    4.2016   -3.5287   -0.0742 C   0  0  0  0  0  0  0  0  0  0  0  0
    4.7609   -4.3837    1.3871 S   0  0  0  0  0  0  0  0  0  0  0  0
    3.3277   -5.4113    1.3119 C   0  0  0  0  0  0  0  0  0  0  0  0
    2.7450   -6.4017    1.9208 N   0  0  0  0  0  0  0  0  0  0  0  0
    1.6138   -6.6318    1.1737 C   0  0  0  0  0  0  0  0  0  0  0  0
    1.4401   -5.8244    0.1229 N   0  0  0  0  0  0  0  0  0  0  0  0
    2.5472   -5.0620    0.2458 N   0  0  0  0  0  0  0  0  0  0  0  0
    2.9531   -4.0480   -0.5621 C   0  0  0  0  0  0  0  0  0  0  0  0
    2.3039   -3.4562   -1.8202 C   0  0  0  0  0  0  0  0  0  0  0  0
    4.7205   -4.1075   -3.0581 H   0  0  0  0  0  0  0  0  0  0  0  0
    4.7812   -2.7444   -4.1742 H   0  0  0  0  0  0  0  0  0  0  0  0
    3.5044   -3.9473   -4.3100 H   0  0  0  0  0  0  0  0  0  0  0  0
    2.5895   -1.9295   -3.3048 H   0  0  0  0  0  0  0  0  0  0  0  0
    4.6311   -0.9045   -2.3384 H   0  0  0  0  0  0  0  0  0  0  0  0
    3.3356   -1.0154   -1.1732 H   0  0  0  0  0  0  0  0  0  0  0  0
    5.7704   -2.8128   -1.3142 H   0  0  0  0  0  0  0  0  0  0  0  0
    5.3118   -1.7231   -0.0372 H   0  0  0  0  0  0  0  0  0  0  0  0
    0.8943   -7.4013    1.4203 H   0  0  0  0  0  0  0  0  0  0  0  0
    1.4361   -2.8930   -1.5051 H   0  0  0  0  0  0  0  0  0  0  0  0
    1.8662   -4.2430   -2.4360 H   0  0  0  0  0  0  0  0  0  0  0  0
  1  2  1  0
  1 14  1  0
  1 15  1  0
  1 16  1  0
  2 13  1  0
  2  3  1  0
  2 17  1  6
  3  4  1  0
  3 18  1  0
  3 19  1  0
  4  5  1  0
  4 20  1  0
  4 21  1  0
  5 12  2  0
  5  6  1  0
  6  7  1  0
  7 11  1  0
  7  8  2  0
  8  9  1  0
  9 10  2  0
  9 22  1  0
 10 11  1  0
 11 12  1  0
 12 13  1  0
 13 23  1  0
 13 24  1  0
M  END
>  <i_m_ct_stereo_status>  (110) 
1

>  <s_m_source_file>  (110) 
/var/tmp/pbs.5076255.sched01/tmp3foza_40/36o9al7bb4.sdf

>  <i_m_source_file_index>  (110) 
11

>  <i_lp_mmshare_version>  (110) 
48012

>  <i_f3d_flags>  (110) 
0

>  <s_epik_input>  (110) 
W0NIMl0xW0NIMl1bQ0BASF0oW0NIM10pW0NIMl1jKGMxMiluM2MoczIpbltjSF1uMw==

>  <s_epik_cmdline>  (110) 
J2VwaWtfcHl0aG9uJywgJy1waHQnLCAnMi4wJywgJy1waCcsICc3LjAnLCAnLXRuJywgJzgnLCAnLW1hJywgJzIwMCcsICctaW1hZScsICc8aW5maWxlLm1hZT4nLCAnLW9tYWUnLCAnPG91dGZpbGUubWFlPic=

>  <r_epik_Ionization_Penalty>  (110) 
0.00119332

>  <r_epik_Ionization_Penalty_Charging>  (110) 
0

>  <r_epik_Ionization_Penalty_Neutral>  (110) 
0.00119332

>  <r_epik_State_Penalty>  (110) 
0.000787213

>  <r_epik_Charging_Adjusted_Penalty>  (110) 
0.000787213

>  <i_epik_Tot_Q>  (110) 
0

>  <i_epik_Tot_abs_Q>  (110) 
0

>  <s_lp_Force_Field>  (110) 
OPLS3e

>  <r_lp_Energy>  (110) 
6.249

>  <b_lp_Chiralities_Consistent>  (110) 
1

>  <s_lp_Variant>  (110) 
37:0-1

>  <s_i_glide_gridfile>  (110) 
pfpi4k_grid

>  <i_i_glide_lignum>  (110) 
11

>  <i_i_glide_rotatable_bonds>  (110) 
0

>  <r_i_docking_score>  (110) 
-4.06168

>  <r_i_glide_ligand_efficiency>  (110) 
-0.312437

>  <r_i_glide_ligand_efficiency_sa>  (110) 
-0.734643

>  <r_i_glide_ligand_efficiency_ln>  (110) 
-1.13934

>  <r_i_glide_gscore>  (110) 
-4.06168

>  <r_i_glide_lipo>  (110) 
-0.400948

>  <r_i_glide_hbond>  (110) 
-0.197152

>  <r_i_glide_metal>  (110) 
-0

>  <r_i_glide_rewards>  (110) 
-2.09889

>  <r_i_glide_evdw>  (110) 
-16.5411

>  <r_i_glide_ecoul>  (110) 
-2.9148

>  <r_i_glide_erotb>  (110) 
0

>  <r_i_glide_esite>  (110) 
-0.100408

>  <r_i_glide_emodel>  (110) 
-25.0027

>  <r_i_glide_energy>  (110) 
-19.4559

>  <r_i_glide_einternal>  (110) 
0

>  <r_i_glide_intrahb_reward>  (110) 
-0

>  <i_i_glide_confnum>  (110) 
1

>  <i_i_glide_posenum>  (110) 
9

>  <r_i_glide_eff_state_penalty>  (110) 
0

>  <ligand_id>  (110) 
37

>  <original_smiles>  (110) 
CC1CCc2sc3ncnn3c2C1

>  <smiles>  (110) 
[H]c1nc2sc3c(n2n1)C([H])([H])C([H])(C([H])([H])[H])C([H])([H])C3([H])[H]

$$$$
37:0:2
     RDKit          3D

 24 26  0  0  1  0  0  0  0  0999 V2000
    4.0847   -3.2512   -3.2827 C   0  0  0  0  0  0  0  0  0  0  0  0
    3.7551   -2.5131   -1.9702 C   0  0  2  0  0  0  0  0  0  0  0  0
    5.0105   -2.1202   -1.1836 C   0  0  0  0  0  0  0  0  0  0  0  0
    5.7687   -3.3550   -0.6993 C   0  0  0  0  0  0  0  0  0  0  0  0
    4.8972   -4.4099   -0.0391 C   0  0  0  0  0  0  0  0  0  0  0  0
    5.4468   -5.7590    0.9904 S   0  0  0  0  0  0  0  0  0  0  0  0
    3.7725   -6.2901    1.1507 C   0  0  0  0  0  0  0  0  0  0  0  0
    3.0390   -7.2162    1.6979 N   0  0  0  0  0  0  0  0  0  0  0  0
    1.7631   -6.9070    1.2904 C   0  0  0  0  0  0  0  0  0  0  0  0
    1.6463   -5.8341    0.5057 N   0  0  0  0  0  0  0  0  0  0  0  0
    2.9429   -5.4607    0.4569 N   0  0  0  0  0  0  0  0  0  0  0  0
    3.4718   -4.4165   -0.2228 C   0  0  0  0  0  0  0  0  0  0  0  0
    2.7987   -3.3446   -1.0839 C   0  0  0  0  0  0  0  0  0  0  0  0
    4.5199   -4.2349   -3.0966 H   0  0  0  0  0  0  0  0  0  0  0  0
    4.7860   -2.6871   -3.8953 H   0  0  0  0  0  0  0  0  0  0  0  0
    3.1809   -3.4111   -3.8707 H   0  0  0  0  0  0  0  0  0  0  0  0
    3.2413   -1.5917   -2.2548 H   0  0  0  0  0  0  0  0  0  0  0  0
    5.6695   -1.4779   -1.7669 H   0  0  0  0  0  0  0  0  0  0  0  0
    4.7133   -1.5432   -0.3091 H   0  0  0  0  0  0  0  0  0  0  0  0
    6.2962   -3.8271   -1.5284 H   0  0  0  0  0  0  0  0  0  0  0  0
    6.5322   -3.0614    0.0185 H   0  0  0  0  0  0  0  0  0  0  0  0
    0.8978   -7.4892    1.5833 H   0  0  0  0  0  0  0  0  0  0  0  0
    2.2841   -2.6688   -0.3995 H   0  0  0  0  0  0  0  0  0  0  0  0
    2.0106   -3.7861   -1.6963 H   0  0  0  0  0  0  0  0  0  0  0  0
  1  2  1  0
  1 14  1  0
  1 15  1  0
  1 16  1  0
  2 13  1  0
  2  3  1  0
  2 17  1  6
  3  4  1  0
  3 18  1  0
  3 19  1  0
  4  5  1  0
  4 20  1  0
  4 21  1  0
  5 12  2  0
  5  6  1  0
  6  7  1  0
  7 11  1  0
  7  8  2  0
  8  9  1  0
  9 10  2  0
  9 22  1  0
 10 11  1  0
 11 12  1  0
 12 13  1  0
 13 23  1  0
 13 24  1  0
M  END
>  <i_m_ct_stereo_status>  (111) 
1

>  <s_m_source_file>  (111) 
/var/tmp/pbs.5076255.sched01/tmp3foza_40/36o9al7bb4.sdf

>  <i_m_source_file_index>  (111) 
11

>  <i_lp_mmshare_version>  (111) 
48012

>  <i_f3d_flags>  (111) 
0

>  <s_epik_input>  (111) 
W0NIMl0xW0NIMl1bQ0BASF0oW0NIM10pW0NIMl1jKGMxMiluM2MoczIpbltjSF1uMw==

>  <s_epik_cmdline>  (111) 
J2VwaWtfcHl0aG9uJywgJy1waHQnLCAnMi4wJywgJy1waCcsICc3LjAnLCAnLXRuJywgJzgnLCAnLW1hJywgJzIwMCcsICctaW1hZScsICc8aW5maWxlLm1hZT4nLCAnLW9tYWUnLCAnPG91dGZpbGUubWFlPic=

>  <r_epik_Ionization_Penalty>  (111) 
0.00119332

>  <r_epik_Ionization_Penalty_Charging>  (111) 
0

>  <r_epik_Ionization_Penalty_Neutral>  (111) 
0.00119332

>  <r_epik_State_Penalty>  (111) 
0.000787213

>  <r_epik_Charging_Adjusted_Penalty>  (111) 
0.000787213

>  <i_epik_Tot_Q>  (111) 
0

>  <i_epik_Tot_abs_Q>  (111) 
0

>  <s_lp_Force_Field>  (111) 
OPLS3e

>  <r_lp_Energy>  (111) 
6.249

>  <b_lp_Chiralities_Consistent>  (111) 
1

>  <s_lp_Variant>  (111) 
37:0-1

>  <s_i_glide_gridfile>  (111) 
pfpi4k_grid

>  <i_i_glide_lignum>  (111) 
11

>  <i_i_glide_rotatable_bonds>  (111) 
0

>  <r_i_docking_score>  (111) 
-4.03193

>  <r_i_glide_ligand_efficiency>  (111) 
-0.310149

>  <r_i_glide_ligand_efficiency_sa>  (111) 
-0.729263

>  <r_i_glide_ligand_efficiency_ln>  (111) 
-1.13099

>  <r_i_glide_gscore>  (111) 
-4.03193

>  <r_i_glide_lipo>  (111) 
-0.370899

>  <r_i_glide_hbond>  (111) 
-0.119967

>  <r_i_glide_metal>  (111) 
-0

>  <r_i_glide_rewards>  (111) 
-2.17603

>  <r_i_glide_evdw>  (111) 
-19.3414

>  <r_i_glide_ecoul>  (111) 
-2.20282

>  <r_i_glide_erotb>  (111) 
0

>  <r_i_glide_esite>  (111) 
-0.0675405

>  <r_i_glide_emodel>  (111) 
-27.0745

>  <r_i_glide_energy>  (111) 
-21.5443

>  <r_i_glide_einternal>  (111) 
0

>  <r_i_glide_intrahb_reward>  (111) 
-0

>  <i_i_glide_confnum>  (111) 
2

>  <i_i_glide_posenum>  (111) 
29

>  <r_i_glide_eff_state_penalty>  (111) 
0

>  <ligand_id>  (111) 
37

>  <original_smiles>  (111) 
CC1CCc2sc3ncnn3c2C1

>  <smiles>  (111) 
[H]c1nc2sc3c(n2n1)C([H])([H])C([H])(C([H])([H])[H])C([H])([H])C3([H])[H]

$$$$
38:0:0
     RDKit          3D

 25 27  0  0  1  0  0  0  0  0999 V2000
    8.3808   -2.5526   -0.7026 O   0  0  0  0  0  0  0  0  0  0  0  0
    7.1949   -2.8531   -0.7912 C   0  0  0  0  0  0  0  0  0  0  0  0
    6.3194   -3.0059    0.3617 C   0  0  0  0  0  0  0  0  0  0  0  0
    5.0157   -3.3096    0.2381 C   0  0  0  0  0  0  0  0  0  0  0  0
    4.3224   -3.5605   -1.0843 C   0  0  1  0  0  0  0  0  0  0  0  0
    3.2095   -2.5395   -1.3914 C   0  0  2  0  0  0  0  0  0  0  0  0
    2.3251   -3.0669   -2.5362 C   0  0  0  0  0  0  0  0  0  0  0  0
    3.2483   -2.9522   -3.7610 C   0  0  0  0  0  0  0  0  0  0  0  0
    4.5297   -2.3493   -3.1588 C   0  0  1  0  0  0  0  0  0  0  0  0
    3.9621   -1.4166   -2.0970 C   0  0  0  0  0  0  0  0  0  0  0  0
    5.2540   -3.4231   -2.3145 C   0  0  1  0  0  0  0  0  0  0  0  0
    6.6286   -3.0379   -1.9972 N   0  0  0  0  0  0  0  0  0  0  0  0
    6.7383   -2.8700    1.3500 H   0  0  0  0  0  0  0  0  0  0  0  0
    4.4036   -3.4009    1.1247 H   0  0  0  0  0  0  0  0  0  0  0  0
    3.9104   -4.5689   -1.0334 H   0  0  0  0  0  0  0  0  0  0  0  0
    2.6337   -2.2355   -0.5167 H   0  0  0  0  0  0  0  0  0  0  0  0
    1.9802   -4.0871   -2.3611 H   0  0  0  0  0  0  0  0  0  0  0  0
    1.4377   -2.4507   -2.6799 H   0  0  0  0  0  0  0  0  0  0  0  0
    3.4234   -3.9144   -4.2451 H   0  0  0  0  0  0  0  0  0  0  0  0
    2.8120   -2.2730   -4.4934 H   0  0  0  0  0  0  0  0  0  0  0  0
    5.1426   -1.8610   -3.9107 H   0  0  0  0  0  0  0  0  0  0  0  0
    3.3004   -0.6507   -2.5066 H   0  0  0  0  0  0  0  0  0  0  0  0
    4.7209   -0.9362   -1.4762 H   0  0  0  0  0  0  0  0  0  0  0  0
    5.3061   -4.3667   -2.8600 H   0  0  0  0  0  0  0  0  0  0  0  0
    7.2581   -2.9702   -2.7878 H   0  0  0  0  0  0  0  0  0  0  0  0
  1  2  2  0
  2 12  1  0
  2  3  1  0
  3  4  2  0
  3 13  1  0
  4  5  1  0
  4 14  1  0
  5 11  1  0
  5  6  1  0
  5 15  1  1
  6 10  1  0
  6  7  1  0
  6 16  1  1
  7  8  1  0
  7 17  1  0
  7 18  1  0
  8  9  1  0
  8 19  1  0
  8 20  1  0
  9 10  1  0
  9 11  1  0
  9 21  1  6
 10 22  1  0
 10 23  1  0
 11 12  1  0
 11 24  1  6
 12 25  1  0
M  END
>  <i_m_ct_stereo_status>  (112) 
1

>  <s_m_source_file>  (112) 
/var/tmp/pbs.5076255.sched01/tmp3foza_40/36o9al7bb4.sdf

>  <i_m_source_file_index>  (112) 
12

>  <i_lp_mmshare_version>  (112) 
48012

>  <i_f3d_flags>  (112) 
0

>  <s_epik_input>  (112) 
W0NIXTE9W0NIXUMoPU8pW05IXVtDQEBIXTJbQ0BIXShbQ0gyXTMpW0NIMl1bQ0gyXVtDQEhdM1tDQEhdMTI=

>  <s_epik_cmdline>  (112) 
J2VwaWtfcHl0aG9uJywgJy1waHQnLCAnMi4wJywgJy1waCcsICc3LjAnLCAnLXRuJywgJzgnLCAnLW1hJywgJzIwMCcsICctaW1hZScsICc8aW5maWxlLm1hZT4nLCAnLW9tYWUnLCAnPG91dGZpbGUubWFlPic=

>  <r_lp_tautomer_probability>  (112) 
1

>  <r_epik_Ionization_Penalty>  (112) 
2.52089e-05

>  <r_epik_Ionization_Penalty_Charging>  (112) 
0

>  <r_epik_Ionization_Penalty_Neutral>  (112) 
2.52089e-05

>  <r_epik_State_Penalty>  (112) 
-0

>  <r_epik_Charging_Adjusted_Penalty>  (112) 
0

>  <i_epik_Tot_Q>  (112) 
0

>  <i_epik_Tot_abs_Q>  (112) 
0

>  <s_lp_Force_Field>  (112) 
OPLS3e

>  <r_lp_Energy>  (112) 
38.6965

>  <b_lp_Chiralities_Consistent>  (112) 
1

>  <s_lp_Variant>  (112) 
38:0-1

>  <s_i_glide_gridfile>  (112) 
pfpi4k_grid

>  <i_i_glide_lignum>  (112) 
12

>  <i_i_glide_rotatable_bonds>  (112) 
0

>  <r_i_docking_score>  (112) 
-5.20857

>  <r_i_glide_ligand_efficiency>  (112) 
-0.434048

>  <r_i_glide_ligand_efficiency_sa>  (112) 
-0.993721

>  <r_i_glide_ligand_efficiency_ln>  (112) 
-1.49461

>  <r_i_glide_gscore>  (112) 
-5.20857

>  <r_i_glide_lipo>  (112) 
-0.649274

>  <r_i_glide_hbond>  (112) 
-0.335937

>  <r_i_glide_metal>  (112) 
-0

>  <r_i_glide_rewards>  (112) 
-2.81362

>  <r_i_glide_evdw>  (112) 
-20.8451

>  <r_i_glide_ecoul>  (112) 
-2.41888

>  <r_i_glide_erotb>  (112) 
0

>  <r_i_glide_esite>  (112) 
-0.00465633

>  <r_i_glide_emodel>  (112) 
-30.509

>  <r_i_glide_energy>  (112) 
-23.2639

>  <r_i_glide_einternal>  (112) 
0

>  <r_i_glide_intrahb_reward>  (112) 
-0

>  <i_i_glide_confnum>  (112) 
1

>  <i_i_glide_posenum>  (112) 
5

>  <r_i_glide_eff_state_penalty>  (112) 
0

>  <ligand_id>  (112) 
38

>  <original_smiles>  (112) 
O=C1C=CC2C3CCC(C3)C2N1

>  <smiles>  (112) 
[H]C1=C([H])C2([H])C([H])(N([H])C1=O)C1([H])C([H])([H])C([H])([H])C2([H])C1([H])[H]

$$$$
38:0:1
     RDKit          3D

 25 27  0  0  1  0  0  0  0  0999 V2000
    4.2897   -5.2968    1.3147 O   0  0  0  0  0  0  0  0  0  0  0  0
    4.1675   -4.2426    0.6916 C   0  0  0  0  0  0  0  0  0  0  0  0
    4.7072   -2.9652    1.1474 C   0  0  0  0  0  0  0  0  0  0  0  0
    4.5664   -1.8268    0.4429 C   0  0  0  0  0  0  0  0  0  0  0  0
    3.8171   -1.7285   -0.8678 C   0  0  1  0  0  0  0  0  0  0  0  0
    4.7082   -1.3140   -2.0564 C   0  0  2  0  0  0  0  0  0  0  0  0
    3.8122   -0.8827   -3.2346 C   0  0  0  0  0  0  0  0  0  0  0  0
    3.2130   -2.2199   -3.7057 C   0  0  0  0  0  0  0  0  0  0  0  0
    3.8535   -3.2371   -2.7459 C   0  0  1  0  0  0  0  0  0  0  0  0
    5.2452   -2.6558   -2.5533 C   0  0  0  0  0  0  0  0  0  0  0  0
    3.2201   -3.0755   -1.3455 C   0  0  1  0  0  0  0  0  0  0  0  0
    3.5134   -4.2181   -0.4828 N   0  0  0  0  0  0  0  0  0  0  0  0
    5.2409   -2.9357    2.0882 H   0  0  0  0  0  0  0  0  0  0  0  0
    4.9836   -0.9033    0.8208 H   0  0  0  0  0  0  0  0  0  0  0  0
    3.0188   -1.0080   -0.7158 H   0  0  0  0  0  0  0  0  0  0  0  0
    5.4616   -0.5715   -1.8012 H   0  0  0  0  0  0  0  0  0  0  0  0
    3.0402   -0.1693   -2.9391 H   0  0  0  0  0  0  0  0  0  0  0  0
    4.4019   -0.4295   -4.0343 H   0  0  0  0  0  0  0  0  0  0  0  0
    2.1214   -2.2330   -3.6594 H   0  0  0  0  0  0  0  0  0  0  0  0
    3.5117   -2.4286   -4.7304 H   0  0  0  0  0  0  0  0  0  0  0  0
    3.8444   -4.2520   -3.1405 H   0  0  0  0  0  0  0  0  0  0  0  0
    5.8045   -2.6091   -3.4889 H   0  0  0  0  0  0  0  0  0  0  0  0
    5.8456   -3.1929   -1.8169 H   0  0  0  0  0  0  0  0  0  0  0  0
    2.1327   -3.0137   -1.4266 H   0  0  0  0  0  0  0  0  0  0  0  0
    3.1769   -5.1065   -0.8297 H   0  0  0  0  0  0  0  0  0  0  0  0
  1  2  2  0
  2 12  1  0
  2  3  1  0
  3  4  2  0
  3 13  1  0
  4  5  1  0
  4 14  1  0
  5 11  1  0
  5  6  1  0
  5 15  1  1
  6 10  1  0
  6  7  1  0
  6 16  1  1
  7  8  1  0
  7 17  1  0
  7 18  1  0
  8  9  1  0
  8 19  1  0
  8 20  1  0
  9 10  1  0
  9 11  1  0
  9 21  1  6
 10 22  1  0
 10 23  1  0
 11 12  1  0
 11 24  1  6
 12 25  1  0
M  END
>  <i_m_ct_stereo_status>  (113) 
1

>  <s_m_source_file>  (113) 
/var/tmp/pbs.5076255.sched01/tmp3foza_40/36o9al7bb4.sdf

>  <i_m_source_file_index>  (113) 
12

>  <i_lp_mmshare_version>  (113) 
48012

>  <i_f3d_flags>  (113) 
0

>  <s_epik_input>  (113) 
W0NIXTE9W0NIXUMoPU8pW05IXVtDQEBIXTJbQ0BIXShbQ0gyXTMpW0NIMl1bQ0gyXVtDQEhdM1tDQEhdMTI=

>  <s_epik_cmdline>  (113) 
J2VwaWtfcHl0aG9uJywgJy1waHQnLCAnMi4wJywgJy1waCcsICc3LjAnLCAnLXRuJywgJzgnLCAnLW1hJywgJzIwMCcsICctaW1hZScsICc8aW5maWxlLm1hZT4nLCAnLW9tYWUnLCAnPG91dGZpbGUubWFlPic=

>  <r_lp_tautomer_probability>  (113) 
1

>  <r_epik_Ionization_Penalty>  (113) 
2.52089e-05

>  <r_epik_Ionization_Penalty_Charging>  (113) 
0

>  <r_epik_Ionization_Penalty_Neutral>  (113) 
2.52089e-05

>  <r_epik_State_Penalty>  (113) 
-0

>  <r_epik_Charging_Adjusted_Penalty>  (113) 
0

>  <i_epik_Tot_Q>  (113) 
0

>  <i_epik_Tot_abs_Q>  (113) 
0

>  <s_lp_Force_Field>  (113) 
OPLS3e

>  <r_lp_Energy>  (113) 
38.6965

>  <b_lp_Chiralities_Consistent>  (113) 
1

>  <s_lp_Variant>  (113) 
38:0-1

>  <s_i_glide_gridfile>  (113) 
pfpi4k_grid

>  <i_i_glide_lignum>  (113) 
12

>  <i_i_glide_rotatable_bonds>  (113) 
0

>  <r_i_docking_score>  (113) 
-4.37264

>  <r_i_glide_ligand_efficiency>  (113) 
-0.364387

>  <r_i_glide_ligand_efficiency_sa>  (113) 
-0.834238

>  <r_i_glide_ligand_efficiency_ln>  (113) 
-1.25474

>  <r_i_glide_gscore>  (113) 
-4.37264

>  <r_i_glide_lipo>  (113) 
-0.535305

>  <r_i_glide_hbond>  (113) 
-0.25023

>  <r_i_glide_metal>  (113) 
-0

>  <r_i_glide_rewards>  (113) 
-2.28465

>  <r_i_glide_evdw>  (113) 
-18.6166

>  <r_i_glide_ecoul>  (113) 
-2.2773

>  <r_i_glide_erotb>  (113) 
0

>  <r_i_glide_esite>  (113) 
-0.0300347

>  <r_i_glide_emodel>  (113) 
-26.967

>  <r_i_glide_energy>  (113) 
-20.8939

>  <r_i_glide_einternal>  (113) 
0

>  <r_i_glide_intrahb_reward>  (113) 
-0

>  <i_i_glide_confnum>  (113) 
1

>  <i_i_glide_posenum>  (113) 
1

>  <r_i_glide_eff_state_penalty>  (113) 
0

>  <ligand_id>  (113) 
38

>  <original_smiles>  (113) 
O=C1C=CC2C3CCC(C3)C2N1

>  <smiles>  (113) 
[H]C1=C([H])C2([H])C([H])(N([H])C1=O)C1([H])C([H])([H])C([H])([H])C2([H])C1([H])[H]

$$$$
38:0:2
     RDKit          3D

 25 27  0  0  1  0  0  0  0  0999 V2000
    3.6719   -6.0555    0.8707 O   0  0  0  0  0  0  0  0  0  0  0  0
    4.0992   -5.0594    0.2908 C   0  0  0  0  0  0  0  0  0  0  0  0
    5.5127   -4.7090    0.2132 C   0  0  0  0  0  0  0  0  0  0  0  0
    5.9537   -3.6235   -0.4478 C   0  0  0  0  0  0  0  0  0  0  0  0
    5.0509   -2.6330   -1.1539 C   0  0  1  0  0  0  0  0  0  0  0  0
    5.2880   -2.5677   -2.6781 C   0  0  2  0  0  0  0  0  0  0  0  0
    4.6075   -1.3045   -3.2362 C   0  0  0  0  0  0  0  0  0  0  0  0
    3.1127   -1.6440   -3.1511 C   0  0  0  0  0  0  0  0  0  0  0  0
    3.1287   -3.0590   -2.5499 C   0  0  1  0  0  0  0  0  0  0  0  0
    4.3693   -3.6478   -3.2201 C   0  0  0  0  0  0  0  0  0  0  0  0
    3.5438   -2.9817   -1.0595 C   0  0  1  0  0  0  0  0  0  0  0  0
    3.2492   -4.2178   -0.3235 N   0  0  0  0  0  0  0  0  0  0  0  0
    6.2309   -5.3558    0.7023 H   0  0  0  0  0  0  0  0  0  0  0  0
    7.0134   -3.4136   -0.4825 H   0  0  0  0  0  0  0  0  0  0  0  0
    5.2358   -1.6592   -0.6985 H   0  0  0  0  0  0  0  0  0  0  0  0
    6.3338   -2.6684   -2.9718 H   0  0  0  0  0  0  0  0  0  0  0  0
    4.8594   -0.4055   -2.6688 H   0  0  0  0  0  0  0  0  0  0  0  0
    4.8836   -1.1360   -4.2798 H   0  0  0  0  0  0  0  0  0  0  0  0
    2.5676   -0.9307   -2.5294 H   0  0  0  0  0  0  0  0  0  0  0  0
    2.6603   -1.6460   -4.1451 H   0  0  0  0  0  0  0  0  0  0  0  0
    2.2056   -3.6124   -2.7299 H   0  0  0  0  0  0  0  0  0  0  0  0
    4.3099   -3.6679   -4.3104 H   0  0  0  0  0  0  0  0  0  0  0  0
    4.6248   -4.6486   -2.8667 H   0  0  0  0  0  0  0  0  0  0  0  0
    2.9953   -2.1825   -0.5569 H   0  0  0  0  0  0  0  0  0  0  0  0
    2.2821   -4.4940   -0.3086 H   0  0  0  0  0  0  0  0  0  0  0  0
  1  2  2  0
  2 12  1  0
  2  3  1  0
  3  4  2  0
  3 13  1  0
  4  5  1  0
  4 14  1  0
  5 11  1  0
  5  6  1  0
  5 15  1  1
  6 10  1  0
  6  7  1  0
  6 16  1  1
  7  8  1  0
  7 17  1  0
  7 18  1  0
  8  9  1  0
  8 19  1  0
  8 20  1  0
  9 10  1  0
  9 11  1  0
  9 21  1  1
 10 22  1  0
 10 23  1  0
 11 12  1  0
 11 24  1  1
 12 25  1  0
M  END
>  <i_m_ct_stereo_status>  (114) 
1

>  <s_m_source_file>  (114) 
/var/tmp/pbs.5076255.sched01/tmp3foza_40/36o9al7bb4.sdf

>  <i_m_source_file_index>  (114) 
12

>  <i_lp_mmshare_version>  (114) 
48012

>  <i_f3d_flags>  (114) 
0

>  <s_epik_input>  (114) 
W0NIXTE9W0NIXUMoPU8pW05IXVtDQEBIXTJbQ0BIXShbQ0gyXTMpW0NIMl1bQ0gyXVtDQEhdM1tDQEhdMTI=

>  <s_epik_cmdline>  (114) 
J2VwaWtfcHl0aG9uJywgJy1waHQnLCAnMi4wJywgJy1waCcsICc3LjAnLCAnLXRuJywgJzgnLCAnLW1hJywgJzIwMCcsICctaW1hZScsICc8aW5maWxlLm1hZT4nLCAnLW9tYWUnLCAnPG91dGZpbGUubWFlPic=

>  <r_lp_tautomer_probability>  (114) 
1

>  <r_epik_Ionization_Penalty>  (114) 
2.52089e-05

>  <r_epik_Ionization_Penalty_Charging>  (114) 
0

>  <r_epik_Ionization_Penalty_Neutral>  (114) 
2.52089e-05

>  <r_epik_State_Penalty>  (114) 
-0

>  <r_epik_Charging_Adjusted_Penalty>  (114) 
0

>  <i_epik_Tot_Q>  (114) 
0

>  <i_epik_Tot_abs_Q>  (114) 
0

>  <s_lp_Force_Field>  (114) 
OPLS3e

>  <r_lp_Energy>  (114) 
38.6965

>  <b_lp_Chiralities_Consistent>  (114) 
1

>  <s_lp_Variant>  (114) 
38:0-1

>  <s_i_glide_gridfile>  (114) 
pfpi4k_grid

>  <i_i_glide_lignum>  (114) 
12

>  <i_i_glide_rotatable_bonds>  (114) 
0

>  <r_i_docking_score>  (114) 
-3.66206

>  <r_i_glide_ligand_efficiency>  (114) 
-0.305172

>  <r_i_glide_ligand_efficiency_sa>  (114) 
-0.698669

>  <r_i_glide_ligand_efficiency_ln>  (114) 
-1.05084

>  <r_i_glide_gscore>  (114) 
-3.66206

>  <r_i_glide_lipo>  (114) 
-0.36733

>  <r_i_glide_hbond>  (114) 
0

>  <r_i_glide_metal>  (114) 
-0

>  <r_i_glide_rewards>  (114) 
-2.27591

>  <r_i_glide_evdw>  (114) 
-18.1326

>  <r_i_glide_ecoul>  (114) 
-0.551302

>  <r_i_glide_erotb>  (114) 
0

>  <r_i_glide_esite>  (114) 
-0.0295003

>  <r_i_glide_emodel>  (114) 
-23.769

>  <r_i_glide_energy>  (114) 
-18.6839

>  <r_i_glide_einternal>  (114) 
0

>  <r_i_glide_intrahb_reward>  (114) 
-0

>  <i_i_glide_confnum>  (114) 
2

>  <i_i_glide_posenum>  (114) 
37

>  <r_i_glide_eff_state_penalty>  (114) 
0

>  <ligand_id>  (114) 
38

>  <original_smiles>  (114) 
O=C1C=CC2C3CCC(C3)C2N1

>  <smiles>  (114) 
[H]C1=C([H])C2([H])C([H])(N([H])C1=O)C1([H])C([H])([H])C([H])([H])C2([H])C1([H])[H]

$$$$
39:0:0
     RDKit          3D

 56 60  0  0  1  0  0  0  0  0999 V2000
    2.9120   -4.7369    3.1505 C   0  0  0  0  0  0  0  0  0  0  0  0
    3.3026   -4.4408    1.6538 C   0  0  2  0  0  0  0  0  0  0  0  0
    4.3721   -5.5064    1.2876 C   0  0  1  0  0  0  0  0  0  0  0  0
    3.9937   -6.8174    1.6562 O   0  0  0  0  0  0  0  0  0  0  0  0
    4.6225   -5.5788   -0.1869 C   0  0  0  0  0  0  0  0  0  0  0  0
    4.8570   -4.2255   -0.8419 C   0  0  2  0  0  0  0  0  0  0  0  0
    6.0919   -3.4322   -0.3371 C   0  0  1  0  0  0  0  0  0  0  0  0
    6.1821   -2.3468   -1.4021 C   0  0  0  0  0  0  0  0  0  0  0  0
    4.8946   -1.4697   -1.2568 C   0  0  1  0  0  0  0  0  0  0  0  0
    4.2717   -0.6101   -2.4279 C   0  0  0  0  0  0  0  0  0  0  0  0
    3.7981   -1.9684   -0.0798 C   0  0  1  0  0  0  0  0  0  0  0  0
    4.5730   -0.6521    0.6584 C   0  0  1  0  0  0  0  0  0  0  0  0
    4.3704   -0.3239    2.1663 C   0  0  0  0  0  0  0  0  0  0  0  0
    4.9736   -1.4347    3.0083 C   0  0  1  0  0  0  0  0  0  0  0  0
    4.3282   -1.5744    4.2613 O   0  0  0  0  0  0  0  0  0  0  0  0
    4.9702   -2.7190    2.1499 C   0  0  2  0  0  0  0  0  0  0  0  0
    6.1770   -2.8522    1.1537 C   0  0  2  0  0  0  0  0  0  0  0  0
    6.8745   -1.6242    1.1879 O   0  0  0  0  0  0  0  0  0  0  0  0
    6.0274   -0.4413    0.7080 O   0  0  0  0  0  0  0  0  0  0  0  0
    3.6491   -2.8658    1.3477 C   0  0  2  0  0  0  0  0  0  0  0  0
    2.3120   -2.2316    1.9270 C   0  0  0  0  0  0  0  0  0  0  0  0
    3.6511   -3.2471   -1.1462 C   0  0  0  0  0  0  0  0  0  0  0  0
    3.5506   -3.2119   -2.7442 C   0  0  0  0  0  0  0  0  0  0  0  0
    2.1920   -3.8005   -1.0236 C   0  0  0  0  0  0  0  0  0  0  0  0
    3.7681   -4.7599    3.8252 H   0  0  0  0  0  0  0  0  0  0  0  0
    2.4450   -5.7179    3.2377 H   0  0  0  0  0  0  0  0  0  0  0  0
    2.1801   -4.0663    3.5884 H   0  0  0  0  0  0  0  0  0  0  0  0
    2.3919   -4.7582    1.1689 H   0  0  0  0  0  0  0  0  0  0  0  0
    5.3183   -5.3317    1.8022 H   0  0  0  0  0  0  0  0  0  0  0  0
    3.2437   -7.0753    1.1392 H   0  0  0  0  0  0  0  0  0  0  0  0
    5.5021   -6.2007   -0.3395 H   0  0  0  0  0  0  0  0  0  0  0  0
    3.8218   -6.1048   -0.6970 H   0  0  0  0  0  0  0  0  0  0  0  0
    5.1748   -4.5971   -1.8205 H   0  0  0  0  0  0  0  0  0  0  0  0
    6.9700   -4.0640   -0.4637 H   0  0  0  0  0  0  0  0  0  0  0  0
    7.1160   -1.8124   -1.2482 H   0  0  0  0  0  0  0  0  0  0  0  0
    6.2941   -2.7677   -2.4018 H   0  0  0  0  0  0  0  0  0  0  0  0
    5.5174   -0.5834   -1.2509 H   0  0  0  0  0  0  0  0  0  0  0  0
    3.1873   -0.6937   -2.4629 H   0  0  0  0  0  0  0  0  0  0  0  0
    4.6992   -0.8566   -3.4025 H   0  0  0  0  0  0  0  0  0  0  0  0
    4.3968    0.4715   -2.3226 H   0  0  0  0  0  0  0  0  0  0  0  0
    4.1671    0.2497    0.1960 H   0  0  0  0  0  0  0  0  0  0  0  0
    4.9228    0.5479    2.4615 H   0  0  0  0  0  0  0  0  0  0  0  0
    3.3456   -0.0554    2.4179 H   0  0  0  0  0  0  0  0  0  0  0  0
    5.9903   -1.1693    3.2806 H   0  0  0  0  0  0  0  0  0  0  0  0
    3.4165   -1.7832    4.1048 H   0  0  0  0  0  0  0  0  0  0  0  0
    5.1364   -3.4967    2.8918 H   0  0  0  0  0  0  0  0  0  0  0  0
    6.8745   -3.5210    1.6556 H   0  0  0  0  0  0  0  0  0  0  0  0
    2.0070   -1.3371    1.3830 H   0  0  0  0  0  0  0  0  0  0  0  0
    2.3232   -1.9767    2.9809 H   0  0  0  0  0  0  0  0  0  0  0  0
    1.4366   -2.8694    1.8344 H   0  0  0  0  0  0  0  0  0  0  0  0
    2.7598   -2.5850   -3.1508 H   0  0  0  0  0  0  0  0  0  0  0  0
    3.3079   -4.2076   -3.1567 H   0  0  0  0  0  0  0  0  0  0  0  0
    4.4484   -2.9921   -3.3038 H   0  0  0  0  0  0  0  0  0  0  0  0
    1.6827   -3.3541   -0.1957 H   0  0  0  0  0  0  0  0  0  0  0  0
    2.1093   -4.8822   -0.9639 H   0  0  0  0  0  0  0  0  0  0  0  0
    1.4915   -3.5118   -1.8100 H   0  0  0  0  0  0  0  0  0  0  0  0
  1  2  1  0
  1 25  1  0
  1 26  1  0
  1 27  1  0
  2 20  1  0
  2  3  1  0
  2 28  1  6
  3  4  1  0
  3  5  1  0
  3 29  1  1
  4 30  1  0
  5  6  1  0
  5 31  1  0
  5 32  1  0
  6 22  1  0
  6  7  1  0
  6 33  1  6
  7 17  1  0
  7  8  1  0
  7 34  1  6
  8  9  1  0
  8 35  1  0
  8 36  1  0
  9 10  1  0
  9 11  1  0
  9 37  1  1
 10 38  1  0
 10 39  1  0
 10 40  1  0
 11 20  1  0
 11 12  1  0
 11 22  1  6
 12 19  1  0
 12 13  1  0
 12 41  1  6
 13 14  1  0
 13 42  1  0
 13 43  1  0
 14 15  1  0
 14 16  1  0
 14 44  1  1
 15 45  1  0
 16 17  1  0
 16 20  1  0
 16 46  1  1
 17 18  1  0
 17 47  1  1
 18 19  1  0
 20 21  1  1
 21 48  1  0
 21 49  1  0
 21 50  1  0
 22 23  1  0
 22 24  1  0
 23 51  1  0
 23 52  1  0
 23 53  1  0
 24 54  1  0
 24 55  1  0
 24 56  1  0
M  END
>  <i_m_ct_stereo_status>  (115) 
1

>  <s_m_source_file>  (115) 
/var/tmp/pbs.5076255.sched01/tmp3foza_40/36o9al7bb4.sdf

>  <i_m_source_file_index>  (115) 
13

>  <i_lp_mmshare_version>  (115) 
48012

>  <i_f3d_flags>  (115) 
2

>  <s_epik_input>  (115) 
W0NIM11bQ0BAXTEyW0NASF0oW0NIM10pW0NAQEhdKFtPSF0pW0NIMl1bQ0BASF0oQzMoW0NIM10pW0NIM10pW0NAQEhdKFtDSDJdW0NASF00W0NIM10pW0NAQEhdKE9PNSlbQ0BIXTJbQ0BIXShbT0hdKVtDSDJdW0NAQEhdNUMxMzQ=

>  <s_epik_cmdline>  (115) 
J2VwaWtfcHl0aG9uJywgJy1waHQnLCAnMi4wJywgJy1waCcsICc3LjAnLCAnLXRuJywgJzgnLCAnLW1hJywgJzIwMCcsICctaW1hZScsICc8aW5maWxlLm1hZT4nLCAnLW9tYWUnLCAnPG91dGZpbGUubWFlPic=

>  <r_lp_tautomer_probability>  (115) 
1

>  <r_epik_Ionization_Penalty>  (115) 
1.34517e-06

>  <r_epik_Ionization_Penalty_Charging>  (115) 
0

>  <r_epik_Ionization_Penalty_Neutral>  (115) 
1.34517e-06

>  <r_epik_State_Penalty>  (115) 
-0

>  <r_epik_Charging_Adjusted_Penalty>  (115) 
0

>  <i_epik_Tot_Q>  (115) 
0

>  <i_epik_Tot_abs_Q>  (115) 
0

>  <s_lp_Force_Field>  (115) 
OPLS3e

>  <r_lp_Energy>  (115) 
368.857

>  <b_lp_Chiralities_Consistent>  (115) 
0

>  <s_lp_Variant>  (115) 
39:0-1

>  <s_i_glide_gridfile>  (115) 
pfpi4k_grid

>  <i_i_glide_lignum>  (115) 
13

>  <i_i_glide_rotatable_bonds>  (115) 
2

>  <r_i_docking_score>  (115) 
-2.90427

>  <r_i_glide_ligand_efficiency>  (115) 
-0.121011

>  <r_i_glide_ligand_efficiency_sa>  (115) 
-0.349057

>  <r_i_glide_ligand_efficiency_ln>  (115) 
-0.695125

>  <r_i_glide_gscore>  (115) 
-2.90427

>  <r_i_glide_lipo>  (115) 
-0.612825

>  <r_i_glide_hbond>  (115) 
0

>  <r_i_glide_metal>  (115) 
-0

>  <r_i_glide_rewards>  (115) 
-1.11501

>  <r_i_glide_evdw>  (115) 
-22.4276

>  <r_i_glide_ecoul>  (115) 
-0.367064

>  <r_i_glide_erotb>  (115) 
0

>  <r_i_glide_esite>  (115) 
0

>  <r_i_glide_emodel>  (115) 
-26.1127

>  <r_i_glide_energy>  (115) 
-22.7947

>  <r_i_glide_einternal>  (115) 
0.0257854

>  <r_i_glide_intrahb_reward>  (115) 
-0

>  <i_i_glide_confnum>  (115) 
2

>  <i_i_glide_posenum>  (115) 
4

>  <r_i_glide_eff_state_penalty>  (115) 
0

>  <ligand_id>  (115) 
39

>  <original_smiles>  (115) 
CC1C(O)CC2C3CC(C)C4(C5CC(O)C(C3OO5)C14C)C2(C)C

>  <smiles>  (115) 
[H]OC1([H])C([H])([H])C2([H])C3([H])C([H])([H])C([H])(C([H])([H])[H])C4(C5([H])OOC3([H])C([H])(C([H])(O[H])C5([H])[H])C4(C([H])([H])[H])C1([H])C([H])([H])[H])C2(C([H])([H])[H])C([H])([H])[H]

$$$$
39:0:1
     RDKit          3D

 56 60  0  0  1  0  0  0  0  0999 V2000
    2.8999   -4.7328    3.1429 C   0  0  0  0  0  0  0  0  0  0  0  0
    3.3219   -4.4422    1.6540 C   0  0  2  0  0  0  0  0  0  0  0  0
    4.3788   -5.5229    1.3079 C   0  0  1  0  0  0  0  0  0  0  0  0
    3.9484   -6.8260    1.6443 O   0  0  0  0  0  0  0  0  0  0  0  0
    4.6431   -5.5983   -0.1617 C   0  0  0  0  0  0  0  0  0  0  0  0
    4.9095   -4.2554   -0.8173 C   0  0  2  0  0  0  0  0  0  0  0  0
    6.1533   -3.4862   -0.3031 C   0  0  1  0  0  0  0  0  0  0  0  0
    6.2812   -2.3993   -1.3638 C   0  0  0  0  0  0  0  0  0  0  0  0
    5.0045   -1.5056   -1.2317 C   0  0  1  0  0  0  0  0  0  0  0  0
    4.4213   -0.6441   -2.4175 C   0  0  0  0  0  0  0  0  0  0  0  0
    3.8877   -1.9770   -0.0740 C   0  0  1  0  0  0  0  0  0  0  0  0
    4.6816   -0.6823    0.6786 C   0  0  1  0  0  0  0  0  0  0  0  0
    4.4745   -0.3379    2.1785 C   0  0  0  0  0  0  0  0  0  0  0  0
    5.0295   -1.4665    3.0261 C   0  0  1  0  0  0  0  0  0  0  0  0
    4.3717   -1.6021    4.2672 O   0  0  0  0  0  0  0  0  0  0  0  0
    5.0106   -2.7518    2.1687 C   0  0  2  0  0  0  0  0  0  0  0  0
    6.2283   -2.9149    1.1867 C   0  0  2  0  0  0  0  0  0  0  0  0
    6.9506   -1.7038    1.2390 O   0  0  0  0  0  0  0  0  0  0  0  0
    6.1455   -0.5101    0.7327 O   0  0  0  0  0  0  0  0  0  0  0  0
    3.7014   -2.8772    1.3555 C   0  0  2  0  0  0  0  0  0  0  0  0
    2.3738   -2.2147    1.9111 C   0  0  0  0  0  0  0  0  0  0  0  0
    3.7256   -3.2561   -1.1407 C   0  0  0  0  0  0  0  0  0  0  0  0
    3.6510   -3.2368   -2.7457 C   0  0  0  0  0  0  0  0  0  0  0  0
    2.2525   -3.7746   -1.0379 C   0  0  0  0  0  0  0  0  0  0  0  0
    3.7433   -4.7758    3.8316 H   0  0  0  0  0  0  0  0  0  0  0  0
    2.4013   -5.6986    3.2188 H   0  0  0  0  0  0  0  0  0  0  0  0
    2.1775   -4.0436    3.5693 H   0  0  0  0  0  0  0  0  0  0  0  0
    2.4151   -4.7487    1.1521 H   0  0  0  0  0  0  0  0  0  0  0  0
    5.3220   -5.3777    1.8335 H   0  0  0  0  0  0  0  0  0  0  0  0
    3.8920   -6.8921    2.5910 H   0  0  0  0  0  0  0  0  0  0  0  0
    5.5081   -6.2402   -0.3098 H   0  0  0  0  0  0  0  0  0  0  0  0
    3.8303   -6.1177   -0.6726 H   0  0  0  0  0  0  0  0  0  0  0  0
    5.2328   -4.6353   -1.7878 H   0  0  0  0  0  0  0  0  0  0  0  0
    7.0212   -4.1377   -0.4162 H   0  0  0  0  0  0  0  0  0  0  0  0
    7.2108   -1.8565   -1.2007 H   0  0  0  0  0  0  0  0  0  0  0  0
    6.4050   -2.8244   -2.3615 H   0  0  0  0  0  0  0  0  0  0  0  0
    5.6393   -0.6236   -1.2192 H   0  0  0  0  0  0  0  0  0  0  0  0
    3.3347   -0.7081   -2.4717 H   0  0  0  0  0  0  0  0  0  0  0  0
    4.8645   -0.9006   -3.3809 H   0  0  0  0  0  0  0  0  0  0  0  0
    4.5670    0.4363   -2.3315 H   0  0  0  0  0  0  0  0  0  0  0  0
    4.2897    0.2181    0.2091 H   0  0  0  0  0  0  0  0  0  0  0  0
    5.0329    0.5473    2.4698 H   0  0  0  0  0  0  0  0  0  0  0  0
    3.4510   -0.0566    2.4156 H   0  0  0  0  0  0  0  0  0  0  0  0
    6.0522   -1.2313    3.3092 H   0  0  0  0  0  0  0  0  0  0  0  0
    3.4494   -1.7848    4.1037 H   0  0  0  0  0  0  0  0  0  0  0  0
    5.1521   -3.5348    2.9114 H   0  0  0  0  0  0  0  0  0  0  0  0
    6.9019   -3.6015    1.6904 H   0  0  0  0  0  0  0  0  0  0  0  0
    2.0958   -1.3132    1.3631 H   0  0  0  0  0  0  0  0  0  0  0  0
    2.3715   -1.9608    2.9652 H   0  0  0  0  0  0  0  0  0  0  0  0
    1.4848   -2.8333    1.8023 H   0  0  0  0  0  0  0  0  0  0  0  0
    2.8775   -2.5885   -3.1632 H   0  0  0  0  0  0  0  0  0  0  0  0
    3.4074   -4.2189   -3.1429 H   0  0  0  0  0  0  0  0  0  0  0  0
    4.5662   -3.0233   -3.2823 H   0  0  0  0  0  0  0  0  0  0  0  0
    1.7401   -3.3274   -0.2132 H   0  0  0  0  0  0  0  0  0  0  0  0
    2.1452   -4.8539   -0.9829 H   0  0  0  0  0  0  0  0  0  0  0  0
    1.5703   -3.4696   -1.8356 H   0  0  0  0  0  0  0  0  0  0  0  0
  1  2  1  0
  1 25  1  0
  1 26  1  0
  1 27  1  0
  2 20  1  0
  2  3  1  0
  2 28  1  6
  3  4  1  0
  3  5  1  0
  3 29  1  1
  4 30  1  0
  5  6  1  0
  5 31  1  0
  5 32  1  0
  6 22  1  0
  6  7  1  0
  6 33  1  6
  7 17  1  0
  7  8  1  0
  7 34  1  6
  8  9  1  0
  8 35  1  0
  8 36  1  0
  9 10  1  0
  9 11  1  0
  9 37  1  1
 10 38  1  0
 10 39  1  0
 10 40  1  0
 11 20  1  0
 11 12  1  0
 11 22  1  6
 12 19  1  0
 12 13  1  0
 12 41  1  6
 13 14  1  0
 13 42  1  0
 13 43  1  0
 14 15  1  0
 14 16  1  0
 14 44  1  1
 15 45  1  0
 16 17  1  0
 16 20  1  0
 16 46  1  1
 17 18  1  0
 17 47  1  1
 18 19  1  0
 20 21  1  1
 21 48  1  0
 21 49  1  0
 21 50  1  0
 22 23  1  0
 22 24  1  0
 23 51  1  0
 23 52  1  0
 23 53  1  0
 24 54  1  0
 24 55  1  0
 24 56  1  0
M  END
>  <i_m_ct_stereo_status>  (116) 
1

>  <s_m_source_file>  (116) 
/var/tmp/pbs.5076255.sched01/tmp3foza_40/36o9al7bb4.sdf

>  <i_m_source_file_index>  (116) 
13

>  <i_lp_mmshare_version>  (116) 
48012

>  <i_f3d_flags>  (116) 
2

>  <s_epik_input>  (116) 
W0NIM11bQ0BAXTEyW0NASF0oW0NIM10pW0NAQEhdKFtPSF0pW0NIMl1bQ0BASF0oQzMoW0NIM10pW0NIM10pW0NAQEhdKFtDSDJdW0NASF00W0NIM10pW0NAQEhdKE9PNSlbQ0BIXTJbQ0BIXShbT0hdKVtDSDJdW0NAQEhdNUMxMzQ=

>  <s_epik_cmdline>  (116) 
J2VwaWtfcHl0aG9uJywgJy1waHQnLCAnMi4wJywgJy1waCcsICc3LjAnLCAnLXRuJywgJzgnLCAnLW1hJywgJzIwMCcsICctaW1hZScsICc8aW5maWxlLm1hZT4nLCAnLW9tYWUnLCAnPG91dGZpbGUubWFlPic=

>  <r_lp_tautomer_probability>  (116) 
1

>  <r_epik_Ionization_Penalty>  (116) 
1.34517e-06

>  <r_epik_Ionization_Penalty_Charging>  (116) 
0

>  <r_epik_Ionization_Penalty_Neutral>  (116) 
1.34517e-06

>  <r_epik_State_Penalty>  (116) 
-0

>  <r_epik_Charging_Adjusted_Penalty>  (116) 
0

>  <i_epik_Tot_Q>  (116) 
0

>  <i_epik_Tot_abs_Q>  (116) 
0

>  <s_lp_Force_Field>  (116) 
OPLS3e

>  <r_lp_Energy>  (116) 
368.857

>  <b_lp_Chiralities_Consistent>  (116) 
0

>  <s_lp_Variant>  (116) 
39:0-1

>  <s_i_glide_gridfile>  (116) 
pfpi4k_grid

>  <i_i_glide_lignum>  (116) 
13

>  <i_i_glide_rotatable_bonds>  (116) 
2

>  <r_i_docking_score>  (116) 
-2.89887

>  <r_i_glide_ligand_efficiency>  (116) 
-0.120786

>  <r_i_glide_ligand_efficiency_sa>  (116) 
-0.348408

>  <r_i_glide_ligand_efficiency_ln>  (116) 
-0.693833

>  <r_i_glide_gscore>  (116) 
-2.89887

>  <r_i_glide_lipo>  (116) 
-0.585557

>  <r_i_glide_hbond>  (116) 
0

>  <r_i_glide_metal>  (116) 
-0

>  <r_i_glide_rewards>  (116) 
-1.11501

>  <r_i_glide_evdw>  (116) 
-22.4389

>  <r_i_glide_ecoul>  (116) 
-0.509097

>  <r_i_glide_erotb>  (116) 
0

>  <r_i_glide_esite>  (116) 
0

>  <r_i_glide_emodel>  (116) 
-26.3952

>  <r_i_glide_energy>  (116) 
-22.948

>  <r_i_glide_einternal>  (116) 
0.333502

>  <r_i_glide_intrahb_reward>  (116) 
-0

>  <i_i_glide_confnum>  (116) 
1

>  <i_i_glide_posenum>  (116) 
10

>  <r_i_glide_eff_state_penalty>  (116) 
0

>  <ligand_id>  (116) 
39

>  <original_smiles>  (116) 
CC1C(O)CC2C3CC(C)C4(C5CC(O)C(C3OO5)C14C)C2(C)C

>  <smiles>  (116) 
[H]OC1([H])C([H])([H])C2([H])C3([H])C([H])([H])C([H])(C([H])([H])[H])C4(C5([H])OOC3([H])C([H])(C([H])(O[H])C5([H])[H])C4(C([H])([H])[H])C1([H])C([H])([H])[H])C2(C([H])([H])[H])C([H])([H])[H]

$$$$
39:0:2
     RDKit          3D

 56 60  0  0  1  0  0  0  0  0999 V2000
    2.7962   -4.7142    3.1081 C   0  0  0  0  0  0  0  0  0  0  0  0
    3.2559   -4.4291    1.6291 C   0  0  2  0  0  0  0  0  0  0  0  0
    4.3176   -5.5187    1.3091 C   0  0  1  0  0  0  0  0  0  0  0  0
    3.8670   -6.8119    1.6509 O   0  0  0  0  0  0  0  0  0  0  0  0
    4.6198   -5.5990   -0.1545 C   0  0  0  0  0  0  0  0  0  0  0  0
    4.9041   -4.2533   -0.7973 C   0  0  2  0  0  0  0  0  0  0  0  0
    6.1377   -3.4911   -0.2513 C   0  0  1  0  0  0  0  0  0  0  0  0
    6.2993   -2.4050   -1.3079 C   0  0  0  0  0  0  0  0  0  0  0  0
    5.0231   -1.5053   -1.2120 C   0  0  1  0  0  0  0  0  0  0  0  0
    4.4709   -0.6507   -2.4156 C   0  0  0  0  0  0  0  0  0  0  0  0
    3.8735   -1.9764   -0.0838 C   0  0  1  0  0  0  0  0  0  0  0  0
    4.6481   -0.6757    0.6837 C   0  0  1  0  0  0  0  0  0  0  0  0
    4.4111   -0.3325    2.1773 C   0  0  0  0  0  0  0  0  0  0  0  0
    4.9462   -1.4561    3.0412 C   0  0  1  0  0  0  0  0  0  0  0  0
    4.2486   -1.5854    4.2659 O   0  0  0  0  0  0  0  0  0  0  0  0
    4.9401   -2.7450    2.1853 C   0  0  2  0  0  0  0  0  0  0  0  0
    6.1784   -2.9131    1.2329 C   0  0  2  0  0  0  0  0  0  0  0  0
    6.9112   -1.7074    1.2747 O   0  0  0  0  0  0  0  0  0  0  0  0
    6.1067   -0.4984    0.7785 O   0  0  0  0  0  0  0  0  0  0  0  0
    3.6516   -2.8653    1.3385 C   0  0  2  0  0  0  0  0  0  0  0  0
    2.3159   -2.1962    1.8602 C   0  0  0  0  0  0  0  0  0  0  0  0
    3.7338   -3.2509   -1.1509 C   0  0  0  0  0  0  0  0  0  0  0  0
    3.7047   -3.2384   -2.7555 C   0  0  0  0  0  0  0  0  0  0  0  0
    2.2556   -3.7586   -1.0872 C   0  0  0  0  0  0  0  0  0  0  0  0
    3.6224   -4.7574    3.8182 H   0  0  0  0  0  0  0  0  0  0  0  0
    2.3017   -5.6838    3.1741 H   0  0  0  0  0  0  0  0  0  0  0  0
    2.0615   -4.0261    3.5139 H   0  0  0  0  0  0  0  0  0  0  0  0
    2.3626   -4.7329    1.1052 H   0  0  0  0  0  0  0  0  0  0  0  0
    5.2461   -5.3752    1.8632 H   0  0  0  0  0  0  0  0  0  0  0  0
    4.5619   -7.4336    1.4746 H   0  0  0  0  0  0  0  0  0  0  0  0
    5.4903   -6.2402   -0.2925 H   0  0  0  0  0  0  0  0  0  0  0  0
    3.8209   -6.1081   -0.6877 H   0  0  0  0  0  0  0  0  0  0  0  0
    5.2549   -4.6308   -1.7603 H   0  0  0  0  0  0  0  0  0  0  0  0
    7.0054   -4.1450   -0.3363 H   0  0  0  0  0  0  0  0  0  0  0  0
    7.2268   -1.8652   -1.1185 H   0  0  0  0  0  0  0  0  0  0  0  0
    6.4486   -2.8296   -2.3012 H   0  0  0  0  0  0  0  0  0  0  0  0
    5.6598   -0.6247   -1.1876 H   0  0  0  0  0  0  0  0  0  0  0  0
    3.3881   -0.7101   -2.4936 H   0  0  0  0  0  0  0  0  0  0  0  0
    4.9398   -0.9183   -3.3640 H   0  0  0  0  0  0  0  0  0  0  0  0
    4.6115    0.4299   -2.3345 H   0  0  0  0  0  0  0  0  0  0  0  0
    4.2686    0.2213    0.2024 H   0  0  0  0  0  0  0  0  0  0  0  0
    4.9711    0.5445    2.4832 H   0  0  0  0  0  0  0  0  0  0  0  0
    3.3840   -0.0442    2.3896 H   0  0  0  0  0  0  0  0  0  0  0  0
    5.9589   -1.2276    3.3484 H   0  0  0  0  0  0  0  0  0  0  0  0
    3.3356   -1.7768    4.0756 H   0  0  0  0  0  0  0  0  0  0  0  0
    5.0567   -3.5284    2.9348 H   0  0  0  0  0  0  0  0  0  0  0  0
    6.8310   -3.5979    1.7605 H   0  0  0  0  0  0  0  0  0  0  0  0
    2.0525   -1.3005    1.3038 H   0  0  0  0  0  0  0  0  0  0  0  0
    2.2842   -1.9432    2.9135 H   0  0  0  0  0  0  0  0  0  0  0  0
    1.4262   -2.8162    1.7312 H   0  0  0  0  0  0  0  0  0  0  0  0
    2.9450   -2.5889   -3.1970 H   0  0  0  0  0  0  0  0  0  0  0  0
    3.4735   -4.2237   -3.1561 H   0  0  0  0  0  0  0  0  0  0  0  0
    4.6353   -3.0301   -3.2691 H   0  0  0  0  0  0  0  0  0  0  0  0
    1.7129   -3.3058   -0.2818 H   0  0  0  0  0  0  0  0  0  0  0  0
    2.1417   -4.8373   -1.0314 H   0  0  0  0  0  0  0  0  0  0  0  0
    1.5985   -3.4547   -1.9075 H   0  0  0  0  0  0  0  0  0  0  0  0
  1  2  1  0
  1 25  1  0
  1 26  1  0
  1 27  1  0
  2 20  1  0
  2  3  1  0
  2 28  1  6
  3  4  1  0
  3  5  1  0
  3 29  1  1
  4 30  1  0
  5  6  1  0
  5 31  1  0
  5 32  1  0
  6 22  1  0
  6  7  1  0
  6 33  1  6
  7 17  1  0
  7  8  1  0
  7 34  1  1
  8  9  1  0
  8 35  1  0
  8 36  1  0
  9 10  1  0
  9 11  1  0
  9 37  1  1
 10 38  1  0
 10 39  1  0
 10 40  1  0
 11 20  1  0
 11 12  1  0
 11 22  1  6
 12 19  1  0
 12 13  1  0
 12 41  1  6
 13 14  1  0
 13 42  1  0
 13 43  1  0
 14 15  1  0
 14 16  1  0
 14 44  1  1
 15 45  1  0
 16 17  1  0
 16 20  1  0
 16 46  1  1
 17 18  1  0
 17 47  1  1
 18 19  1  0
 20 21  1  1
 21 48  1  0
 21 49  1  0
 21 50  1  0
 22 23  1  0
 22 24  1  0
 23 51  1  0
 23 52  1  0
 23 53  1  0
 24 54  1  0
 24 55  1  0
 24 56  1  0
M  END
>  <i_m_ct_stereo_status>  (117) 
1

>  <s_m_source_file>  (117) 
/var/tmp/pbs.5076255.sched01/tmp3foza_40/36o9al7bb4.sdf

>  <i_m_source_file_index>  (117) 
13

>  <i_lp_mmshare_version>  (117) 
48012

>  <i_f3d_flags>  (117) 
2

>  <s_epik_input>  (117) 
W0NIM11bQ0BAXTEyW0NASF0oW0NIM10pW0NAQEhdKFtPSF0pW0NIMl1bQ0BASF0oQzMoW0NIM10pW0NIM10pW0NAQEhdKFtDSDJdW0NASF00W0NIM10pW0NAQEhdKE9PNSlbQ0BIXTJbQ0BIXShbT0hdKVtDSDJdW0NAQEhdNUMxMzQ=

>  <s_epik_cmdline>  (117) 
J2VwaWtfcHl0aG9uJywgJy1waHQnLCAnMi4wJywgJy1waCcsICc3LjAnLCAnLXRuJywgJzgnLCAnLW1hJywgJzIwMCcsICctaW1hZScsICc8aW5maWxlLm1hZT4nLCAnLW9tYWUnLCAnPG91dGZpbGUubWFlPic=

>  <r_lp_tautomer_probability>  (117) 
1

>  <r_epik_Ionization_Penalty>  (117) 
1.34517e-06

>  <r_epik_Ionization_Penalty_Charging>  (117) 
0

>  <r_epik_Ionization_Penalty_Neutral>  (117) 
1.34517e-06

>  <r_epik_State_Penalty>  (117) 
-0

>  <r_epik_Charging_Adjusted_Penalty>  (117) 
0

>  <i_epik_Tot_Q>  (117) 
0

>  <i_epik_Tot_abs_Q>  (117) 
0

>  <s_lp_Force_Field>  (117) 
OPLS3e

>  <r_lp_Energy>  (117) 
368.857

>  <b_lp_Chiralities_Consistent>  (117) 
0

>  <s_lp_Variant>  (117) 
39:0-1

>  <s_i_glide_gridfile>  (117) 
pfpi4k_grid

>  <i_i_glide_lignum>  (117) 
13

>  <i_i_glide_rotatable_bonds>  (117) 
2

>  <r_i_docking_score>  (117) 
-2.85598

>  <r_i_glide_ligand_efficiency>  (117) 
-0.118999

>  <r_i_glide_ligand_efficiency_sa>  (117) 
-0.343253

>  <r_i_glide_ligand_efficiency_ln>  (117) 
-0.683568

>  <r_i_glide_gscore>  (117) 
-2.85598

>  <r_i_glide_lipo>  (117) 
-0.567527

>  <r_i_glide_hbond>  (117) 
0

>  <r_i_glide_metal>  (117) 
-0

>  <r_i_glide_rewards>  (117) 
-1.11501

>  <r_i_glide_evdw>  (117) 
-22.5155

>  <r_i_glide_ecoul>  (117) 
-0.317841

>  <r_i_glide_erotb>  (117) 
0

>  <r_i_glide_esite>  (117) 
0

>  <r_i_glide_emodel>  (117) 
-26.2157

>  <r_i_glide_energy>  (117) 
-22.8333

>  <r_i_glide_einternal>  (117) 
0.325672

>  <r_i_glide_intrahb_reward>  (117) 
-0

>  <i_i_glide_confnum>  (117) 
2

>  <i_i_glide_posenum>  (117) 
1

>  <r_i_glide_eff_state_penalty>  (117) 
0

>  <ligand_id>  (117) 
39

>  <original_smiles>  (117) 
CC1C(O)CC2C3CC(C)C4(C5CC(O)C(C3OO5)C14C)C2(C)C

>  <smiles>  (117) 
[H]OC1([H])C([H])([H])C2([H])C3([H])C([H])([H])C([H])(C([H])([H])[H])C4(C5([H])OOC3([H])C([H])(C([H])(O[H])C5([H])[H])C4(C([H])([H])[H])C1([H])C([H])([H])[H])C2(C([H])([H])[H])C([H])([H])[H]

$$$$
43:0:0
     RDKit          3D

 88 94  0  0  1  0  0  0  0  0999 V2000
    6.7652   -7.3899    5.8182 C   0  0  0  0  0  0  0  0  0  0  0  0
    5.4542   -7.3555    5.2698 O   0  0  0  0  0  0  0  0  0  0  0  0
    5.0154   -8.5720    4.7285 C   0  0  2  0  0  0  0  0  0  0  0  0
    5.6832   -9.0142    3.5853 O   0  0  0  0  0  0  0  0  0  0  0  0
    5.9900   -8.0123    2.6377 C   0  0  1  0  0  0  0  0  0  0  0  0
    6.3073   -8.4638    1.3144 O   0  0  0  0  0  0  0  0  0  0  0  0
    5.0030   -7.9520    1.5238 C   0  0  1  0  0  0  0  0  0  0  0  0
    3.9018   -8.9933    1.3609 C   0  0  0  0  0  0  0  0  0  0  0  0
    2.6004   -8.4546    1.5113 O   0  0  0  0  0  0  0  0  0  0  0  0
    2.4940   -7.2593    2.2910 C   0  0  1  0  0  0  0  0  0  0  0  0
    2.5789   -7.5422    3.8389 C   0  0  1  0  0  0  0  0  0  0  0  0
    1.3202   -8.1790    4.0976 O   0  0  0  0  0  0  0  0  0  0  0  0
    1.5194   -9.5447    4.3778 C   0  0  0  0  0  0  0  0  0  0  0  0
    0.9364   -9.8317    5.7706 C   0  0  0  0  0  0  0  0  0  0  0  0
    0.8472  -10.4265    3.3106 C   0  0  0  0  0  0  0  0  0  0  0  0
    2.8847   -9.8306    4.3930 O   0  0  0  0  0  0  0  0  0  0  0  0
    3.4584   -8.5739    4.6178 C   0  0  1  0  0  0  0  0  0  0  0  0
    3.2888   -6.0929    1.5569 C   0  0  2  0  0  0  0  0  0  0  0  0
    2.4225   -5.7921    0.4729 O   0  0  0  0  0  0  0  0  0  0  0  0
    4.5934   -6.6232    0.8671 C   0  0  1  0  0  0  0  0  0  0  0  0
    5.7264   -5.5591    0.7591 C   0  0  0  0  0  0  0  0  0  0  0  0
    5.2659   -4.1122    0.4456 C   0  0  1  0  0  0  0  0  0  0  0  0
    4.9109   -4.0376   -0.9405 O   0  0  0  0  0  0  0  0  0  0  0  0
    5.5688   -3.2391   -1.8219 C   0  0  0  0  0  0  0  0  0  0  0  0
    4.8849   -3.1772   -3.1824 C   0  0  0  0  0  0  0  0  0  0  0  0
    6.6006   -2.5949   -1.6010 O   0  0  0  0  0  0  0  0  0  0  0  0
    4.0515   -3.6083    1.3118 C   0  0  2  0  0  0  0  0  0  0  0  0
    4.1300   -2.1021    1.8279 C   0  0  2  0  0  0  0  0  0  0  0  0
    4.4519   -1.2346    0.5947 C   0  0  0  0  0  0  0  0  0  0  0  0
    5.2320   -1.8455    2.8926 C   0  0  0  0  0  0  0  0  0  0  0  0
    5.2587   -0.4039    3.4127 C   0  0  0  0  0  0  0  0  0  0  0  0
    3.9077   -0.0066    4.0145 C   0  0  0  0  0  0  0  0  0  0  0  0
    2.6953   -0.2061    3.0600 C   0  0  0  0  0  0  0  0  0  0  0  0
    1.4129    0.0302    3.8888 C   0  0  0  0  0  0  0  0  0  0  0  0
    2.6646    0.9036    1.9751 C   0  0  0  0  0  0  0  0  0  0  0  0
    2.7241   -1.6685    2.4438 C   0  0  2  0  0  0  0  0  0  0  0  0
    2.2280   -2.7455    3.4486 C   0  0  0  0  0  0  0  0  0  0  0  0
    2.1486   -4.1562    2.8468 C   0  0  0  0  0  0  0  0  0  0  0  0
    3.4975   -4.7009    2.3127 C   0  0  1  0  0  0  0  0  0  0  0  0
    4.4603   -4.9251    3.4973 C   0  0  0  0  0  0  0  0  0  0  0  0
    7.0305   -6.3843    6.1396 H   0  0  0  0  0  0  0  0  0  0  0  0
    7.5213   -7.7156    5.1009 H   0  0  0  0  0  0  0  0  0  0  0  0
    6.8145   -8.0385    6.6928 H   0  0  0  0  0  0  0  0  0  0  0  0
    5.2569   -9.3368    5.4696 H   0  0  0  0  0  0  0  0  0  0  0  0
    6.6291   -7.1962    2.9749 H   0  0  0  0  0  0  0  0  0  0  0  0
    3.9691   -9.4339    0.3683 H   0  0  0  0  0  0  0  0  0  0  0  0
    4.0278   -9.8213    2.0618 H   0  0  0  0  0  0  0  0  0  0  0  0
    1.4450   -6.9783    2.1737 H   0  0  0  0  0  0  0  0  0  0  0  0
    2.5716   -6.6050    4.3871 H   0  0  0  0  0  0  0  0  0  0  0  0
    1.3512   -9.1552    6.5167 H   0  0  0  0  0  0  0  0  0  0  0  0
    1.1826  -10.8545    6.0541 H   0  0  0  0  0  0  0  0  0  0  0  0
   -0.1495   -9.7146    5.7497 H   0  0  0  0  0  0  0  0  0  0  0  0
    1.2792  -10.2710    2.3250 H   0  0  0  0  0  0  0  0  0  0  0  0
   -0.2226  -10.2152    3.2667 H   0  0  0  0  0  0  0  0  0  0  0  0
    0.9858  -11.4780    3.5705 H   0  0  0  0  0  0  0  0  0  0  0  0
    3.2034   -8.3432    5.6554 H   0  0  0  0  0  0  0  0  0  0  0  0
    2.9473   -5.4400   -0.2251 H   0  0  0  0  0  0  0  0  0  0  0  0
    4.3630   -6.9142   -0.1631 H   0  0  0  0  0  0  0  0  0  0  0  0
    6.3080   -5.5306    1.6723 H   0  0  0  0  0  0  0  0  0  0  0  0
    6.4457   -5.8765    0.0122 H   0  0  0  0  0  0  0  0  0  0  0  0
    6.1345   -3.4828    0.6371 H   0  0  0  0  0  0  0  0  0  0  0  0
    4.9224   -4.1445   -3.6854 H   0  0  0  0  0  0  0  0  0  0  0  0
    5.3692   -2.4414   -3.8302 H   0  0  0  0  0  0  0  0  0  0  0  0
    3.8383   -2.8806   -3.0976 H   0  0  0  0  0  0  0  0  0  0  0  0
    3.2456   -3.5081    0.5763 H   0  0  0  0  0  0  0  0  0  0  0  0
    4.5183   -0.1811    0.7788 H   0  0  0  0  0  0  0  0  0  0  0  0
    3.7141   -1.3475   -0.1781 H   0  0  0  0  0  0  0  0  0  0  0  0
    5.4362   -1.4826    0.2190 H   0  0  0  0  0  0  0  0  0  0  0  0
    5.0830   -2.4547    3.7694 H   0  0  0  0  0  0  0  0  0  0  0  0
    6.1968   -2.1123    2.4782 H   0  0  0  0  0  0  0  0  0  0  0  0
    6.0265   -0.3113    4.1783 H   0  0  0  0  0  0  0  0  0  0  0  0
    5.5614    0.2865    2.6294 H   0  0  0  0  0  0  0  0  0  0  0  0
    3.7552   -0.5964    4.9181 H   0  0  0  0  0  0  0  0  0  0  0  0
    3.9482    1.0329    4.3418 H   0  0  0  0  0  0  0  0  0  0  0  0
    0.5188   -0.2011    3.3003 H   0  0  0  0  0  0  0  0  0  0  0  0
    1.3393    1.0744    4.2109 H   0  0  0  0  0  0  0  0  0  0  0  0
    1.3965   -0.5686    4.8025 H   0  0  0  0  0  0  0  0  0  0  0  0
    2.2778    0.5360    1.0269 H   0  0  0  0  0  0  0  0  0  0  0  0
    3.6418    1.3375    1.8105 H   0  0  0  0  0  0  0  0  0  0  0  0
    2.0537    1.7644    2.2511 H   0  0  0  0  0  0  0  0  0  0  0  0
    1.9921   -1.6766    1.6342 H   0  0  0  0  0  0  0  0  0  0  0  0
    2.8479   -2.7477    4.3410 H   0  0  0  0  0  0  0  0  0  0  0  0
    1.2196   -2.5217    3.7762 H   0  0  0  0  0  0  0  0  0  0  0  0
    1.7153   -4.8268    3.5907 H   0  0  0  0  0  0  0  0  0  0  0  0
    1.4114   -4.1226    2.0490 H   0  0  0  0  0  0  0  0  0  0  0  0
    4.0671   -4.5836    4.4567 H   0  0  0  0  0  0  0  0  0  0  0  0
    5.4440   -4.4818    3.3576 H   0  0  0  0  0  0  0  0  0  0  0  0
    4.6556   -5.9772    3.6174 H   0  0  0  0  0  0  0  0  0  0  0  0
  1  2  1  0
  1 41  1  0
  1 42  1  0
  1 43  1  0
  2  3  1  0
  3 17  1  0
  3  4  1  0
  3 44  1  1
  4  5  1  0
  5  7  1  0
  5  6  1  0
  5 45  1  1
  7  6  1  6
  7 20  1  0
  7  8  1  0
  8  9  1  0
  8 46  1  0
  8 47  1  0
  9 10  1  0
 10 11  1  0
 10 18  1  0
 10 48  1  1
 11 17  1  0
 11 12  1  0
 11 49  1  1
 12 13  1  0
 13 14  1  0
 13 15  1  0
 13 16  1  0
 14 50  1  0
 14 51  1  0
 14 52  1  0
 15 53  1  0
 15 54  1  0
 15 55  1  0
 16 17  1  0
 17 56  1  1
 18 39  1  0
 18 19  1  6
 18 20  1  0
 19 57  1  0
 20 21  1  0
 20 58  1  6
 21 22  1  0
 21 59  1  0
 21 60  1  0
 22 23  1  0
 22 27  1  0
 22 61  1  6
 23 24  1  0
 24 25  1  0
 24 26  2  0
 25 62  1  0
 25 63  1  0
 25 64  1  0
 27 39  1  0
 27 28  1  0
 27 65  1  6
 28 36  1  0
 28 29  1  6
 28 30  1  0
 29 66  1  0
 29 67  1  0
 29 68  1  0
 30 31  1  0
 30 69  1  0
 30 70  1  0
 31 32  1  0
 31 71  1  0
 31 72  1  0
 32 33  1  0
 32 73  1  0
 32 74  1  0
 33 34  1  0
 33 35  1  0
 33 36  1  0
 34 75  1  0
 34 76  1  0
 34 77  1  0
 35 78  1  0
 35 79  1  0
 35 80  1  0
 36 37  1  0
 36 81  1  6
 37 38  1  0
 37 82  1  0
 37 83  1  0
 38 39  1  0
 38 84  1  0
 38 85  1  0
 39 40  1  1
 40 86  1  0
 40 87  1  0
 40 88  1  0
M  END
>  <i_m_ct_stereo_status>  (118) 
1

>  <s_m_source_file>  (118) 
/var/tmp/pbs.5076255.sched01/tmp3foza_40/36o9al7bb4.sdf

>  <i_m_source_file_index>  (118) 
18

>  <i_lp_mmshare_version>  (118) 
48012

>  <i_f3d_flags>  (118) 
0

>  <s_epik_input>  (118) 
TzFbQ0BASF0oW0NAQF0xMjMpT1tDQEBIXShPW0NIM10pW0NASF00W0NASF0oT0MoTzQpKFtDSDNdKVtDSDNdKVtDSF0oT1tDSDJdMilbQ0BdNShbT0hdKVtDQEhdM1tDSDJdW0NAQEhdKE9DKD1PKVtDSDNdKVtDQEBIXTZbQ0BAXTcoW0NIM10pW0NASF0oQyhbQ0gzXSkoW0NIM10pW0NIMl1bQ0gyXVtDSDJdNylbQ0gyXVtDSDJdW0NAQF01NltDSDNd

>  <s_epik_cmdline>  (118) 
J2VwaWtfcHl0aG9uJywgJy1waHQnLCAnMi4wJywgJy1waCcsICc3LjAnLCAnLXRuJywgJzgnLCAnLW1hJywgJzIwMCcsICctaW1hZScsICc8aW5maWxlLm1hZT4nLCAnLW9tYWUnLCAnPG91dGZpbGUubWFlPic=

>  <r_lp_tautomer_probability>  (118) 
1

>  <r_epik_Ionization_Penalty>  (118) 
8.66376e-08

>  <r_epik_Ionization_Penalty_Charging>  (118) 
0

>  <r_epik_Ionization_Penalty_Neutral>  (118) 
8.66376e-08

>  <r_epik_State_Penalty>  (118) 
-0

>  <r_epik_Charging_Adjusted_Penalty>  (118) 
0

>  <i_epik_Tot_Q>  (118) 
0

>  <i_epik_Tot_abs_Q>  (118) 
0

>  <s_epik_Chemistry_Notes>  (118) 
This compound has an ester and may undergo hydrolysis at high or low pH. This compound contains an acetal/aminal-like group ( X-CH(R)-Y where X, Y are N, S, or O) that may be acid/base labile, releasing an aldehyde.

>  <s_lp_Force_Field>  (118) 
OPLS3e

>  <r_lp_Energy>  (118) 
119.347

>  <b_lp_Chiralities_Consistent>  (118) 
1

>  <s_lp_Variant>  (118) 
43:0-1

>  <s_i_glide_gridfile>  (118) 
pfpi4k_grid

>  <i_i_glide_lignum>  (118) 
18

>  <i_i_glide_rotatable_bonds>  (118) 
4

>  <r_i_docking_score>  (118) 
-3.18178

>  <r_i_glide_ligand_efficiency>  (118) 
-0.0795444

>  <r_i_glide_ligand_efficiency_sa>  (118) 
-0.272038

>  <r_i_glide_ligand_efficiency_ln>  (118) 
-0.678579

>  <r_i_glide_gscore>  (118) 
-3.18178

>  <r_i_glide_lipo>  (118) 
-0.896803

>  <r_i_glide_hbond>  (118) 
-0.0549846

>  <r_i_glide_metal>  (118) 
-0

>  <r_i_glide_rewards>  (118) 
-0.206596

>  <r_i_glide_evdw>  (118) 
-30.9037

>  <r_i_glide_ecoul>  (118) 
-3.48764

>  <r_i_glide_erotb>  (118) 
0.0652698

>  <r_i_glide_esite>  (118) 
-0.0203299

>  <r_i_glide_emodel>  (118) 
-39.8432

>  <r_i_glide_energy>  (118) 
-34.3914

>  <r_i_glide_einternal>  (118) 
1.03697

>  <r_i_glide_intrahb_reward>  (118) 
-0

>  <i_i_glide_confnum>  (118) 
3

>  <i_i_glide_posenum>  (118) 
39

>  <r_i_glide_eff_state_penalty>  (118) 
0

>  <ligand_id>  (118) 
43

>  <original_smiles>  (118) 
COC1OC2OC23COC(C2OC(C)(C)OC12)C1(O)C3CC(OC(C)=O)C2C3(C)CCCC(C)(C)C3CCC21C

>  <smiles>  (118) 
[H]OC12C3([H])OC([H])([H])C4(OC4([H])OC([H])(OC([H])([H])[H])C4([H])OC(C([H])([H])[H])(C([H])([H])[H])OC43[H])C1([H])C([H])([H])C([H])(OC(=O)C([H])([H])[H])C1([H])C3(C([H])([H])[H])C([H])([H])C([H])([H])C([H])([H])C(C([H])([H])[H])(C([H])([H])[H])C3([H])C([H])([H])C([H])([H])C12C([H])([H])[H]

$$$$
43:0:1
     RDKit          3D

 88 94  0  0  1  0  0  0  0  0999 V2000
    4.7225    1.6784    6.4386 C   0  0  0  0  0  0  0  0  0  0  0  0
    3.4565    1.2761    5.9225 O   0  0  0  0  0  0  0  0  0  0  0  0
    2.3723    2.0425    6.3391 C   0  0  2  0  0  0  0  0  0  0  0  0
    2.0264    1.8758    7.6661 O   0  0  0  0  0  0  0  0  0  0  0  0
    2.0911    0.5836    8.1814 C   0  0  1  0  0  0  0  0  0  0  0  0
    1.3738    0.3100    9.3950 O   0  0  0  0  0  0  0  0  0  0  0  0
    0.7593   -0.0814    8.1772 C   0  0  1  0  0  0  0  0  0  0  0  0
   -0.5371    0.6694    7.8769 C   0  0  0  0  0  0  0  0  0  0  0  0
   -1.2092    0.1970    6.7108 O   0  0  0  0  0  0  0  0  0  0  0  0
   -0.3786   -0.4410    5.7468 C   0  0  1  0  0  0  0  0  0  0  0  0
    0.4891    0.5799    4.9074 C   0  0  1  0  0  0  0  0  0  0  0  0
   -0.4998    1.2104    4.0909 O   0  0  0  0  0  0  0  0  0  0  0  0
   -0.7208    2.5394    4.4854 C   0  0  0  0  0  0  0  0  0  0  0  0
   -0.4319    3.4461    3.2915 C   0  0  0  0  0  0  0  0  0  0  0  0
   -2.1508    2.7205    5.0024 C   0  0  0  0  0  0  0  0  0  0  0  0
    0.1571    2.8520    5.5100 O   0  0  0  0  0  0  0  0  0  0  0  0
    1.1796    1.9038    5.3501 C   0  0  1  0  0  0  0  0  0  0  0  0
    0.2162   -1.7745    6.3902 C   0  0  2  0  0  0  0  0  0  0  0  0
   -0.9176   -2.6180    6.4438 O   0  0  0  0  0  0  0  0  0  0  0  0
    0.5668   -1.5677    7.8996 C   0  0  1  0  0  0  0  0  0  0  0  0
    1.7181   -2.4800    8.3807 C   0  0  0  0  0  0  0  0  0  0  0  0
    1.7676   -3.8985    7.7665 C   0  0  1  0  0  0  0  0  0  0  0  0
    0.7973   -4.7131    8.4266 O   0  0  0  0  0  0  0  0  0  0  0  0
    1.0831   -5.6979    9.3149 C   0  0  0  0  0  0  0  0  0  0  0  0
    2.5636   -5.8345    9.7240 C   0  0  0  0  0  0  0  0  0  0  0  0
    0.2097   -6.4520    9.7630 O   0  0  0  0  0  0  0  0  0  0  0  0
    1.5430   -4.0034    6.2184 C   0  0  2  0  0  0  0  0  0  0  0  0
    2.4707   -5.0646    5.4625 C   0  0  2  0  0  0  0  0  0  0  0  0
    2.2760   -6.4165    6.2241 C   0  0  0  0  0  0  0  0  0  0  0  0
    3.9914   -4.6981    5.4691 C   0  0  0  0  0  0  0  0  0  0  0  0
    4.8757   -5.6740    4.6714 C   0  0  0  0  0  0  0  0  0  0  0  0
    4.4011   -5.7768    3.2103 C   0  0  0  0  0  0  0  0  0  0  0  0
    2.9009   -6.1458    3.0507 C   0  0  0  0  0  0  0  0  0  0  0  0
    2.5475   -6.0030    1.5568 C   0  0  0  0  0  0  0  0  0  0  0  0
    2.6840   -7.6489    3.3708 C   0  0  0  0  0  0  0  0  0  0  0  0
    2.0143   -5.1857    3.9543 C   0  0  2  0  0  0  0  0  0  0  0  0
    1.8278   -3.7723    3.3302 C   0  0  0  0  0  0  0  0  0  0  0  0
    0.8671   -2.8660    4.1159 C   0  0  0  0  0  0  0  0  0  0  0  0
    1.3274   -2.5780    5.5672 C   0  0  1  0  0  0  0  0  0  0  0  0
    2.6381   -1.7522    5.5511 C   0  0  0  0  0  0  0  0  0  0  0  0
    5.4827    0.9843    6.0867 H   0  0  0  0  0  0  0  0  0  0  0  0
    4.7520    1.6669    7.5287 H   0  0  0  0  0  0  0  0  0  0  0  0
    5.0128    2.6713    6.0911 H   0  0  0  0  0  0  0  0  0  0  0  0
    2.7003    3.0900    6.3002 H   0  0  0  0  0  0  0  0  0  0  0  0
    3.0477    0.0559    8.1458 H   0  0  0  0  0  0  0  0  0  0  0  0
   -1.2079    0.5703    8.7318 H   0  0  0  0  0  0  0  0  0  0  0  0
   -0.3485    1.7315    7.7780 H   0  0  0  0  0  0  0  0  0  0  0  0
   -1.0854   -0.8105    4.9974 H   0  0  0  0  0  0  0  0  0  0  0  0
    1.1489    0.0413    4.2339 H   0  0  0  0  0  0  0  0  0  0  0  0
    0.5577    3.2489    2.8772 H   0  0  0  0  0  0  0  0  0  0  0  0
   -0.4719    4.4858    3.6106 H   0  0  0  0  0  0  0  0  0  0  0  0
   -1.1738    3.2692    2.5149 H   0  0  0  0  0  0  0  0  0  0  0  0
   -2.3580    2.1178    5.8864 H   0  0  0  0  0  0  0  0  0  0  0  0
   -2.8603    2.4606    4.2200 H   0  0  0  0  0  0  0  0  0  0  0  0
   -2.2991    3.7627    5.2753 H   0  0  0  0  0  0  0  0  0  0  0  0
    1.6860    2.2126    4.4397 H   0  0  0  0  0  0  0  0  0  0  0  0
   -1.0755   -2.9028    5.5547 H   0  0  0  0  0  0  0  0  0  0  0  0
   -0.2935   -1.8701    8.5190 H   0  0  0  0  0  0  0  0  0  0  0  0
    2.6969   -2.0242    8.2145 H   0  0  0  0  0  0  0  0  0  0  0  0
    1.6544   -2.5763    9.4553 H   0  0  0  0  0  0  0  0  0  0  0  0
    2.7592   -4.2800    7.9759 H   0  0  0  0  0  0  0  0  0  0  0  0
    3.2081   -6.0156    8.8850 H   0  0  0  0  0  0  0  0  0  0  0  0
    2.6705   -6.6666   10.4441 H   0  0  0  0  0  0  0  0  0  0  0  0
    2.8511   -4.9345   10.2947 H   0  0  0  0  0  0  0  0  0  0  0  0
    0.5691   -4.4939    6.1118 H   0  0  0  0  0  0  0  0  0  0  0  0
    2.8884   -7.2041    5.7922 H   0  0  0  0  0  0  0  0  0  0  0  0
    1.2355   -6.7662    6.0728 H   0  0  0  0  0  0  0  0  0  0  0  0
    2.5719   -6.3218    7.2240 H   0  0  0  0  0  0  0  0  0  0  0  0
    4.1792   -3.7399    4.9944 H   0  0  0  0  0  0  0  0  0  0  0  0
    4.3736   -4.6099    6.4897 H   0  0  0  0  0  0  0  0  0  0  0  0
    5.9095   -5.3209    4.6766 H   0  0  0  0  0  0  0  0  0  0  0  0
    4.9076   -6.6551    5.1433 H   0  0  0  0  0  0  0  0  0  0  0  0
    4.5967   -4.8169    2.7252 H   0  0  0  0  0  0  0  0  0  0  0  0
    5.0169   -6.5091    2.6876 H   0  0  0  0  0  0  0  0  0  0  0  0
    1.4776   -6.1401    1.3937 H   0  0  0  0  0  0  0  0  0  0  0  0
    3.0777   -6.7449    0.9569 H   0  0  0  0  0  0  0  0  0  0  0  0
    2.8436   -5.0346    1.1639 H   0  0  0  0  0  0  0  0  0  0  0  0
    1.7198   -7.8329    3.8438 H   0  0  0  0  0  0  0  0  0  0  0  0
    3.4594   -8.0541    4.0123 H   0  0  0  0  0  0  0  0  0  0  0  0
    2.7244   -8.2856    2.4858 H   0  0  0  0  0  0  0  0  0  0  0  0
    1.0177   -5.6186    3.9651 H   0  0  0  0  0  0  0  0  0  0  0  0
    2.7968   -3.2918    3.1947 H   0  0  0  0  0  0  0  0  0  0  0  0
    1.3754   -3.8630    2.3406 H   0  0  0  0  0  0  0  0  0  0  0  0
    0.7347   -1.9435    3.5535 H   0  0  0  0  0  0  0  0  0  0  0  0
   -0.1050   -3.3593    4.1222 H   0  0  0  0  0  0  0  0  0  0  0  0
    3.0409   -1.5919    4.5527 H   0  0  0  0  0  0  0  0  0  0  0  0
    3.4253   -2.1663    6.1768 H   0  0  0  0  0  0  0  0  0  0  0  0
    2.4499   -0.7769    5.9625 H   0  0  0  0  0  0  0  0  0  0  0  0
  1  2  1  0
  1 41  1  0
  1 42  1  0
  1 43  1  0
  2  3  1  0
  3 17  1  0
  3  4  1  0
  3 44  1  1
  4  5  1  0
  5  7  1  0
  5  6  1  0
  5 45  1  1
  7  6  1  1
  7 20  1  0
  7  8  1  0
  8  9  1  0
  8 46  1  0
  8 47  1  0
  9 10  1  0
 10 11  1  0
 10 18  1  0
 10 48  1  6
 11 17  1  0
 11 12  1  0
 11 49  1  6
 12 13  1  0
 13 14  1  0
 13 15  1  0
 13 16  1  0
 14 50  1  0
 14 51  1  0
 14 52  1  0
 15 53  1  0
 15 54  1  0
 15 55  1  0
 16 17  1  0
 17 56  1  6
 18 39  1  0
 18 19  1  1
 18 20  1  0
 19 57  1  0
 20 21  1  0
 20 58  1  1
 21 22  1  0
 21 59  1  0
 21 60  1  0
 22 23  1  0
 22 27  1  0
 22 61  1  6
 23 24  1  0
 24 25  1  0
 24 26  2  0
 25 62  1  0
 25 63  1  0
 25 64  1  0
 27 39  1  0
 27 28  1  0
 27 65  1  1
 28 36  1  0
 28 29  1  1
 28 30  1  0
 29 66  1  0
 29 67  1  0
 29 68  1  0
 30 31  1  0
 30 69  1  0
 30 70  1  0
 31 32  1  0
 31 71  1  0
 31 72  1  0
 32 33  1  0
 32 73  1  0
 32 74  1  0
 33 34  1  0
 33 35  1  0
 33 36  1  0
 34 75  1  0
 34 76  1  0
 34 77  1  0
 35 78  1  0
 35 79  1  0
 35 80  1  0
 36 37  1  0
 36 81  1  1
 37 38  1  0
 37 82  1  0
 37 83  1  0
 38 39  1  0
 38 84  1  0
 38 85  1  0
 39 40  1  6
 40 86  1  0
 40 87  1  0
 40 88  1  0
M  END
>  <i_m_ct_stereo_status>  (119) 
1

>  <s_m_source_file>  (119) 
/var/tmp/pbs.5076255.sched01/tmp3foza_40/36o9al7bb4.sdf

>  <i_m_source_file_index>  (119) 
18

>  <i_lp_mmshare_version>  (119) 
48012

>  <i_f3d_flags>  (119) 
0

>  <s_epik_input>  (119) 
TzFbQ0BASF0oW0NAQF0xMjMpT1tDQEBIXShPW0NIM10pW0NASF00W0NASF0oT0MoTzQpKFtDSDNdKVtDSDNdKVtDSF0oT1tDSDJdMilbQ0BdNShbT0hdKVtDQEhdM1tDSDJdW0NAQEhdKE9DKD1PKVtDSDNdKVtDQEBIXTZbQ0BAXTcoW0NIM10pW0NASF0oQyhbQ0gzXSkoW0NIM10pW0NIMl1bQ0gyXVtDSDJdNylbQ0gyXVtDSDJdW0NAQF01NltDSDNd

>  <s_epik_cmdline>  (119) 
J2VwaWtfcHl0aG9uJywgJy1waHQnLCAnMi4wJywgJy1waCcsICc3LjAnLCAnLXRuJywgJzgnLCAnLW1hJywgJzIwMCcsICctaW1hZScsICc8aW5maWxlLm1hZT4nLCAnLW9tYWUnLCAnPG91dGZpbGUubWFlPic=

>  <r_lp_tautomer_probability>  (119) 
1

>  <r_epik_Ionization_Penalty>  (119) 
8.66376e-08

>  <r_epik_Ionization_Penalty_Charging>  (119) 
0

>  <r_epik_Ionization_Penalty_Neutral>  (119) 
8.66376e-08

>  <r_epik_State_Penalty>  (119) 
-0

>  <r_epik_Charging_Adjusted_Penalty>  (119) 
0

>  <i_epik_Tot_Q>  (119) 
0

>  <i_epik_Tot_abs_Q>  (119) 
0

>  <s_epik_Chemistry_Notes>  (119) 
This compound has an ester and may undergo hydrolysis at high or low pH. This compound contains an acetal/aminal-like group ( X-CH(R)-Y where X, Y are N, S, or O) that may be acid/base labile, releasing an aldehyde.

>  <s_lp_Force_Field>  (119) 
OPLS3e

>  <r_lp_Energy>  (119) 
119.347

>  <b_lp_Chiralities_Consistent>  (119) 
1

>  <s_lp_Variant>  (119) 
43:0-1

>  <s_i_glide_gridfile>  (119) 
pfpi4k_grid

>  <i_i_glide_lignum>  (119) 
18

>  <i_i_glide_rotatable_bonds>  (119) 
4

>  <r_i_docking_score>  (119) 
-2.09368

>  <r_i_glide_ligand_efficiency>  (119) 
-0.0523421

>  <r_i_glide_ligand_efficiency_sa>  (119) 
-0.179007

>  <r_i_glide_ligand_efficiency_ln>  (119) 
-0.446521

>  <r_i_glide_gscore>  (119) 
-2.09368

>  <r_i_glide_lipo>  (119) 
-0.0378799

>  <r_i_glide_hbond>  (119) 
-0.418697

>  <r_i_glide_metal>  (119) 
-0

>  <r_i_glide_rewards>  (119) 
0

>  <r_i_glide_evdw>  (119) 
-17.2378

>  <r_i_glide_ecoul>  (119) 
-5.46639

>  <r_i_glide_erotb>  (119) 
0.0652698

>  <r_i_glide_esite>  (119) 
-0.0205312

>  <r_i_glide_emodel>  (119) 
-22.9328

>  <r_i_glide_energy>  (119) 
-22.7042

>  <r_i_glide_einternal>  (119) 
5.51012

>  <r_i_glide_intrahb_reward>  (119) 
-0

>  <i_i_glide_confnum>  (119) 
1

>  <i_i_glide_posenum>  (119) 
3

>  <r_i_glide_eff_state_penalty>  (119) 
0

>  <ligand_id>  (119) 
43

>  <original_smiles>  (119) 
COC1OC2OC23COC(C2OC(C)(C)OC12)C1(O)C3CC(OC(C)=O)C2C3(C)CCCC(C)(C)C3CCC21C

>  <smiles>  (119) 
[H]OC12C3([H])OC([H])([H])C4(OC4([H])OC([H])(OC([H])([H])[H])C4([H])OC(C([H])([H])[H])(C([H])([H])[H])OC43[H])C1([H])C([H])([H])C([H])(OC(=O)C([H])([H])[H])C1([H])C3(C([H])([H])[H])C([H])([H])C([H])([H])C([H])([H])C(C([H])([H])[H])(C([H])([H])[H])C3([H])C([H])([H])C([H])([H])C12C([H])([H])[H]

$$$$
43:0:2
     RDKit          3D

 88 94  0  0  1  0  0  0  0  0999 V2000
    4.8587    1.5076    6.3848 C   0  0  0  0  0  0  0  0  0  0  0  0
    3.5850    1.1382    5.8683 O   0  0  0  0  0  0  0  0  0  0  0  0
    2.5208    1.9335    6.3024 C   0  0  2  0  0  0  0  0  0  0  0  0
    2.1844    1.8113    7.6528 O   0  0  0  0  0  0  0  0  0  0  0  0
    2.2335    0.4913    8.1608 C   0  0  1  0  0  0  0  0  0  0  0  0
    1.5223    0.2520    9.4014 O   0  0  0  0  0  0  0  0  0  0  0  0
    0.8581   -0.1395    8.1809 C   0  0  1  0  0  0  0  0  0  0  0  0
   -0.3999    0.6471    7.8991 C   0  0  0  0  0  0  0  0  0  0  0  0
   -1.0982    0.1715    6.7526 O   0  0  0  0  0  0  0  0  0  0  0  0
   -0.2998   -0.4848    5.7729 C   0  0  1  0  0  0  0  0  0  0  0  0
    0.5771    0.5080    4.9093 C   0  0  1  0  0  0  0  0  0  0  0  0
   -0.4143    1.1508    4.1038 O   0  0  0  0  0  0  0  0  0  0  0  0
   -0.5873    2.4866    4.4958 C   0  0  0  0  0  0  0  0  0  0  0  0
   -0.2982    3.3835    3.2828 C   0  0  0  0  0  0  0  0  0  0  0  0
   -2.0117    2.7154    5.0242 C   0  0  0  0  0  0  0  0  0  0  0  0
    0.3092    2.7894    5.5048 O   0  0  0  0  0  0  0  0  0  0  0  0
    1.3059    1.8165    5.3267 C   0  0  1  0  0  0  0  0  0  0  0  0
    0.2631   -1.8224    6.4077 C   0  0  2  0  0  0  0  0  0  0  0  0
   -0.9005   -2.6478    6.4737 O   0  0  0  0  0  0  0  0  0  0  0  0
    0.6457   -1.6268    7.9128 C   0  0  1  0  0  0  0  0  0  0  0  0
    1.7789   -2.5574    8.3933 C   0  0  0  0  0  0  0  0  0  0  0  0
    1.7905   -3.9816    7.7861 C   0  0  1  0  0  0  0  0  0  0  0  0
    0.8005   -4.7611    8.4542 O   0  0  0  0  0  0  0  0  0  0  0  0
    1.0728   -5.7447    9.3511 C   0  0  0  0  0  0  0  0  0  0  0  0
    2.5526   -5.8922    9.7645 C   0  0  0  0  0  0  0  0  0  0  0  0
    0.2093   -6.4782    9.8176 O   0  0  0  0  0  0  0  0  0  0  0  0
    1.5453   -4.0890    6.2415 C   0  0  2  0  0  0  0  0  0  0  0  0
    2.4357   -5.1695    5.4750 C   0  0  2  0  0  0  0  0  0  0  0  0
    2.2179   -6.5121    6.2385 C   0  0  0  0  0  0  0  0  0  0  0  0
    3.9625   -4.8473    5.4628 C   0  0  0  0  0  0  0  0  0  0  0  0
    4.8087   -5.8511    4.6590 C   0  0  0  0  0  0  0  0  0  0  0  0
    4.3126   -5.9545    3.2079 C   0  0  0  0  0  0  0  0  0  0  0  0
    2.8046   -6.2838    3.0764 C   0  0  0  0  0  0  0  0  0  0  0  0
    2.4333   -6.1464    1.5794 C   0  0  0  0  0  0  0  0  0  0  0  0
    2.5538   -7.7855    3.4094 C   0  0  0  0  0  0  0  0  0  0  0  0
    1.9533   -5.3021    3.9855 C   0  0  2  0  0  0  0  0  0  0  0  0
    1.8012   -3.8921    3.3532 C   0  0  0  0  0  0  0  0  0  0  0  0
    0.8645   -2.9522    4.1401 C   0  0  0  0  0  0  0  0  0  0  0  0
    1.3452   -2.6690    5.5854 C   0  0  1  0  0  0  0  0  0  0  0  0
    2.6788   -1.8674    5.5404 C   0  0  0  0  0  0  0  0  0  0  0  0
    5.5973    0.7927    6.0280 H   0  0  0  0  0  0  0  0  0  0  0  0
    4.8925    1.4945    7.4752 H   0  0  0  0  0  0  0  0  0  0  0  0
    5.1702    2.4922    6.0379 H   0  0  0  0  0  0  0  0  0  0  0  0
    2.8654    2.9755    6.2429 H   0  0  0  0  0  0  0  0  0  0  0  0
    3.1573   -0.0383    8.1146 H   0  0  0  0  0  0  0  0  0  0  0  0
   -1.0670    0.5648    8.7558 H   0  0  0  0  0  0  0  0  0  0  0  0
   -0.1984    1.7109    7.7861 H   0  0  0  0  0  0  0  0  0  0  0  0
   -1.0260   -0.8389    5.0359 H   0  0  0  0  0  0  0  0  0  0  0  0
    1.2159   -0.0484    4.2283 H   0  0  0  0  0  0  0  0  0  0  0  0
    0.6833    3.1577    2.8604 H   0  0  0  0  0  0  0  0  0  0  0  0
   -0.3093    4.4311    3.5902 H   0  0  0  0  0  0  0  0  0  0  0  0
   -1.0563    3.2173    2.5138 H   0  0  0  0  0  0  0  0  0  0  0  0
   -2.2161    2.1225    5.9131 H   0  0  0  0  0  0  0  0  0  0  0  0
   -2.7372    2.4631    4.2536 H   0  0  0  0  0  0  0  0  0  0  0  0
   -2.1300    3.7630    5.2912 H   0  0  0  0  0  0  0  0  0  0  0  0
    1.8133    2.1092    4.4060 H   0  0  0  0  0  0  0  0  0  0  0  0
   -0.6244   -3.4985    6.7453 H   0  0  0  0  0  0  0  0  0  0  0  0
   -0.2075   -1.8862    8.5468 H   0  0  0  0  0  0  0  0  0  0  0  0
    2.7591   -2.1271    8.2020 H   0  0  0  0  0  0  0  0  0  0  0  0
    1.7375   -2.6347    9.4797 H   0  0  0  0  0  0  0  0  0  0  0  0
    2.7756   -4.3828    7.9866 H   0  0  0  0  0  0  0  0  0  0  0  0
    3.2079   -6.0702    8.9354 H   0  0  0  0  0  0  0  0  0  0  0  0
    2.6628   -6.7113   10.4739 H   0  0  0  0  0  0  0  0  0  0  0  0
    2.8631   -4.9879   10.2978 H   0  0  0  0  0  0  0  0  0  0  0  0
    0.5612   -4.5557    6.1392 H   0  0  0  0  0  0  0  0  0  0  0  0
    2.8071   -7.3282    5.8349 H   0  0  0  0  0  0  0  0  0  0  0  0
    1.1722   -6.8445    6.1390 H   0  0  0  0  0  0  0  0  0  0  0  0
    2.5200   -6.4442    7.2326 H   0  0  0  0  0  0  0  0  0  0  0  0
    4.1627   -3.8975    4.9802 H   0  0  0  0  0  0  0  0  0  0  0  0
    4.3608   -4.7595    6.4759 H   0  0  0  0  0  0  0  0  0  0  0  0
    5.8514   -5.5224    4.6501 H   0  0  0  0  0  0  0  0  0  0  0  0
    4.8252   -6.8298    5.1410 H   0  0  0  0  0  0  0  0  0  0  0  0
    4.5219   -5.0050    2.7146 H   0  0  0  0  0  0  0  0  0  0  0  0
    4.9055   -6.7001    2.6791 H   0  0  0  0  0  0  0  0  0  0  0  0
    1.3579   -6.2590    1.4308 H   0  0  0  0  0  0  0  0  0  0  0  0
    2.9396   -6.9035    0.9758 H   0  0  0  0  0  0  0  0  0  0  0  0
    2.7459   -5.1845    1.1741 H   0  0  0  0  0  0  0  0  0  0  0  0
    1.5906   -7.9418    3.8966 H   0  0  0  0  0  0  0  0  0  0  0  0
    3.3307   -8.2020    4.0476 H   0  0  0  0  0  0  0  0  0  0  0  0
    2.5675   -8.4291    2.5294 H   0  0  0  0  0  0  0  0  0  0  0  0
    0.9436   -5.7059    4.0115 H   0  0  0  0  0  0  0  0  0  0  0  0
    2.7770   -3.4287    3.1996 H   0  0  0  0  0  0  0  0  0  0  0  0
    1.3631   -3.9725    2.3609 H   0  0  0  0  0  0  0  0  0  0  0  0
    0.7407   -2.0304    3.5702 H   0  0  0  0  0  0  0  0  0  0  0  0
   -0.1250   -3.4140    4.1677 H   0  0  0  0  0  0  0  0  0  0  0  0
    3.0764   -1.7205    4.5333 H   0  0  0  0  0  0  0  0  0  0  0  0
    3.4678   -2.2946    6.1583 H   0  0  0  0  0  0  0  0  0  0  0  0
    2.5237   -0.8835    5.9476 H   0  0  0  0  0  0  0  0  0  0  0  0
  1  2  1  0
  1 41  1  0
  1 42  1  0
  1 43  1  0
  2  3  1  0
  3 17  1  0
  3  4  1  0
  3 44  1  1
  4  5  1  0
  5  7  1  0
  5  6  1  0
  5 45  1  1
  7  6  1  1
  7 20  1  0
  7  8  1  0
  8  9  1  0
  8 46  1  0
  8 47  1  0
  9 10  1  0
 10 11  1  0
 10 18  1  0
 10 48  1  6
 11 17  1  0
 11 12  1  0
 11 49  1  6
 12 13  1  0
 13 14  1  0
 13 15  1  0
 13 16  1  0
 14 50  1  0
 14 51  1  0
 14 52  1  0
 15 53  1  0
 15 54  1  0
 15 55  1  0
 16 17  1  0
 17 56  1  6
 18 39  1  0
 18 19  1  1
 18 20  1  0
 19 57  1  0
 20 21  1  0
 20 58  1  1
 21 22  1  0
 21 59  1  0
 21 60  1  0
 22 23  1  0
 22 27  1  0
 22 61  1  6
 23 24  1  0
 24 25  1  0
 24 26  2  0
 25 62  1  0
 25 63  1  0
 25 64  1  0
 27 39  1  0
 27 28  1  0
 27 65  1  1
 28 36  1  0
 28 29  1  1
 28 30  1  0
 29 66  1  0
 29 67  1  0
 29 68  1  0
 30 31  1  0
 30 69  1  0
 30 70  1  0
 31 32  1  0
 31 71  1  0
 31 72  1  0
 32 33  1  0
 32 73  1  0
 32 74  1  0
 33 34  1  0
 33 35  1  0
 33 36  1  0
 34 75  1  0
 34 76  1  0
 34 77  1  0
 35 78  1  0
 35 79  1  0
 35 80  1  0
 36 37  1  0
 36 81  1  1
 37 38  1  0
 37 82  1  0
 37 83  1  0
 38 39  1  0
 38 84  1  0
 38 85  1  0
 39 40  1  6
 40 86  1  0
 40 87  1  0
 40 88  1  0
M  END
>  <i_m_ct_stereo_status>  (120) 
1

>  <s_m_source_file>  (120) 
/var/tmp/pbs.5076255.sched01/tmp3foza_40/36o9al7bb4.sdf

>  <i_m_source_file_index>  (120) 
18

>  <i_lp_mmshare_version>  (120) 
48012

>  <i_f3d_flags>  (120) 
0

>  <s_epik_input>  (120) 
TzFbQ0BASF0oW0NAQF0xMjMpT1tDQEBIXShPW0NIM10pW0NASF00W0NASF0oT0MoTzQpKFtDSDNdKVtDSDNdKVtDSF0oT1tDSDJdMilbQ0BdNShbT0hdKVtDQEhdM1tDSDJdW0NAQEhdKE9DKD1PKVtDSDNdKVtDQEBIXTZbQ0BAXTcoW0NIM10pW0NASF0oQyhbQ0gzXSkoW0NIM10pW0NIMl1bQ0gyXVtDSDJdNylbQ0gyXVtDSDJdW0NAQF01NltDSDNd

>  <s_epik_cmdline>  (120) 
J2VwaWtfcHl0aG9uJywgJy1waHQnLCAnMi4wJywgJy1waCcsICc3LjAnLCAnLXRuJywgJzgnLCAnLW1hJywgJzIwMCcsICctaW1hZScsICc8aW5maWxlLm1hZT4nLCAnLW9tYWUnLCAnPG91dGZpbGUubWFlPic=

>  <r_lp_tautomer_probability>  (120) 
1

>  <r_epik_Ionization_Penalty>  (120) 
8.66376e-08

>  <r_epik_Ionization_Penalty_Charging>  (120) 
0

>  <r_epik_Ionization_Penalty_Neutral>  (120) 
8.66376e-08

>  <r_epik_State_Penalty>  (120) 
-0

>  <r_epik_Charging_Adjusted_Penalty>  (120) 
0

>  <i_epik_Tot_Q>  (120) 
0

>  <i_epik_Tot_abs_Q>  (120) 
0

>  <s_epik_Chemistry_Notes>  (120) 
This compound has an ester and may undergo hydrolysis at high or low pH. This compound contains an acetal/aminal-like group ( X-CH(R)-Y where X, Y are N, S, or O) that may be acid/base labile, releasing an aldehyde.

>  <s_lp_Force_Field>  (120) 
OPLS3e

>  <r_lp_Energy>  (120) 
119.347

>  <b_lp_Chiralities_Consistent>  (120) 
1

>  <s_lp_Variant>  (120) 
43:0-1

>  <s_i_glide_gridfile>  (120) 
pfpi4k_grid

>  <i_i_glide_lignum>  (120) 
18

>  <i_i_glide_rotatable_bonds>  (120) 
4

>  <r_i_docking_score>  (120) 
-1.98262

>  <r_i_glide_ligand_efficiency>  (120) 
-0.0495656

>  <r_i_glide_ligand_efficiency_sa>  (120) 
-0.169512

>  <r_i_glide_ligand_efficiency_ln>  (120) 
-0.422835

>  <r_i_glide_gscore>  (120) 
-1.98262

>  <r_i_glide_lipo>  (120) 
-0.0340876

>  <r_i_glide_hbond>  (120) 
-0.416788

>  <r_i_glide_metal>  (120) 
-0

>  <r_i_glide_rewards>  (120) 
0

>  <r_i_glide_evdw>  (120) 
-17.2849

>  <r_i_glide_ecoul>  (120) 
-4.74878

>  <r_i_glide_erotb>  (120) 
0.0652698

>  <r_i_glide_esite>  (120) 
-0.0204556

>  <r_i_glide_emodel>  (120) 
-22.2189

>  <r_i_glide_energy>  (120) 
-22.0337

>  <r_i_glide_einternal>  (120) 
5.60894

>  <r_i_glide_intrahb_reward>  (120) 
-0

>  <i_i_glide_confnum>  (120) 
3

>  <i_i_glide_posenum>  (120) 
26

>  <r_i_glide_eff_state_penalty>  (120) 
0

>  <ligand_id>  (120) 
43

>  <original_smiles>  (120) 
COC1OC2OC23COC(C2OC(C)(C)OC12)C1(O)C3CC(OC(C)=O)C2C3(C)CCCC(C)(C)C3CCC21C

>  <smiles>  (120) 
[H]OC12C3([H])OC([H])([H])C4(OC4([H])OC([H])(OC([H])([H])[H])C4([H])OC(C([H])([H])[H])(C([H])([H])[H])OC43[H])C1([H])C([H])([H])C([H])(OC(=O)C([H])([H])[H])C1([H])C3(C([H])([H])[H])C([H])([H])C([H])([H])C([H])([H])C(C([H])([H])[H])(C([H])([H])[H])C3([H])C([H])([H])C([H])([H])C12C([H])([H])[H]

$$$$
44:0:0
     RDKit          3D

 62 66  0  0  1  0  0  0  0  0999 V2000
    5.3658   -2.8988   -0.9520 C   0  0  0  0  0  0  0  0  0  0  0  0
    5.9954   -3.0802    0.4552 C   0  0  0  0  0  0  0  0  0  0  0  0
    7.4675   -3.5207    0.2652 C   0  0  0  0  0  0  0  0  0  0  0  0
    6.0046   -1.7323    1.2317 C   0  0  1  0  0  0  0  0  0  0  0  0
    6.6026   -0.6900    0.4799 O   0  0  0  0  0  0  0  0  0  0  0  0
    4.6074   -1.3007    1.6838 C   0  0  0  0  0  0  0  0  0  0  0  0
    3.9464   -2.3849    2.5517 C   0  0  0  0  0  0  0  0  0  0  0  0
    3.8216   -3.7996    1.8885 C   0  0  1  0  0  0  0  0  0  0  0  0
    2.7897   -3.7622    0.7213 C   0  0  0  0  0  0  0  0  0  0  0  0
    5.2592   -4.1533    1.3489 C   0  0  1  0  0  0  0  0  0  0  0  0
    5.3883   -5.6010    0.8069 C   0  0  0  0  0  0  0  0  0  0  0  0
    4.2849   -6.5639    1.2690 C   0  0  0  0  0  0  0  0  0  0  0  0
    3.8640   -6.4049    2.7485 C   0  0  1  0  0  0  0  0  0  0  0  0
    5.1569   -6.6032    3.6055 C   0  0  0  0  0  0  0  0  0  0  0  0
    3.3706   -4.8563    3.0126 C   0  0  2  0  0  0  0  0  0  0  0  0
    1.9352   -4.6310    3.6904 C   0  0  1  0  0  0  0  0  0  0  0  0
    1.1893   -3.5083    3.2809 O   0  0  0  0  0  0  0  0  0  0  0  0
    1.1335   -5.8373    3.3656 C   0  0  2  0  0  0  0  0  0  0  0  0
   -0.1463   -6.3239    3.8434 O   0  0  0  0  0  0  0  0  0  0  0  0
    0.4762   -7.5948    3.7296 C   0  0  0  0  0  0  0  0  0  0  0  0
    0.5295   -8.3386    2.6113 C   0  0  0  0  0  0  0  0  0  0  0  0
    1.9269   -8.2612    1.9969 C   0  0  0  0  0  0  0  0  0  0  0  0
    2.8468   -7.6210    3.1179 C   0  0  1  0  0  0  0  0  0  0  0  0
    3.5210   -8.8732    3.7511 C   0  0  0  0  0  0  0  0  0  0  0  0
    1.8101   -7.0287    4.0338 C   0  0  1  0  0  0  0  0  0  0  0  0
    2.1136   -6.9974    5.5410 C   0  0  0  0  0  0  0  0  0  0  0  0
    5.9979   -2.2824   -1.5890 H   0  0  0  0  0  0  0  0  0  0  0  0
    4.3996   -2.3997   -0.9175 H   0  0  0  0  0  0  0  0  0  0  0  0
    5.2248   -3.8406   -1.4788 H   0  0  0  0  0  0  0  0  0  0  0  0
    7.9558   -3.7041    1.2237 H   0  0  0  0  0  0  0  0  0  0  0  0
    8.0534   -2.7657   -0.2577 H   0  0  0  0  0  0  0  0  0  0  0  0
    7.5483   -4.4370   -0.3201 H   0  0  0  0  0  0  0  0  0  0  0  0
    6.6097   -1.8602    2.1290 H   0  0  0  0  0  0  0  0  0  0  0  0
    6.9575   -0.0361    1.0722 H   0  0  0  0  0  0  0  0  0  0  0  0
    4.6967   -0.3882    2.2728 H   0  0  0  0  0  0  0  0  0  0  0  0
    3.9802   -1.0404    0.8331 H   0  0  0  0  0  0  0  0  0  0  0  0
    4.5417   -2.4690    3.4618 H   0  0  0  0  0  0  0  0  0  0  0  0
    2.9856   -1.9900    2.8671 H   0  0  0  0  0  0  0  0  0  0  0  0
    1.8483   -4.2308    0.9765 H   0  0  0  0  0  0  0  0  0  0  0  0
    3.1388   -4.2872   -0.1651 H   0  0  0  0  0  0  0  0  0  0  0  0
    2.5466   -2.7466    0.4122 H   0  0  0  0  0  0  0  0  0  0  0  0
    5.8621   -4.1417    2.2543 H   0  0  0  0  0  0  0  0  0  0  0  0
    5.4190   -5.6191   -0.2783 H   0  0  0  0  0  0  0  0  0  0  0  0
    6.3517   -5.9953    1.1285 H   0  0  0  0  0  0  0  0  0  0  0  0
    3.4267   -6.3902    0.6242 H   0  0  0  0  0  0  0  0  0  0  0  0
    4.6021   -7.5900    1.0736 H   0  0  0  0  0  0  0  0  0  0  0  0
    4.9465   -6.6435    4.6735 H   0  0  0  0  0  0  0  0  0  0  0  0
    5.8832   -5.8025    3.4940 H   0  0  0  0  0  0  0  0  0  0  0  0
    5.6931   -7.5139    3.3323 H   0  0  0  0  0  0  0  0  0  0  0  0
    3.9903   -4.5580    3.8559 H   0  0  0  0  0  0  0  0  0  0  0  0
    2.0523   -4.5245    4.7666 H   0  0  0  0  0  0  0  0  0  0  0  0
    0.4104   -3.4659    3.8077 H   0  0  0  0  0  0  0  0  0  0  0  0
    1.0619   -5.8639    2.2691 H   0  0  0  0  0  0  0  0  0  0  0  0
   -0.3034   -8.5154    1.9469 H   0  0  0  0  0  0  0  0  0  0  0  0
    2.2558   -9.2390    1.6393 H   0  0  0  0  0  0  0  0  0  0  0  0
    1.8166   -7.6317    1.1186 H   0  0  0  0  0  0  0  0  0  0  0  0
    2.7762   -9.6353    3.9861 H   0  0  0  0  0  0  0  0  0  0  0  0
    4.0433   -8.6754    4.6844 H   0  0  0  0  0  0  0  0  0  0  0  0
    4.2309   -9.3319    3.0623 H   0  0  0  0  0  0  0  0  0  0  0  0
    3.0275   -6.4400    5.7403 H   0  0  0  0  0  0  0  0  0  0  0  0
    2.2237   -7.9916    5.9714 H   0  0  0  0  0  0  0  0  0  0  0  0
    1.3147   -6.4933    6.0885 H   0  0  0  0  0  0  0  0  0  0  0  0
  1  2  1  0
  1 27  1  0
  1 28  1  0
  1 29  1  0
  2 10  1  0
  2  3  1  0
  2  4  1  0
  3 30  1  0
  3 31  1  0
  3 32  1  0
  4  5  1  0
  4  6  1  0
  4 33  1  1
  5 34  1  0
  6  7  1  0
  6 35  1  0
  6 36  1  0
  7  8  1  0
  7 37  1  0
  7 38  1  0
  8 15  1  0
  8  9  1  6
  8 10  1  0
  9 39  1  0
  9 40  1  0
  9 41  1  0
 10 11  1  0
 10 42  1  1
 11 12  1  0
 11 43  1  0
 11 44  1  0
 12 13  1  0
 12 45  1  0
 12 46  1  0
 13 23  1  0
 13 14  1  1
 13 15  1  0
 14 47  1  0
 14 48  1  0
 14 49  1  0
 15 16  1  0
 15 50  1  1
 16 17  1  0
 16 18  1  0
 16 51  1  1
 17 52  1  0
 18 25  1  0
 18 19  1  0
 18 53  1  6
 19 20  1  0
 20 25  1  0
 20 21  2  0
 21 22  1  0
 21 54  1  0
 22 23  1  0
 22 55  1  0
 22 56  1  0
 23 24  1  1
 23 25  1  0
 24 57  1  0
 24 58  1  0
 24 59  1  0
 25 26  1  1
 26 60  1  0
 26 61  1  0
 26 62  1  0
M  END
>  <i_m_ct_stereo_status>  (121) 
1

>  <s_m_source_file>  (121) 
/var/tmp/pbs.5076255.sched01/tmp3foza_40/36o9al7bb4.sdf

>  <i_m_source_file_index>  (121) 
19

>  <i_lp_mmshare_version>  (121) 
48012

>  <i_f3d_flags>  (121) 
0

>  <s_epik_input>  (121) 
W0NIMl0xW0NIMl1bQ0BIXShbT0hdKUMoW0NIM10pKFtDSDNdKVtDQEBIXShbQ0BdMTJbQ0gzXSlbQ0gyXVtDSDJdW0NAQF0zKFtDSDNdKVtDQEBIXTJbQ0BASF0oW09IXSlbQ0hdNFtDQEBdNShbQ0gzXSlDKE80KT1bQ0hdW0NIMl1bQ0BAXTM1W0NIM10=

>  <s_epik_cmdline>  (121) 
J2VwaWtfcHl0aG9uJywgJy1waHQnLCAnMi4wJywgJy1waCcsICc3LjAnLCAnLXRuJywgJzgnLCAnLW1hJywgJzIwMCcsICctaW1hZScsICc8aW5maWxlLm1hZT4nLCAnLW9tYWUnLCAnPG91dGZpbGUubWFlPic=

>  <r_lp_tautomer_probability>  (121) 
1

>  <r_epik_Ionization_Penalty>  (121) 
2.95948e-06

>  <r_epik_Ionization_Penalty_Charging>  (121) 
0

>  <r_epik_Ionization_Penalty_Neutral>  (121) 
2.95948e-06

>  <r_epik_State_Penalty>  (121) 
-0

>  <r_epik_Charging_Adjusted_Penalty>  (121) 
0

>  <i_epik_Tot_Q>  (121) 
0

>  <i_epik_Tot_abs_Q>  (121) 
0

>  <s_lp_Force_Field>  (121) 
OPLS3e

>  <r_lp_Energy>  (121) 
140.603

>  <b_lp_Chiralities_Consistent>  (121) 
1

>  <s_lp_Variant>  (121) 
44:0-1

>  <s_i_glide_gridfile>  (121) 
pfpi4k_grid

>  <i_i_glide_lignum>  (121) 
19

>  <i_i_glide_rotatable_bonds>  (121) 
2

>  <r_i_docking_score>  (121) 
-3.38061

>  <r_i_glide_ligand_efficiency>  (121) 
-0.130024

>  <r_i_glide_ligand_efficiency_sa>  (121) 
-0.385194

>  <r_i_glide_ligand_efficiency_ln>  (121) 
-0.793926

>  <r_i_glide_gscore>  (121) 
-3.38061

>  <r_i_glide_lipo>  (121) 
-0.675882

>  <r_i_glide_hbond>  (121) 
-0.36419

>  <r_i_glide_metal>  (121) 
-0

>  <r_i_glide_rewards>  (121) 
-0.950931

>  <r_i_glide_evdw>  (121) 
-17.1608

>  <r_i_glide_ecoul>  (121) 
-3.54381

>  <r_i_glide_erotb>  (121) 
0

>  <r_i_glide_esite>  (121) 
0

>  <r_i_glide_emodel>  (121) 
-24.8287

>  <r_i_glide_energy>  (121) 
-20.7046

>  <r_i_glide_einternal>  (121) 
1.03994

>  <r_i_glide_intrahb_reward>  (121) 
-0

>  <i_i_glide_confnum>  (121) 
1

>  <i_i_glide_posenum>  (121) 
40

>  <r_i_glide_eff_state_penalty>  (121) 
0

>  <ligand_id>  (121) 
44

>  <original_smiles>  (121) 
CC1(C)C(O)CCC2(C)C1CCC1(C)C2C(O)C2OC3=CCC1(C)C32C

>  <smiles>  (121) 
[H]OC1([H])C2([H])OC3=C([H])C([H])([H])C(C([H])([H])[H])(C32C([H])([H])[H])C2(C([H])([H])[H])C([H])([H])C([H])([H])C3([H])C(C([H])([H])[H])(C([H])([H])[H])C([H])(O[H])C([H])([H])C([H])([H])C3(C([H])([H])[H])C12[H]

$$$$
44:0:1
     RDKit          3D

 62 66  0  0  1  0  0  0  0  0999 V2000
    4.1984   -1.8250   -0.6951 C   0  0  0  0  0  0  0  0  0  0  0  0
    5.2039   -2.6777    0.1267 C   0  0  0  0  0  0  0  0  0  0  0  0
    6.2144   -3.3023   -0.8669 C   0  0  0  0  0  0  0  0  0  0  0  0
    6.0036   -1.7877    1.1195 C   0  0  1  0  0  0  0  0  0  0  0  0
    6.5886   -0.6603    0.4753 O   0  0  0  0  0  0  0  0  0  0  0  0
    5.1391   -1.2997    2.2852 C   0  0  0  0  0  0  0  0  0  0  0  0
    4.5069   -2.4746    3.0493 C   0  0  0  0  0  0  0  0  0  0  0  0
    3.6292   -3.4456    2.1908 C   0  0  1  0  0  0  0  0  0  0  0  0
    2.3248   -2.7321    1.7196 C   0  0  0  0  0  0  0  0  0  0  0  0
    4.5240   -3.8430    0.9525 C   0  0  1  0  0  0  0  0  0  0  0  0
    3.8986   -4.9446    0.0614 C   0  0  0  0  0  0  0  0  0  0  0  0
    2.7798   -5.7506    0.7287 C   0  0  0  0  0  0  0  0  0  0  0  0
    3.0388   -6.1263    2.2022 C   0  0  1  0  0  0  0  0  0  0  0  0
    4.3912   -6.9141    2.2366 C   0  0  0  0  0  0  0  0  0  0  0  0
    3.2814   -4.7497    3.0680 C   0  0  2  0  0  0  0  0  0  0  0  0
    2.3885   -4.5187    4.3801 C   0  0  1  0  0  0  0  0  0  0  0  0
    1.9995   -3.1916    4.6579 O   0  0  0  0  0  0  0  0  0  0  0  0
    1.1485   -5.3118    4.1823 C   0  0  2  0  0  0  0  0  0  0  0  0
    0.0638   -5.6886    5.0756 O   0  0  0  0  0  0  0  0  0  0  0  0
    0.0973   -6.9007    4.3431 C   0  0  0  0  0  0  0  0  0  0  0  0
   -0.5511   -7.1337    3.1900 C   0  0  0  0  0  0  0  0  0  0  0  0
    0.4329   -7.0978    2.0192 C   0  0  0  0  0  0  0  0  0  0  0  0
    1.8713   -7.1555    2.6799 C   0  0  1  0  0  0  0  0  0  0  0  0
    2.2289   -8.6667    2.5567 C   0  0  0  0  0  0  0  0  0  0  0  0
    1.5511   -6.7767    4.1023 C   0  0  1  0  0  0  0  0  0  0  0  0
    2.3928   -7.4105    5.2219 C   0  0  0  0  0  0  0  0  0  0  0  0
    4.7170   -1.1480   -1.3730 H   0  0  0  0  0  0  0  0  0  0  0  0
    3.5681   -1.1957   -0.0719 H   0  0  0  0  0  0  0  0  0  0  0  0
    3.5344   -2.4261   -1.3142 H   0  0  0  0  0  0  0  0  0  0  0  0
    6.9231   -3.9517   -0.3524 H   0  0  0  0  0  0  0  0  0  0  0  0
    6.7952   -2.5407   -1.3857 H   0  0  0  0  0  0  0  0  0  0  0  0
    5.7242   -3.8971   -1.6384 H   0  0  0  0  0  0  0  0  0  0  0  0
    6.8201   -2.3827    1.5345 H   0  0  0  0  0  0  0  0  0  0  0  0
    7.0642   -0.1406    1.1167 H   0  0  0  0  0  0  0  0  0  0  0  0
    5.7658   -0.7367    2.9761 H   0  0  0  0  0  0  0  0  0  0  0  0
    4.3773   -0.6016    1.9436 H   0  0  0  0  0  0  0  0  0  0  0  0
    5.3263   -3.0366    3.4990 H   0  0  0  0  0  0  0  0  0  0  0  0
    3.9574   -2.0410    3.8766 H   0  0  0  0  0  0  0  0  0  0  0  0
    1.4397   -3.0477    2.2612 H   0  0  0  0  0  0  0  0  0  0  0  0
    2.1046   -2.9177    0.6707 H   0  0  0  0  0  0  0  0  0  0  0  0
    2.3716   -1.6524    1.8397 H   0  0  0  0  0  0  0  0  0  0  0  0
    5.3858   -4.3201    1.4195 H   0  0  0  0  0  0  0  0  0  0  0  0
    3.5109   -4.5345   -0.8671 H   0  0  0  0  0  0  0  0  0  0  0  0
    4.6901   -5.6286   -0.2416 H   0  0  0  0  0  0  0  0  0  0  0  0
    1.8760   -5.1587    0.6529 H   0  0  0  0  0  0  0  0  0  0  0  0
    2.5989   -6.6484    0.1418 H   0  0  0  0  0  0  0  0  0  0  0  0
    4.6064   -7.3350    3.2190 H   0  0  0  0  0  0  0  0  0  0  0  0
    5.2585   -6.3061    1.9997 H   0  0  0  0  0  0  0  0  0  0  0  0
    4.4116   -7.7278    1.5106 H   0  0  0  0  0  0  0  0  0  0  0  0
    4.2365   -4.9480    3.5544 H   0  0  0  0  0  0  0  0  0  0  0  0
    2.9276   -4.8648    5.2605 H   0  0  0  0  0  0  0  0  0  0  0  0
    2.7731   -2.6897    4.8521 H   0  0  0  0  0  0  0  0  0  0  0  0
    0.6573   -4.8846    3.2987 H   0  0  0  0  0  0  0  0  0  0  0  0
   -1.5822   -6.8745    3.0083 H   0  0  0  0  0  0  0  0  0  0  0  0
    0.2249   -7.8951    1.3032 H   0  0  0  0  0  0  0  0  0  0  0  0
    0.2385   -6.1661    1.5002 H   0  0  0  0  0  0  0  0  0  0  0  0
    1.4082   -9.2896    2.9146 H   0  0  0  0  0  0  0  0  0  0  0  0
    3.0979   -8.9685    3.1371 H   0  0  0  0  0  0  0  0  0  0  0  0
    2.4057   -8.9523    1.5191 H   0  0  0  0  0  0  0  0  0  0  0  0
    3.4480   -7.1796    5.0912 H   0  0  0  0  0  0  0  0  0  0  0  0
    2.2903   -8.4956    5.2731 H   0  0  0  0  0  0  0  0  0  0  0  0
    2.1068   -7.0114    6.1963 H   0  0  0  0  0  0  0  0  0  0  0  0
  1  2  1  0
  1 27  1  0
  1 28  1  0
  1 29  1  0
  2 10  1  0
  2  3  1  0
  2  4  1  0
  3 30  1  0
  3 31  1  0
  3 32  1  0
  4  5  1  0
  4  6  1  0
  4 33  1  1
  5 34  1  0
  6  7  1  0
  6 35  1  0
  6 36  1  0
  7  8  1  0
  7 37  1  0
  7 38  1  0
  8 15  1  0
  8  9  1  6
  8 10  1  0
  9 39  1  0
  9 40  1  0
  9 41  1  0
 10 11  1  0
 10 42  1  1
 11 12  1  0
 11 43  1  0
 11 44  1  0
 12 13  1  0
 12 45  1  0
 12 46  1  0
 13 23  1  0
 13 14  1  6
 13 15  1  0
 14 47  1  0
 14 48  1  0
 14 49  1  0
 15 16  1  0
 15 50  1  1
 16 17  1  0
 16 18  1  0
 16 51  1  1
 17 52  1  0
 18 25  1  0
 18 19  1  0
 18 53  1  6
 19 20  1  0
 20 25  1  0
 20 21  2  0
 21 22  1  0
 21 54  1  0
 22 23  1  0
 22 55  1  0
 22 56  1  0
 23 24  1  1
 23 25  1  0
 24 57  1  0
 24 58  1  0
 24 59  1  0
 25 26  1  1
 26 60  1  0
 26 61  1  0
 26 62  1  0
M  END
>  <i_m_ct_stereo_status>  (122) 
1

>  <s_m_source_file>  (122) 
/var/tmp/pbs.5076255.sched01/tmp3foza_40/36o9al7bb4.sdf

>  <i_m_source_file_index>  (122) 
19

>  <i_lp_mmshare_version>  (122) 
48012

>  <i_f3d_flags>  (122) 
0

>  <s_epik_input>  (122) 
W0NIMl0xW0NIMl1bQ0BIXShbT0hdKUMoW0NIM10pKFtDSDNdKVtDQEBIXShbQ0BdMTJbQ0gzXSlbQ0gyXVtDSDJdW0NAQF0zKFtDSDNdKVtDQEBIXTJbQ0BASF0oW09IXSlbQ0hdNFtDQEBdNShbQ0gzXSlDKE80KT1bQ0hdW0NIMl1bQ0BAXTM1W0NIM10=

>  <s_epik_cmdline>  (122) 
J2VwaWtfcHl0aG9uJywgJy1waHQnLCAnMi4wJywgJy1waCcsICc3LjAnLCAnLXRuJywgJzgnLCAnLW1hJywgJzIwMCcsICctaW1hZScsICc8aW5maWxlLm1hZT4nLCAnLW9tYWUnLCAnPG91dGZpbGUubWFlPic=

>  <r_lp_tautomer_probability>  (122) 
1

>  <r_epik_Ionization_Penalty>  (122) 
2.95948e-06

>  <r_epik_Ionization_Penalty_Charging>  (122) 
0

>  <r_epik_Ionization_Penalty_Neutral>  (122) 
2.95948e-06

>  <r_epik_State_Penalty>  (122) 
-0

>  <r_epik_Charging_Adjusted_Penalty>  (122) 
0

>  <i_epik_Tot_Q>  (122) 
0

>  <i_epik_Tot_abs_Q>  (122) 
0

>  <s_lp_Force_Field>  (122) 
OPLS3e

>  <r_lp_Energy>  (122) 
140.603

>  <b_lp_Chiralities_Consistent>  (122) 
1

>  <s_lp_Variant>  (122) 
44:0-1

>  <s_i_glide_gridfile>  (122) 
pfpi4k_grid

>  <i_i_glide_lignum>  (122) 
19

>  <i_i_glide_rotatable_bonds>  (122) 
2

>  <r_i_docking_score>  (122) 
-3.02527

>  <r_i_glide_ligand_efficiency>  (122) 
-0.116357

>  <r_i_glide_ligand_efficiency_sa>  (122) 
-0.344706

>  <r_i_glide_ligand_efficiency_ln>  (122) 
-0.710475

>  <r_i_glide_gscore>  (122) 
-3.02527

>  <r_i_glide_lipo>  (122) 
-0.441286

>  <r_i_glide_hbond>  (122) 
-0.320087

>  <r_i_glide_metal>  (122) 
-0

>  <r_i_glide_rewards>  (122) 
-0.950931

>  <r_i_glide_evdw>  (122) 
-18.3398

>  <r_i_glide_ecoul>  (122) 
-2.63985

>  <r_i_glide_erotb>  (122) 
0

>  <r_i_glide_esite>  (122) 
0

>  <r_i_glide_emodel>  (122) 
-24.9082

>  <r_i_glide_energy>  (122) 
-20.9797

>  <r_i_glide_einternal>  (122) 
0.6688

>  <r_i_glide_intrahb_reward>  (122) 
-0

>  <i_i_glide_confnum>  (122) 
2

>  <i_i_glide_posenum>  (122) 
4

>  <r_i_glide_eff_state_penalty>  (122) 
0

>  <ligand_id>  (122) 
44

>  <original_smiles>  (122) 
CC1(C)C(O)CCC2(C)C1CCC1(C)C2C(O)C2OC3=CCC1(C)C32C

>  <smiles>  (122) 
[H]OC1([H])C2([H])OC3=C([H])C([H])([H])C(C([H])([H])[H])(C32C([H])([H])[H])C2(C([H])([H])[H])C([H])([H])C([H])([H])C3([H])C(C([H])([H])[H])(C([H])([H])[H])C([H])(O[H])C([H])([H])C([H])([H])C3(C([H])([H])[H])C12[H]

$$$$
44:0:2
     RDKit          3D

 62 66  0  0  1  0  0  0  0  0999 V2000
    4.9747   -3.3994   -1.2113 C   0  0  0  0  0  0  0  0  0  0  0  0
    5.6592   -3.0325    0.1350 C   0  0  0  0  0  0  0  0  0  0  0  0
    7.1837   -3.2485   -0.0338 C   0  0  0  0  0  0  0  0  0  0  0  0
    5.4280   -1.5312    0.4796 C   0  0  1  0  0  0  0  0  0  0  0  0
    5.7583   -0.6695   -0.5973 O   0  0  0  0  0  0  0  0  0  0  0  0
    3.9833   -1.2456    0.8978 C   0  0  0  0  0  0  0  0  0  0  0  0
    3.5596   -2.1183    2.0894 C   0  0  0  0  0  0  0  0  0  0  0  0
    3.6903   -3.6650    1.8798 C   0  0  1  0  0  0  0  0  0  0  0  0
    2.6528   -4.1662    0.8301 C   0  0  0  0  0  0  0  0  0  0  0  0
    5.1596   -3.9032    1.3562 C   0  0  1  0  0  0  0  0  0  0  0  0
    5.5534   -5.4014    1.2528 C   0  0  0  0  0  0  0  0  0  0  0  0
    4.6591   -6.3588    2.0539 C   0  0  0  0  0  0  0  0  0  0  0  0
    4.2494   -5.8417    3.4530 C   0  0  1  0  0  0  0  0  0  0  0  0
    5.5738   -5.5426    4.2265 C   0  0  0  0  0  0  0  0  0  0  0  0
    3.4735   -4.4007    3.2928 C   0  0  2  0  0  0  0  0  0  0  0  0
    2.0345   -4.2400    3.9758 C   0  0  1  0  0  0  0  0  0  0  0  0
    1.0875   -3.4514    3.2941 O   0  0  0  0  0  0  0  0  0  0  0  0
    1.4708   -5.6095    4.0862 C   0  0  2  0  0  0  0  0  0  0  0  0
    0.3195   -6.1524    4.7929 O   0  0  0  0  0  0  0  0  0  0  0  0
    1.1757   -7.2638    4.9977 C   0  0  0  0  0  0  0  0  0  0  0  0
    1.3432   -8.2860    4.1404 C   0  0  0  0  0  0  0  0  0  0  0  0
    2.6861   -8.1494    3.4250 C   0  0  0  0  0  0  0  0  0  0  0  0
    3.4902   -7.0490    4.2370 C   0  0  1  0  0  0  0  0  0  0  0  0
    4.4040   -7.9134    5.1561 C   0  0  0  0  0  0  0  0  0  0  0  0
    2.3771   -6.4034    5.0190 C   0  0  1  0  0  0  0  0  0  0  0  0
    2.7034   -5.8629    6.4211 C   0  0  0  0  0  0  0  0  0  0  0  0
    5.4648   -2.9034   -2.0465 H   0  0  0  0  0  0  0  0  0  0  0  0
    3.9325   -3.0932   -1.2504 H   0  0  0  0  0  0  0  0  0  0  0  0
    5.0053   -4.4653   -1.4296 H   0  0  0  0  0  0  0  0  0  0  0  0
    7.7192   -3.0466    0.8934 H   0  0  0  0  0  0  0  0  0  0  0  0
    7.5999   -2.5976   -0.8000 H   0  0  0  0  0  0  0  0  0  0  0  0
    7.4217   -4.2692   -0.3275 H   0  0  0  0  0  0  0  0  0  0  0  0
    6.0751   -1.2595    1.3152 H   0  0  0  0  0  0  0  0  0  0  0  0
    5.4275    0.2042   -0.4147 H   0  0  0  0  0  0  0  0  0  0  0  0
    3.9002   -0.1977    1.1879 H   0  0  0  0  0  0  0  0  0  0  0  0
    3.2986   -1.3707    0.0602 H   0  0  0  0  0  0  0  0  0  0  0  0
    4.1761   -1.8149    2.9368 H   0  0  0  0  0  0  0  0  0  0  0  0
    2.5484   -1.8115    2.3389 H   0  0  0  0  0  0  0  0  0  0  0  0
    1.8211   -4.7007    1.2741 H   0  0  0  0  0  0  0  0  0  0  0  0
    3.0820   -4.8583    0.1092 H   0  0  0  0  0  0  0  0  0  0  0  0
    2.2190   -3.3472    0.2591 H   0  0  0  0  0  0  0  0  0  0  0  0
    5.7690   -3.5146    2.1716 H   0  0  0  0  0  0  0  0  0  0  0  0
    5.5623   -5.7387    0.2199 H   0  0  0  0  0  0  0  0  0  0  0  0
    6.5796   -5.5065    1.5988 H   0  0  0  0  0  0  0  0  0  0  0  0
    3.7712   -6.5422    1.4569 H   0  0  0  0  0  0  0  0  0  0  0  0
    5.1640   -7.3228    2.1431 H   0  0  0  0  0  0  0  0  0  0  0  0
    5.3985   -5.2958    5.2726 H   0  0  0  0  0  0  0  0  0  0  0  0
    6.1311   -4.7004    3.8304 H   0  0  0  0  0  0  0  0  0  0  0  0
    6.2681   -6.3844    4.1906 H   0  0  0  0  0  0  0  0  0  0  0  0
    4.0401   -3.7573    3.9632 H   0  0  0  0  0  0  0  0  0  0  0  0
    2.1357   -3.7869    4.9603 H   0  0  0  0  0  0  0  0  0  0  0  0
    1.4209   -2.5703    3.2158 H   0  0  0  0  0  0  0  0  0  0  0  0
    1.3770   -5.9759    3.0547 H   0  0  0  0  0  0  0  0  0  0  0  0
    0.5394   -8.7904    3.6280 H   0  0  0  0  0  0  0  0  0  0  0  0
    3.1925   -9.1138    3.3447 H   0  0  0  0  0  0  0  0  0  0  0  0
    2.4430   -7.8455    2.4099 H   0  0  0  0  0  0  0  0  0  0  0  0
    3.8240   -8.6884    5.6598 H   0  0  0  0  0  0  0  0  0  0  0  0
    4.8972   -7.3538    5.9476 H   0  0  0  0  0  0  0  0  0  0  0  0
    5.1757   -8.4243    4.5793 H   0  0  0  0  0  0  0  0  0  0  0  0
    3.4985   -5.1216    6.3795 H   0  0  0  0  0  0  0  0  0  0  0  0
    3.0065   -6.6474    7.1141 H   0  0  0  0  0  0  0  0  0  0  0  0
    1.8335   -5.3659    6.8569 H   0  0  0  0  0  0  0  0  0  0  0  0
  1  2  1  0
  1 27  1  0
  1 28  1  0
  1 29  1  0
  2 10  1  0
  2  3  1  0
  2  4  1  0
  3 30  1  0
  3 31  1  0
  3 32  1  0
  4  5  1  0
  4  6  1  0
  4 33  1  1
  5 34  1  0
  6  7  1  0
  6 35  1  0
  6 36  1  0
  7  8  1  0
  7 37  1  0
  7 38  1  0
  8 15  1  0
  8  9  1  6
  8 10  1  0
  9 39  1  0
  9 40  1  0
  9 41  1  0
 10 11  1  0
 10 42  1  1
 11 12  1  0
 11 43  1  0
 11 44  1  0
 12 13  1  0
 12 45  1  0
 12 46  1  0
 13 23  1  0
 13 14  1  1
 13 15  1  0
 14 47  1  0
 14 48  1  0
 14 49  1  0
 15 16  1  0
 15 50  1  1
 16 17  1  0
 16 18  1  0
 16 51  1  1
 17 52  1  0
 18 25  1  0
 18 19  1  0
 18 53  1  6
 19 20  1  0
 20 25  1  0
 20 21  2  0
 21 22  1  0
 21 54  1  0
 22 23  1  0
 22 55  1  0
 22 56  1  0
 23 24  1  1
 23 25  1  0
 24 57  1  0
 24 58  1  0
 24 59  1  0
 25 26  1  1
 26 60  1  0
 26 61  1  0
 26 62  1  0
M  END
>  <i_m_ct_stereo_status>  (123) 
1

>  <s_m_source_file>  (123) 
/var/tmp/pbs.5076255.sched01/tmp3foza_40/36o9al7bb4.sdf

>  <i_m_source_file_index>  (123) 
19

>  <i_lp_mmshare_version>  (123) 
48012

>  <i_f3d_flags>  (123) 
0

>  <s_epik_input>  (123) 
W0NIMl0xW0NIMl1bQ0BIXShbT0hdKUMoW0NIM10pKFtDSDNdKVtDQEBIXShbQ0BdMTJbQ0gzXSlbQ0gyXVtDSDJdW0NAQF0zKFtDSDNdKVtDQEBIXTJbQ0BASF0oW09IXSlbQ0hdNFtDQEBdNShbQ0gzXSlDKE80KT1bQ0hdW0NIMl1bQ0BAXTM1W0NIM10=

>  <s_epik_cmdline>  (123) 
J2VwaWtfcHl0aG9uJywgJy1waHQnLCAnMi4wJywgJy1waCcsICc3LjAnLCAnLXRuJywgJzgnLCAnLW1hJywgJzIwMCcsICctaW1hZScsICc8aW5maWxlLm1hZT4nLCAnLW9tYWUnLCAnPG91dGZpbGUubWFlPic=

>  <r_lp_tautomer_probability>  (123) 
1

>  <r_epik_Ionization_Penalty>  (123) 
2.95948e-06

>  <r_epik_Ionization_Penalty_Charging>  (123) 
0

>  <r_epik_Ionization_Penalty_Neutral>  (123) 
2.95948e-06

>  <r_epik_State_Penalty>  (123) 
-0

>  <r_epik_Charging_Adjusted_Penalty>  (123) 
0

>  <i_epik_Tot_Q>  (123) 
0

>  <i_epik_Tot_abs_Q>  (123) 
0

>  <s_lp_Force_Field>  (123) 
OPLS3e

>  <r_lp_Energy>  (123) 
140.603

>  <b_lp_Chiralities_Consistent>  (123) 
1

>  <s_lp_Variant>  (123) 
44:0-1

>  <s_i_glide_gridfile>  (123) 
pfpi4k_grid

>  <i_i_glide_lignum>  (123) 
19

>  <i_i_glide_rotatable_bonds>  (123) 
2

>  <r_i_docking_score>  (123) 
-2.67844

>  <r_i_glide_ligand_efficiency>  (123) 
-0.103017

>  <r_i_glide_ligand_efficiency_sa>  (123) 
-0.305188

>  <r_i_glide_ligand_efficiency_ln>  (123) 
-0.629024

>  <r_i_glide_gscore>  (123) 
-2.67844

>  <r_i_glide_lipo>  (123) 
-0.45644

>  <r_i_glide_hbond>  (123) 
-0.27197

>  <r_i_glide_metal>  (123) 
-0

>  <r_i_glide_rewards>  (123) 
-0.950931

>  <r_i_glide_evdw>  (123) 
-13.6933

>  <r_i_glide_ecoul>  (123) 
-2.09625

>  <r_i_glide_erotb>  (123) 
0

>  <r_i_glide_esite>  (123) 
0

>  <r_i_glide_emodel>  (123) 
-19.0884

>  <r_i_glide_energy>  (123) 
-15.7896

>  <r_i_glide_einternal>  (123) 
0.91935

>  <r_i_glide_intrahb_reward>  (123) 
-0

>  <i_i_glide_confnum>  (123) 
2

>  <i_i_glide_posenum>  (123) 
17

>  <r_i_glide_eff_state_penalty>  (123) 
0

>  <ligand_id>  (123) 
44

>  <original_smiles>  (123) 
CC1(C)C(O)CCC2(C)C1CCC1(C)C2C(O)C2OC3=CCC1(C)C32C

>  <smiles>  (123) 
[H]OC1([H])C2([H])OC3=C([H])C([H])([H])C(C([H])([H])[H])(C32C([H])([H])[H])C2(C([H])([H])[H])C([H])([H])C([H])([H])C3([H])C(C([H])([H])[H])(C([H])([H])[H])C([H])(O[H])C([H])([H])C([H])([H])C3(C([H])([H])[H])C12[H]

$$$$
45:0:0
     RDKit          3D

 63 69  0  0  1  0  0  0  0  0999 V2000
    4.2383   -8.7521    1.1946 C   0  0  0  0  0  0  0  0  0  0  0  0
    4.4539   -7.4316    1.3219 C   0  0  0  0  0  0  0  0  0  0  0  0
    5.8351   -6.8110    1.1437 C   0  0  0  0  0  0  0  0  0  0  0  0
    6.0652   -5.5233    1.9223 C   0  0  2  0  0  0  0  0  0  0  0  0
    6.1476   -5.5689    3.3306 O   0  0  0  0  0  0  0  0  0  0  0  0
    4.9725   -4.9120    2.8071 C   0  0  1  0  0  0  0  0  0  0  0  0
    4.9071   -3.3784    3.0086 C   0  0  2  0  0  0  0  0  0  0  0  0
    3.9324   -3.0400    3.9629 O   0  0  0  0  0  0  0  0  0  0  0  0
    2.6277   -3.4229    3.7420 C   0  0  1  0  0  0  0  0  0  0  0  0
    1.7945   -2.6809    2.9003 O   0  0  0  0  0  0  0  0  0  0  0  0
    2.2264   -2.1868    1.6607 C   0  0  1  0  0  0  0  0  0  0  0  0
    2.9245   -0.9878    1.6794 O   0  0  0  0  0  0  0  0  0  0  0  0
    4.2600   -1.0216    2.0860 C   0  0  1  0  0  0  0  0  0  0  0  0
    4.4455   -0.6214    3.4111 O   0  0  0  0  0  0  0  0  0  0  0  0
    3.6440    0.4841    3.8080 C   0  0  0  0  0  0  0  0  0  0  0  0
    4.9885   -2.3848    1.7603 C   0  0  1  0  0  0  0  0  0  0  0  0
    6.4823   -1.9904    1.5393 C   0  0  0  0  0  0  0  0  0  0  0  0
    6.8458   -1.3928    0.1764 C   0  0  0  0  0  0  0  0  0  0  0  0
    6.3144   -2.2583   -0.9633 C   0  0  0  0  0  0  0  0  0  0  0  0
    4.7793   -2.4224   -0.9207 C   0  0  0  0  0  0  0  0  0  0  0  0
    4.1058   -1.0691   -1.2728 C   0  0  0  0  0  0  0  0  0  0  0  0
    4.4241   -3.4342   -2.0384 C   0  0  0  0  0  0  0  0  0  0  0  0
    4.3473   -3.0038    0.4767 C   0  0  2  0  0  0  0  0  0  0  0  0
    2.8069   -3.1960    0.6382 C   0  0  1  0  0  0  0  0  0  0  0  0
    2.2560   -4.4894    0.8649 O   0  0  0  0  0  0  0  0  0  0  0  0
    3.2409   -5.5641    0.5590 O   0  0  0  0  0  0  0  0  0  0  0  0
    3.3498   -6.4433    1.6743 C   0  0  2  0  0  0  0  0  0  0  0  0
    3.6759   -5.7402    3.0402 C   0  0  1  0  0  0  0  0  0  0  0  0
    3.9495   -6.8970    4.0688 C   0  0  0  0  0  0  0  0  0  0  0  0
    2.4252   -4.9405    3.5986 C   0  0  1  0  0  0  0  0  0  0  0  0
    1.8774   -5.4443    4.8106 O   0  0  0  0  0  0  0  0  0  0  0  0
    3.2521   -9.1767    1.3263 H   0  0  0  0  0  0  0  0  0  0  0  0
    5.0433   -9.4291    0.9515 H   0  0  0  0  0  0  0  0  0  0  0  0
    6.6221   -7.5312    1.3639 H   0  0  0  0  0  0  0  0  0  0  0  0
    5.9083   -6.5443    0.0896 H   0  0  0  0  0  0  0  0  0  0  0  0
    6.8517   -4.9129    1.4996 H   0  0  0  0  0  0  0  0  0  0  0  0
    5.8048   -3.1539    3.5894 H   0  0  0  0  0  0  0  0  0  0  0  0
    2.1945   -3.1346    4.7015 H   0  0  0  0  0  0  0  0  0  0  0  0
    1.2617   -1.8547    1.2794 H   0  0  0  0  0  0  0  0  0  0  0  0
    4.7061   -0.2101    1.5146 H   0  0  0  0  0  0  0  0  0  0  0  0
    3.8740    0.7333    4.8432 H   0  0  0  0  0  0  0  0  0  0  0  0
    2.5784    0.2518    3.7628 H   0  0  0  0  0  0  0  0  0  0  0  0
    3.8201    1.3668    3.1941 H   0  0  0  0  0  0  0  0  0  0  0  0
    6.7848   -1.2801    2.3115 H   0  0  0  0  0  0  0  0  0  0  0  0
    7.1134   -2.8615    1.6719 H   0  0  0  0  0  0  0  0  0  0  0  0
    6.4853   -0.3670    0.1010 H   0  0  0  0  0  0  0  0  0  0  0  0
    7.9326   -1.3211    0.1036 H   0  0  0  0  0  0  0  0  0  0  0  0
    6.6115   -1.8369   -1.9227 H   0  0  0  0  0  0  0  0  0  0  0  0
    6.7963   -3.2357   -0.9090 H   0  0  0  0  0  0  0  0  0  0  0  0
    3.0162   -1.1059   -1.2097 H   0  0  0  0  0  0  0  0  0  0  0  0
    4.3474   -0.7622   -2.2911 H   0  0  0  0  0  0  0  0  0  0  0  0
    4.4247   -0.2602   -0.6214 H   0  0  0  0  0  0  0  0  0  0  0  0
    3.3494   -3.5755   -2.1448 H   0  0  0  0  0  0  0  0  0  0  0  0
    4.8634   -4.4138   -1.8429 H   0  0  0  0  0  0  0  0  0  0  0  0
    4.7991   -3.0980   -3.0069 H   0  0  0  0  0  0  0  0  0  0  0  0
    4.8093   -3.9758    0.3991 H   0  0  0  0  0  0  0  0  0  0  0  0
    2.3481   -2.9292   -0.3092 H   0  0  0  0  0  0  0  0  0  0  0  0
    2.4090   -6.9903    1.7625 H   0  0  0  0  0  0  0  0  0  0  0  0
    3.0922   -7.5775    4.1210 H   0  0  0  0  0  0  0  0  0  0  0  0
    4.1455   -6.5083    5.0734 H   0  0  0  0  0  0  0  0  0  0  0  0
    4.8073   -7.5272    3.8236 H   0  0  0  0  0  0  0  0  0  0  0  0
    1.5645   -5.0810    2.9455 H   0  0  0  0  0  0  0  0  0  0  0  0
    1.7291   -6.3703    4.7134 H   0  0  0  0  0  0  0  0  0  0  0  0
  1  2  2  0
  1 32  1  0
  1 33  1  0
  2 27  1  0
  2  3  1  0
  3  4  1  0
  3 34  1  0
  3 35  1  0
  4  6  1  0
  4  5  1  0
  4 36  1  6
  6  5  1  1
  6 28  1  0
  6  7  1  0
  7 16  1  0
  7  8  1  0
  7 37  1  1
  8  9  1  0
  9 30  1  0
  9 10  1  0
  9 38  1  1
 10 11  1  0
 11 24  1  0
 11 12  1  0
 11 39  1  6
 12 13  1  0
 13 14  1  0
 13 16  1  0
 13 40  1  6
 14 15  1  0
 15 41  1  0
 15 42  1  0
 15 43  1  0
 16 23  1  0
 16 17  1  6
 17 18  1  0
 17 44  1  0
 17 45  1  0
 18 19  1  0
 18 46  1  0
 18 47  1  0
 19 20  1  0
 19 48  1  0
 19 49  1  0
 20 21  1  0
 20 22  1  0
 20 23  1  0
 21 50  1  0
 21 51  1  0
 21 52  1  0
 22 53  1  0
 22 54  1  0
 22 55  1  0
 23 24  1  0
 23 56  1  6
 24 25  1  0
 24 57  1  6
 25 26  1  0
 26 27  1  0
 27 28  1  0
 27 58  1  1
 28 29  1  1
 28 30  1  0
 29 59  1  0
 29 60  1  0
 29 61  1  0
 30 31  1  0
 30 62  1  6
 31 63  1  0
M  END
>  <i_m_ct_stereo_status>  (124) 
1

>  <s_m_source_file>  (124) 
/var/tmp/pbs.5076255.sched01/tmp3foza_40/36o9al7bb4.sdf

>  <i_m_source_file_index>  (124) 
21

>  <i_lp_mmshare_version>  (124) 
48012

>  <i_f3d_flags>  (124) 
0

>  <s_epik_input>  (124) 
TzFbQ0BIXShbQ0BAXTEyMylbQ0gyXUMoPVtDSDJdKVtDQEhdNFtDQF0zKFtDSDNdKVtDQEBIXShbT0hdKVtDQEhdNU9bQ0BASF0yW0NAQF02N1tDQEhdKEMoW0NIM10pKFtDSDNdKVtDSDJdW0NIMl1bQ0gyXTcpW0NAQEhdKE9PNClbQ0BASF0oTzUpT1tDQEhdNk9bQ0gzXQ==

>  <s_epik_cmdline>  (124) 
J2VwaWtfcHl0aG9uJywgJy1waHQnLCAnMi4wJywgJy1waCcsICc3LjAnLCAnLXRuJywgJzgnLCAnLW1hJywgJzIwMCcsICctaW1hZScsICc8aW5maWxlLm1hZT4nLCAnLW9tYWUnLCAnPG91dGZpbGUubWFlPic=

>  <r_lp_tautomer_probability>  (124) 
1

>  <r_epik_Ionization_Penalty>  (124) 
4.61241e-06

>  <r_epik_Ionization_Penalty_Charging>  (124) 
0

>  <r_epik_Ionization_Penalty_Neutral>  (124) 
4.61241e-06

>  <r_epik_State_Penalty>  (124) 
-0

>  <r_epik_Charging_Adjusted_Penalty>  (124) 
0

>  <i_epik_Tot_Q>  (124) 
0

>  <i_epik_Tot_abs_Q>  (124) 
0

>  <s_epik_Chemistry_Notes>  (124) 
This compound contains an acetal/aminal-like group ( X-CH(R)-Y where X, Y are N, S, or O) that may be acid/base labile, releasing an aldehyde.

>  <s_lp_Force_Field>  (124) 
OPLS3e

>  <r_lp_Energy>  (124) 
106.929

>  <b_lp_Chiralities_Consistent>  (124) 
1

>  <s_lp_Variant>  (124) 
45:0-1

>  <s_i_glide_gridfile>  (124) 
pfpi4k_grid

>  <i_i_glide_lignum>  (124) 
21

>  <i_i_glide_rotatable_bonds>  (124) 
2

>  <r_i_docking_score>  (124) 
-2.2316

>  <r_i_glide_ligand_efficiency>  (124) 
-0.0719872

>  <r_i_glide_ligand_efficiency_sa>  (124) 
-0.226139

>  <r_i_glide_ligand_efficiency_ln>  (124) 
-0.503295

>  <r_i_glide_gscore>  (124) 
-2.2316

>  <r_i_glide_lipo>  (124) 
-0.444697

>  <r_i_glide_hbond>  (124) 
-0.00662958

>  <r_i_glide_metal>  (124) 
-0

>  <r_i_glide_rewards>  (124) 
-0.483231

>  <r_i_glide_evdw>  (124) 
-22.543

>  <r_i_glide_ecoul>  (124) 
-0.846273

>  <r_i_glide_erotb>  (124) 
0

>  <r_i_glide_esite>  (124) 
-0.0429561

>  <r_i_glide_emodel>  (124) 
-25.7729

>  <r_i_glide_energy>  (124) 
-23.3893

>  <r_i_glide_einternal>  (124) 
1.04203

>  <r_i_glide_intrahb_reward>  (124) 
-0

>  <i_i_glide_confnum>  (124) 
2

>  <i_i_glide_posenum>  (124) 
30

>  <r_i_glide_eff_state_penalty>  (124) 
0

>  <ligand_id>  (124) 
45

>  <original_smiles>  (124) 
C=C1CC2OC23C2OC4OC5OC(OC)C26CCCC(C)(C)C6C5OOC1C3(C)C4O

>  <smiles>  (124) 
[H]OC1([H])C2([H])OC3([H])OC([H])(OC([H])([H])[H])C45C([H])([H])C([H])([H])C([H])([H])C(C([H])([H])[H])(C([H])([H])[H])C4([H])C3([H])OOC3([H])C(=C([H])[H])C([H])([H])C4([H])OC4(C5([H])O2)C31C([H])([H])[H]

$$$$
45:0:1
     RDKit          3D

 63 69  0  0  1  0  0  0  0  0999 V2000
    4.2362   -8.7485    1.2746 C   0  0  0  0  0  0  0  0  0  0  0  0
    4.4516   -7.4274    1.3871 C   0  0  0  0  0  0  0  0  0  0  0  0
    5.8334   -6.8097    1.2077 C   0  0  0  0  0  0  0  0  0  0  0  0
    6.0619   -5.5106    1.9693 C   0  0  2  0  0  0  0  0  0  0  0  0
    6.1409   -5.5375    3.3788 O   0  0  0  0  0  0  0  0  0  0  0  0
    4.9648   -4.8873    2.8425 C   0  0  1  0  0  0  0  0  0  0  0  0
    4.9012   -3.3523    3.0286 C   0  0  2  0  0  0  0  0  0  0  0  0
    3.9213   -3.0077    3.9795 O   0  0  0  0  0  0  0  0  0  0  0  0
    2.6155   -3.3919    3.7544 C   0  0  1  0  0  0  0  0  0  0  0  0
    1.7866   -2.6551    2.9028 O   0  0  0  0  0  0  0  0  0  0  0  0
    2.2231   -2.1799    1.6584 C   0  0  1  0  0  0  0  0  0  0  0  0
    2.9197   -0.9801    1.6610 O   0  0  0  0  0  0  0  0  0  0  0  0
    4.2524   -1.0085    2.0739 C   0  0  1  0  0  0  0  0  0  0  0  0
    4.4308   -0.5961    3.3955 O   0  0  0  0  0  0  0  0  0  0  0  0
    3.6310    0.5146    3.7773 C   0  0  0  0  0  0  0  0  0  0  0  0
    4.9818   -2.3736    1.7688 C   0  0  1  0  0  0  0  0  0  0  0  0
    6.4767   -1.9814    1.5464 C   0  0  0  0  0  0  0  0  0  0  0  0
    6.8435   -1.3979    0.1802 C   0  0  0  0  0  0  0  0  0  0  0  0
    6.3155   -2.2735   -0.9551 C   0  0  0  0  0  0  0  0  0  0  0  0
    4.7808   -2.4375   -0.9135 C   0  0  0  0  0  0  0  0  0  0  0  0
    4.1068   -1.0883   -1.2825 C   0  0  0  0  0  0  0  0  0  0  0  0
    4.4306   -3.4623   -2.0213 C   0  0  0  0  0  0  0  0  0  0  0  0
    4.3457   -3.0084    0.4892 C   0  0  2  0  0  0  0  0  0  0  0  0
    2.8047   -3.2011    0.6473 C   0  0  1  0  0  0  0  0  0  0  0  0
    2.2543   -4.4922    0.8880 O   0  0  0  0  0  0  0  0  0  0  0  0
    3.2397   -5.5703    0.5974 O   0  0  0  0  0  0  0  0  0  0  0  0
    3.3455   -6.4349    1.7246 C   0  0  2  0  0  0  0  0  0  0  0  0
    3.6680   -5.7141    3.0828 C   0  0  1  0  0  0  0  0  0  0  0  0
    3.9400   -6.8575    4.1265 C   0  0  0  0  0  0  0  0  0  0  0  0
    2.4131   -4.9108    3.6237 C   0  0  1  0  0  0  0  0  0  0  0  0
    1.8508   -5.4104    4.8291 O   0  0  0  0  0  0  0  0  0  0  0  0
    3.2497   -9.1714    1.4089 H   0  0  0  0  0  0  0  0  0  0  0  0
    5.0410   -9.4288    1.0430 H   0  0  0  0  0  0  0  0  0  0  0  0
    6.6188   -7.5251    1.4418 H   0  0  0  0  0  0  0  0  0  0  0  0
    5.9134   -6.5590    0.1511 H   0  0  0  0  0  0  0  0  0  0  0  0
    6.8456   -4.9039    1.5410 H   0  0  0  0  0  0  0  0  0  0  0  0
    5.7993   -3.1229    3.6041 H   0  0  0  0  0  0  0  0  0  0  0  0
    2.1726   -3.0888    4.7055 H   0  0  0  0  0  0  0  0  0  0  0  0
    1.2575   -1.8518    1.2740 H   0  0  0  0  0  0  0  0  0  0  0  0
    4.6989   -0.2025    1.4960 H   0  0  0  0  0  0  0  0  0  0  0  0
    3.8528    0.7763    4.8110 H   0  0  0  0  0  0  0  0  0  0  0  0
    2.5645    0.2832    3.7270 H   0  0  0  0  0  0  0  0  0  0  0  0
    3.8147    1.3895    3.1547 H   0  0  0  0  0  0  0  0  0  0  0  0
    6.7781   -1.2655    2.3132 H   0  0  0  0  0  0  0  0  0  0  0  0
    7.1080   -2.8513    1.6811 H   0  0  0  0  0  0  0  0  0  0  0  0
    6.4830   -0.3742    0.0910 H   0  0  0  0  0  0  0  0  0  0  0  0
    7.9308   -1.3277    0.1072 H   0  0  0  0  0  0  0  0  0  0  0  0
    6.6147   -1.8585   -1.9184 H   0  0  0  0  0  0  0  0  0  0  0  0
    6.7990   -3.2506   -0.8914 H   0  0  0  0  0  0  0  0  0  0  0  0
    3.0191   -1.1288   -1.2244 H   0  0  0  0  0  0  0  0  0  0  0  0
    4.3513   -0.7960   -2.3035 H   0  0  0  0  0  0  0  0  0  0  0  0
    4.4212   -0.2654   -0.6446 H   0  0  0  0  0  0  0  0  0  0  0  0
    3.3572   -3.6085   -2.1301 H   0  0  0  0  0  0  0  0  0  0  0  0
    4.8703   -4.4404   -1.8149 H   0  0  0  0  0  0  0  0  0  0  0  0
    4.8076   -3.1389   -2.9928 H   0  0  0  0  0  0  0  0  0  0  0  0
    4.8100   -3.9809    0.4234 H   0  0  0  0  0  0  0  0  0  0  0  0
    2.3494   -2.9465   -0.3043 H   0  0  0  0  0  0  0  0  0  0  0  0
    2.4036   -6.9796    1.8176 H   0  0  0  0  0  0  0  0  0  0  0  0
    3.0787   -7.5348    4.1852 H   0  0  0  0  0  0  0  0  0  0  0  0
    4.1340   -6.4623    5.1275 H   0  0  0  0  0  0  0  0  0  0  0  0
    4.7965   -7.4942    3.8907 H   0  0  0  0  0  0  0  0  0  0  0  0
    1.5582   -5.0551    2.9650 H   0  0  0  0  0  0  0  0  0  0  0  0
    2.4995   -5.3228    5.5081 H   0  0  0  0  0  0  0  0  0  0  0  0
  1  2  2  0
  1 32  1  0
  1 33  1  0
  2 27  1  0
  2  3  1  0
  3  4  1  0
  3 34  1  0
  3 35  1  0
  4  6  1  0
  4  5  1  0
  4 36  1  6
  6  5  1  1
  6 28  1  0
  6  7  1  0
  7 16  1  0
  7  8  1  0
  7 37  1  1
  8  9  1  0
  9 30  1  0
  9 10  1  0
  9 38  1  1
 10 11  1  0
 11 24  1  0
 11 12  1  0
 11 39  1  6
 12 13  1  0
 13 14  1  0
 13 16  1  0
 13 40  1  6
 14 15  1  0
 15 41  1  0
 15 42  1  0
 15 43  1  0
 16 23  1  0
 16 17  1  6
 17 18  1  0
 17 44  1  0
 17 45  1  0
 18 19  1  0
 18 46  1  0
 18 47  1  0
 19 20  1  0
 19 48  1  0
 19 49  1  0
 20 21  1  0
 20 22  1  0
 20 23  1  0
 21 50  1  0
 21 51  1  0
 21 52  1  0
 22 53  1  0
 22 54  1  0
 22 55  1  0
 23 24  1  0
 23 56  1  6
 24 25  1  0
 24 57  1  6
 25 26  1  0
 26 27  1  0
 27 28  1  0
 27 58  1  1
 28 29  1  1
 28 30  1  0
 29 59  1  0
 29 60  1  0
 29 61  1  0
 30 31  1  0
 30 62  1  6
 31 63  1  0
M  END
>  <i_m_ct_stereo_status>  (125) 
1

>  <s_m_source_file>  (125) 
/var/tmp/pbs.5076255.sched01/tmp3foza_40/36o9al7bb4.sdf

>  <i_m_source_file_index>  (125) 
21

>  <i_lp_mmshare_version>  (125) 
48012

>  <i_f3d_flags>  (125) 
0

>  <s_epik_input>  (125) 
TzFbQ0BIXShbQ0BAXTEyMylbQ0gyXUMoPVtDSDJdKVtDQEhdNFtDQF0zKFtDSDNdKVtDQEBIXShbT0hdKVtDQEhdNU9bQ0BASF0yW0NAQF02N1tDQEhdKEMoW0NIM10pKFtDSDNdKVtDSDJdW0NIMl1bQ0gyXTcpW0NAQEhdKE9PNClbQ0BASF0oTzUpT1tDQEhdNk9bQ0gzXQ==

>  <s_epik_cmdline>  (125) 
J2VwaWtfcHl0aG9uJywgJy1waHQnLCAnMi4wJywgJy1waCcsICc3LjAnLCAnLXRuJywgJzgnLCAnLW1hJywgJzIwMCcsICctaW1hZScsICc8aW5maWxlLm1hZT4nLCAnLW9tYWUnLCAnPG91dGZpbGUubWFlPic=

>  <r_lp_tautomer_probability>  (125) 
1

>  <r_epik_Ionization_Penalty>  (125) 
4.61241e-06

>  <r_epik_Ionization_Penalty_Charging>  (125) 
0

>  <r_epik_Ionization_Penalty_Neutral>  (125) 
4.61241e-06

>  <r_epik_State_Penalty>  (125) 
-0

>  <r_epik_Charging_Adjusted_Penalty>  (125) 
0

>  <i_epik_Tot_Q>  (125) 
0

>  <i_epik_Tot_abs_Q>  (125) 
0

>  <s_epik_Chemistry_Notes>  (125) 
This compound contains an acetal/aminal-like group ( X-CH(R)-Y where X, Y are N, S, or O) that may be acid/base labile, releasing an aldehyde.

>  <s_lp_Force_Field>  (125) 
OPLS3e

>  <r_lp_Energy>  (125) 
106.929

>  <b_lp_Chiralities_Consistent>  (125) 
1

>  <s_lp_Variant>  (125) 
45:0-1

>  <s_i_glide_gridfile>  (125) 
pfpi4k_grid

>  <i_i_glide_lignum>  (125) 
21

>  <i_i_glide_rotatable_bonds>  (125) 
2

>  <r_i_docking_score>  (125) 
-2.21955

>  <r_i_glide_ligand_efficiency>  (125) 
-0.0715982

>  <r_i_glide_ligand_efficiency_sa>  (125) 
-0.224917

>  <r_i_glide_ligand_efficiency_ln>  (125) 
-0.500576

>  <r_i_glide_gscore>  (125) 
-2.21955

>  <r_i_glide_lipo>  (125) 
-0.442949

>  <r_i_glide_hbond>  (125) 
-0.00667762

>  <r_i_glide_metal>  (125) 
-0

>  <r_i_glide_rewards>  (125) 
-0.483682

>  <r_i_glide_evdw>  (125) 
-22.4835

>  <r_i_glide_ecoul>  (125) 
-0.791034

>  <r_i_glide_erotb>  (125) 
0

>  <r_i_glide_esite>  (125) 
-0.0434076

>  <r_i_glide_emodel>  (125) 
-25.8131

>  <r_i_glide_energy>  (125) 
-23.2745

>  <r_i_glide_einternal>  (125) 
0.691593

>  <r_i_glide_intrahb_reward>  (125) 
-0

>  <i_i_glide_confnum>  (125) 
1

>  <i_i_glide_posenum>  (125) 
7

>  <r_i_glide_eff_state_penalty>  (125) 
0

>  <ligand_id>  (125) 
45

>  <original_smiles>  (125) 
C=C1CC2OC23C2OC4OC5OC(OC)C26CCCC(C)(C)C6C5OOC1C3(C)C4O

>  <smiles>  (125) 
[H]OC1([H])C2([H])OC3([H])OC([H])(OC([H])([H])[H])C45C([H])([H])C([H])([H])C([H])([H])C(C([H])([H])[H])(C([H])([H])[H])C4([H])C3([H])OOC3([H])C(=C([H])[H])C([H])([H])C4([H])OC4(C5([H])O2)C31C([H])([H])[H]

$$$$
45:0:2
     RDKit          3D

 63 69  0  0  1  0  0  0  0  0999 V2000
    1.5198   -7.5514    1.4105 C   0  0  0  0  0  0  0  0  0  0  0  0
    2.4485   -6.6002    1.2731 C   0  0  0  0  0  0  0  0  0  0  0  0
    3.8300   -6.8568    0.6567 C   0  0  0  0  0  0  0  0  0  0  0  0
    4.9375   -5.9488    1.1388 C   0  0  2  0  0  0  0  0  0  0  0  0
    5.3678   -6.0530    2.4645 O   0  0  0  0  0  0  0  0  0  0  0  0
    4.6449   -4.8663    2.1892 C   0  0  1  0  0  0  0  0  0  0  0  0
    5.4831   -3.5663    2.1474 C   0  0  2  0  0  0  0  0  0  0  0  0
    5.1657   -2.7428    3.2660 O   0  0  0  0  0  0  0  0  0  0  0  0
    3.8339   -2.3573    3.4293 C   0  0  1  0  0  0  0  0  0  0  0  0
    3.3818   -1.2238    2.7238 O   0  0  0  0  0  0  0  0  0  0  0  0
    3.5984   -1.0278    1.3553 C   0  0  1  0  0  0  0  0  0  0  0  0
    4.7984   -0.4206    1.0427 O   0  0  0  0  0  0  0  0  0  0  0  0
    5.9403   -1.2077    1.1214 C   0  0  1  0  0  0  0  0  0  0  0  0
    6.6453   -1.0382    2.3006 O   0  0  0  0  0  0  0  0  0  0  0  0
    6.1307   -0.1709    3.3311 C   0  0  0  0  0  0  0  0  0  0  0  0
    5.7316   -2.7282    0.7943 C   0  0  1  0  0  0  0  0  0  0  0  0
    7.0669   -3.2363    0.1585 C   0  0  0  0  0  0  0  0  0  0  0  0
    7.2824   -2.8874   -1.3306 C   0  0  0  0  0  0  0  0  0  0  0  0
    6.0445   -3.2613   -2.1697 C   0  0  0  0  0  0  0  0  0  0  0  0
    4.7708   -2.5357   -1.7120 C   0  0  0  0  0  0  0  0  0  0  0  0
    4.8725   -1.0444   -2.0610 C   0  0  0  0  0  0  0  0  0  0  0  0
    3.6212   -3.1434   -2.5261 C   0  0  0  0  0  0  0  0  0  0  0  0
    4.5230   -2.8462   -0.1801 C   0  0  2  0  0  0  0  0  0  0  0  0
    3.2459   -2.1601    0.3839 C   0  0  1  0  0  0  0  0  0  0  0  0
    2.2362   -2.9524    0.9883 O   0  0  0  0  0  0  0  0  0  0  0  0
    2.3437   -4.3501    0.5927 O   0  0  0  0  0  0  0  0  0  0  0  0
    2.2310   -5.1763    1.7435 C   0  0  2  0  0  0  0  0  0  0  0  0
    3.2562   -4.8340    2.8529 C   0  0  1  0  0  0  0  0  0  0  0  0
    3.1555   -5.9405    3.9429 C   0  0  0  0  0  0  0  0  0  0  0  0
    2.8371   -3.4703    3.5702 C   0  0  1  0  0  0  0  0  0  0  0  0
    2.4538   -3.6143    4.9413 O   0  0  0  0  0  0  0  0  0  0  0  0
    0.5580   -7.3422    1.8464 H   0  0  0  0  0  0  0  0  0  0  0  0
    1.7204   -8.5474    1.0678 H   0  0  0  0  0  0  0  0  0  0  0  0
    4.1197   -7.9136    0.7769 H   0  0  0  0  0  0  0  0  0  0  0  0
    3.7485   -6.6579   -0.4137 H   0  0  0  0  0  0  0  0  0  0  0  0
    5.7502   -5.8571    0.4411 H   0  0  0  0  0  0  0  0  0  0  0  0
    6.4845   -3.8907    2.4350 H   0  0  0  0  0  0  0  0  0  0  0  0
    3.9573   -1.9017    4.3971 H   0  0  0  0  0  0  0  0  0  0  0  0
    2.8737   -0.2404    1.1695 H   0  0  0  0  0  0  0  0  0  0  0  0
    6.5789   -0.7789    0.3699 H   0  0  0  0  0  0  0  0  0  0  0  0
    6.9451    0.0338    4.0617 H   0  0  0  0  0  0  0  0  0  0  0  0
    5.2693   -0.5641    3.8278 H   0  0  0  0  0  0  0  0  0  0  0  0
    5.9234    0.8402    2.9314 H   0  0  0  0  0  0  0  0  0  0  0  0
    7.9197   -2.8673    0.7205 H   0  0  0  0  0  0  0  0  0  0  0  0
    7.1486   -4.3140    0.2304 H   0  0  0  0  0  0  0  0  0  0  0  0
    7.5245   -1.7993   -1.4462 H   0  0  0  0  0  0  0  0  0  0  0  0
    8.1383   -3.4423   -1.7130 H   0  0  0  0  0  0  0  0  0  0  0  0
    6.2427   -3.0642   -3.2208 H   0  0  0  0  0  0  0  0  0  0  0  0
    5.8396   -4.3242   -2.0855 H   0  0  0  0  0  0  0  0  0  0  0  0
    4.0099   -0.4773   -1.7108 H   0  0  0  0  0  0  0  0  0  0  0  0
    4.9171   -0.9127   -3.1410 H   0  0  0  0  0  0  0  0  0  0  0  0
    5.7480   -0.5732   -1.6375 H   0  0  0  0  0  0  0  0  0  0  0  0
    2.6525   -2.6792   -2.3290 H   0  0  0  0  0  0  0  0  0  0  0  0
    3.5213   -4.1948   -2.2664 H   0  0  0  0  0  0  0  0  0  0  0  0
    3.8003   -3.0853   -3.6003 H   0  0  0  0  0  0  0  0  0  0  0  0
    4.3399   -3.9129   -0.2415 H   0  0  0  0  0  0  0  0  0  0  0  0
    2.7500   -1.6633   -0.4614 H   0  0  0  0  0  0  0  0  0  0  0  0
    1.2241   -5.0859    2.1450 H   0  0  0  0  0  0  0  0  0  0  0  0
    2.1331   -6.0047    4.3145 H   0  0  0  0  0  0  0  0  0  0  0  0
    3.8095   -5.7315    4.7876 H   0  0  0  0  0  0  0  0  0  0  0  0
    3.4123   -6.9385    3.5874 H   0  0  0  0  0  0  0  0  0  0  0  0
    1.8706   -3.1096    3.1946 H   0  0  0  0  0  0  0  0  0  0  0  0
    2.2685   -2.7488    5.2777 H   0  0  0  0  0  0  0  0  0  0  0  0
  1  2  2  0
  1 32  1  0
  1 33  1  0
  2 27  1  0
  2  3  1  0
  3  4  1  0
  3 34  1  0
  3 35  1  0
  4  6  1  0
  4  5  1  0
  4 36  1  6
  6  5  1  1
  6 28  1  0
  6  7  1  0
  7 16  1  0
  7  8  1  0
  7 37  1  1
  8  9  1  0
  9 30  1  0
  9 10  1  0
  9 38  1  1
 10 11  1  0
 11 24  1  0
 11 12  1  0
 11 39  1  6
 12 13  1  0
 13 14  1  0
 13 16  1  0
 13 40  1  6
 14 15  1  0
 15 41  1  0
 15 42  1  0
 15 43  1  0
 16 23  1  0
 16 17  1  6
 17 18  1  0
 17 44  1  0
 17 45  1  0
 18 19  1  0
 18 46  1  0
 18 47  1  0
 19 20  1  0
 19 48  1  0
 19 49  1  0
 20 21  1  0
 20 22  1  0
 20 23  1  0
 21 50  1  0
 21 51  1  0
 21 52  1  0
 22 53  1  0
 22 54  1  0
 22 55  1  0
 23 24  1  0
 23 56  1  6
 24 25  1  0
 24 57  1  6
 25 26  1  0
 26 27  1  0
 27 28  1  0
 27 58  1  1
 28 29  1  1
 28 30  1  0
 29 59  1  0
 29 60  1  0
 29 61  1  0
 30 31  1  0
 30 62  1  6
 31 63  1  0
M  END
>  <i_m_ct_stereo_status>  (126) 
1

>  <s_m_source_file>  (126) 
/var/tmp/pbs.5076255.sched01/tmp3foza_40/36o9al7bb4.sdf

>  <i_m_source_file_index>  (126) 
21

>  <i_lp_mmshare_version>  (126) 
48012

>  <i_f3d_flags>  (126) 
0

>  <s_epik_input>  (126) 
TzFbQ0BIXShbQ0BAXTEyMylbQ0gyXUMoPVtDSDJdKVtDQEhdNFtDQF0zKFtDSDNdKVtDQEBIXShbT0hdKVtDQEhdNU9bQ0BASF0yW0NAQF02N1tDQEhdKEMoW0NIM10pKFtDSDNdKVtDSDJdW0NIMl1bQ0gyXTcpW0NAQEhdKE9PNClbQ0BASF0oTzUpT1tDQEhdNk9bQ0gzXQ==

>  <s_epik_cmdline>  (126) 
J2VwaWtfcHl0aG9uJywgJy1waHQnLCAnMi4wJywgJy1waCcsICc3LjAnLCAnLXRuJywgJzgnLCAnLW1hJywgJzIwMCcsICctaW1hZScsICc8aW5maWxlLm1hZT4nLCAnLW9tYWUnLCAnPG91dGZpbGUubWFlPic=

>  <r_lp_tautomer_probability>  (126) 
1

>  <r_epik_Ionization_Penalty>  (126) 
4.61241e-06

>  <r_epik_Ionization_Penalty_Charging>  (126) 
0

>  <r_epik_Ionization_Penalty_Neutral>  (126) 
4.61241e-06

>  <r_epik_State_Penalty>  (126) 
-0

>  <r_epik_Charging_Adjusted_Penalty>  (126) 
0

>  <i_epik_Tot_Q>  (126) 
0

>  <i_epik_Tot_abs_Q>  (126) 
0

>  <s_epik_Chemistry_Notes>  (126) 
This compound contains an acetal/aminal-like group ( X-CH(R)-Y where X, Y are N, S, or O) that may be acid/base labile, releasing an aldehyde.

>  <s_lp_Force_Field>  (126) 
OPLS3e

>  <r_lp_Energy>  (126) 
106.929

>  <b_lp_Chiralities_Consistent>  (126) 
1

>  <s_lp_Variant>  (126) 
45:0-1

>  <s_i_glide_gridfile>  (126) 
pfpi4k_grid

>  <i_i_glide_lignum>  (126) 
21

>  <i_i_glide_rotatable_bonds>  (126) 
2

>  <r_i_docking_score>  (126) 
-2.18394

>  <r_i_glide_ligand_efficiency>  (126) 
-0.0704497

>  <r_i_glide_ligand_efficiency_sa>  (126) 
-0.221309

>  <r_i_glide_ligand_efficiency_ln>  (126) 
-0.492545

>  <r_i_glide_gscore>  (126) 
-2.18394

>  <r_i_glide_lipo>  (126) 
-0.79296

>  <r_i_glide_hbond>  (126) 
-0.000851739

>  <r_i_glide_metal>  (126) 
-0

>  <r_i_glide_rewards>  (126) 
-0.641767

>  <r_i_glide_evdw>  (126) 
-15.4886

>  <r_i_glide_ecoul>  (126) 
0.285038

>  <r_i_glide_erotb>  (126) 
0

>  <r_i_glide_esite>  (126) 
-0.016685

>  <r_i_glide_emodel>  (126) 
-12.4503

>  <r_i_glide_energy>  (126) 
-15.2036

>  <r_i_glide_einternal>  (126) 
6.50863

>  <r_i_glide_intrahb_reward>  (126) 
-0

>  <i_i_glide_confnum>  (126) 
2

>  <i_i_glide_posenum>  (126) 
26

>  <r_i_glide_eff_state_penalty>  (126) 
0

>  <ligand_id>  (126) 
45

>  <original_smiles>  (126) 
C=C1CC2OC23C2OC4OC5OC(OC)C26CCCC(C)(C)C6C5OOC1C3(C)C4O

>  <smiles>  (126) 
[H]OC1([H])C2([H])OC3([H])OC([H])(OC([H])([H])[H])C45C([H])([H])C([H])([H])C([H])([H])C(C([H])([H])[H])(C([H])([H])[H])C4([H])C3([H])OOC3([H])C(=C([H])[H])C([H])([H])C4([H])OC4(C5([H])O2)C31C([H])([H])[H]

$$$$
49:0:0
     RDKit          3D

 77 86  0  0  1  0  0  0  0  0999 V2000
    4.3565   -7.1711   -0.2376 C   0  0  0  0  0  0  0  0  0  0  0  0
    4.7710   -6.3460    0.8328 O   0  0  0  0  0  0  0  0  0  0  0  0
    4.0576   -6.4248    2.0435 C   0  0  2  0  0  0  0  0  0  0  0  0
    2.5514   -6.5463    1.8390 C   0  0  0  0  0  0  0  0  0  0  0  0
    2.0876   -5.6602    0.9639 C   0  0  0  0  0  0  0  0  0  0  0  0
    2.5250   -4.2458    1.1731 C   0  0  1  0  0  0  0  0  0  0  0  0
    2.8193   -3.9135    2.5497 O   0  0  0  0  0  0  0  0  0  0  0  0
    4.1857   -3.6446    2.5738 C   0  0  2  0  0  0  0  0  0  0  0  0
    5.2186   -2.6774    3.1089 C   0  0  1  0  0  0  0  0  0  0  0  0
    5.7695   -3.0601    4.3619 O   0  0  0  0  0  0  0  0  0  0  0  0
    5.0392   -2.6188    5.4917 C   0  0  0  0  0  0  0  0  0  0  0  0
    6.2859   -2.7511    1.9311 C   0  0  0  0  0  0  0  0  0  0  0  0
    6.1243   -3.6240    0.5918 C   0  0  0  0  0  0  0  0  0  0  0  0
    4.8583   -3.7927   -0.3575 C   0  0  2  0  0  0  0  0  0  0  0  0
    5.1629   -3.1038   -1.7258 C   0  0  1  0  0  0  0  0  0  0  0  0
    6.2369   -3.7574   -2.3222 O   0  0  0  0  0  0  0  0  0  0  0  0
    3.9908   -3.1529   -2.6846 C   0  0  0  0  0  0  0  0  0  0  0  0
    4.1140   -3.4421   -3.8905 O   0  0  0  0  0  0  0  0  0  0  0  0
    2.8079   -2.8501   -2.1263 O   0  0  0  0  0  0  0  0  0  0  0  0
    2.6659   -2.5045   -0.7447 C   0  0  2  0  0  0  0  0  0  0  0  0
    3.3386   -1.1019   -0.4388 C   0  0  0  0  0  0  0  0  0  0  0  0
    4.2289   -1.2347    0.7893 C   0  0  1  0  0  0  0  0  0  0  0  0
    4.0617   -0.0943    1.6249 O   0  0  0  0  0  0  0  0  0  0  0  0
    3.6846   -2.6045    1.3799 C   0  0  1  0  0  0  0  0  0  0  0  0
    3.4179   -3.4383    0.2095 C   0  0  1  0  0  0  0  0  0  0  0  0
    4.4454   -5.2431    3.0014 C   0  0  2  0  0  0  0  0  0  0  0  0
    5.8430   -5.4578    3.0909 O   0  0  0  0  0  0  0  0  0  0  0  0
    4.0282   -5.6400    4.5247 C   0  0  2  0  0  0  0  0  0  0  0  0
    4.3595   -7.0996    4.9115 C   0  0  0  0  0  0  0  0  0  0  0  0
    3.6394   -8.0955    4.1935 O   0  0  0  0  0  0  0  0  0  0  0  0
    2.2593   -7.9833    4.1204 C   0  0  1  0  0  0  0  0  0  0  0  0
    1.7232   -7.6195    5.3509 O   0  0  0  0  0  0  0  0  0  0  0  0
    1.5396   -6.2233    5.5719 C   0  0  2  0  0  0  0  0  0  0  0  0
    0.4013   -5.6820    4.7425 C   0  0  1  0  0  0  0  0  0  0  0  0
    0.6516   -4.1769    4.9028 C   0  0  0  0  0  0  0  0  0  0  0  0
    2.0583   -4.0213    4.8755 O   0  0  0  0  0  0  0  0  0  0  0  0
    2.7007   -5.2235    5.2918 C   0  0  2  0  0  0  0  0  0  0  0  0
    0.5150   -6.1528    3.3126 C   0  0  2  0  0  0  0  0  0  0  0  0
    0.1906   -7.5145    2.7883 C   0  0  1  0  0  0  0  0  0  0  0  0
   -0.2938   -7.4844    1.4676 O   0  0  0  0  0  0  0  0  0  0  0  0
    1.6637   -7.1404    2.9576 C   0  0  1  0  0  0  0  0  0  0  0  0
    4.9893   -7.0185   -1.0611 H   0  0  0  0  0  0  0  0  0  0  0  0
    3.4314   -6.7517   -0.5989 H   0  0  0  0  0  0  0  0  0  0  0  0
    4.2632   -8.2394   -0.0111 H   0  0  0  0  0  0  0  0  0  0  0  0
    4.4570   -7.3823    2.3351 H   0  0  0  0  0  0  0  0  0  0  0  0
    1.0624   -5.6671    0.6842 H   0  0  0  0  0  0  0  0  0  0  0  0
    1.5905   -3.7274    1.2201 H   0  0  0  0  0  0  0  0  0  0  0  0
    4.8246   -1.6723    3.2745 H   0  0  0  0  0  0  0  0  0  0  0  0
    5.4803   -3.0200    6.4023 H   0  0  0  0  0  0  0  0  0  0  0  0
    4.0244   -2.9702    5.4395 H   0  0  0  0  0  0  0  0  0  0  0  0
    5.0067   -1.5379    5.5779 H   0  0  0  0  0  0  0  0  0  0  0  0
    6.7043   -1.7585    1.7261 H   0  0  0  0  0  0  0  0  0  0  0  0
    7.0193   -3.4365    2.2538 H   0  0  0  0  0  0  0  0  0  0  0  0
    6.9609   -3.2968   -0.0284 H   0  0  0  0  0  0  0  0  0  0  0  0
    6.4260   -4.6371    0.8366 H   0  0  0  0  0  0  0  0  0  0  0  0
    4.8146   -4.8113   -0.7090 H   0  0  0  0  0  0  0  0  0  0  0  0
    5.4463   -2.0544   -1.6064 H   0  0  0  0  0  0  0  0  0  0  0  0
    6.4251   -3.3125   -3.1356 H   0  0  0  0  0  0  0  0  0  0  0  0
    1.5814   -2.6554   -0.5544 H   0  0  0  0  0  0  0  0  0  0  0  0
    3.9167   -0.6621   -1.2605 H   0  0  0  0  0  0  0  0  0  0  0  0
    2.6367   -0.3268   -0.1487 H   0  0  0  0  0  0  0  0  0  0  0  0
    5.2340   -1.1880    0.3696 H   0  0  0  0  0  0  0  0  0  0  0  0
    4.1977    0.6829    1.0891 H   0  0  0  0  0  0  0  0  0  0  0  0
    2.7805   -2.0646    1.7261 H   0  0  0  0  0  0  0  0  0  0  0  0
    6.1832   -4.8128    3.7051 H   0  0  0  0  0  0  0  0  0  0  0  0
    4.7675   -5.1202    5.1276 H   0  0  0  0  0  0  0  0  0  0  0  0
    5.4236   -7.2927    4.7721 H   0  0  0  0  0  0  0  0  0  0  0  0
    4.1951   -7.2311    5.9793 H   0  0  0  0  0  0  0  0  0  0  0  0
    1.9679   -9.0249    3.9677 H   0  0  0  0  0  0  0  0  0  0  0  0
    1.2492   -6.1091    6.6158 H   0  0  0  0  0  0  0  0  0  0  0  0
   -0.5838   -5.9626    5.1259 H   0  0  0  0  0  0  0  0  0  0  0  0
    0.1618   -3.5469    4.1588 H   0  0  0  0  0  0  0  0  0  0  0  0
    0.3069   -3.8540    5.8858 H   0  0  0  0  0  0  0  0  0  0  0  0
    3.0607   -4.9867    6.2938 H   0  0  0  0  0  0  0  0  0  0  0  0
    0.2345   -5.3638    2.6331 H   0  0  0  0  0  0  0  0  0  0  0  0
   -0.3070   -8.2189    3.4630 H   0  0  0  0  0  0  0  0  0  0  0  0
   -0.1922   -8.3627    1.1042 H   0  0  0  0  0  0  0  0  0  0  0  0
  1  2  1  0
  1 42  1  0
  1 43  1  0
  1 44  1  0
  2  3  1  0
  3 26  1  0
  3  4  1  0
  3 45  1  1
 41  4  1  6
  4  5  2  0
  5  6  1  0
  5 46  1  0
 25  6  1  1
  6  7  1  0
  6 47  1  6
  8  7  1  1
  8 24  1  0
  8  9  1  0
  8 26  1  0
  9 10  1  0
  9 12  1  0
  9 48  1  1
 10 11  1  0
 11 49  1  0
 11 50  1  0
 11 51  1  0
 12 13  1  0
 12 52  1  0
 12 53  1  0
 13 14  1  0
 13 54  1  0
 13 55  1  0
 14 25  1  0
 14 15  1  0
 14 56  1  6
 15 16  1  0
 15 17  1  0
 15 57  1  1
 16 58  1  0
 17 18  2  0
 17 19  1  0
 19 20  1  0
 20 25  1  0
 20 21  1  0
 20 59  1  1
 21 22  1  0
 21 60  1  0
 21 61  1  0
 22 23  1  0
 22 24  1  0
 22 62  1  6
 23 63  1  0
 24 25  1  0
 24 64  1  1
 26 27  1  1
 26 28  1  0
 27 65  1  0
 28 37  1  0
 28 29  1  0
 28 66  1  1
 29 30  1  0
 29 67  1  0
 29 68  1  0
 30 31  1  0
 31 41  1  0
 31 32  1  0
 31 69  1  6
 32 33  1  0
 33 37  1  0
 33 34  1  0
 33 70  1  1
 34 35  1  0
 34 38  1  0
 34 71  1  1
 35 36  1  0
 35 72  1  0
 35 73  1  0
 36 37  1  0
 37 74  1  1
 38 41  1  0
 38 39  1  0
 38 75  1  6
 39 40  1  0
 39 41  1  0
 39 76  1  1
 40 77  1  0
M  END
>  <i_m_ct_stereo_status>  (127) 
1

>  <s_m_source_file>  (127) 
/var/tmp/pbs.5076255.sched01/tmp3foza_40/36o9al7bb4.sdf

>  <i_m_source_file_index>  (127) 
26

>  <i_lp_mmshare_version>  (127) 
48012

>  <i_f3d_flags>  (127) 
1

>  <s_epik_input>  (127) 
W09IXVtDQEBIXTFbQ0BIXTJbQ0BIXShbQ0gyXU8zKVtDQEBIXShPNClbQ0BIXTNbQ0BIXShbQ0BAXTUoW09IXSlbQ0BASF02T1tDSDNdKVtDSDJdT1tDQEBIXTRbQ0BAXTEyQzY9W0NIXVtDQEBIXShPNylbQ0BAXTgoW0NASF05QzE1NylbQ0BIXShbQ0gyXVtDSDJdW0NAQEhdMU9bQ0gzXSlbQ0BASF0oW09IXSlDKD1PKU9bQ0BASF04W0NIMl1bQ0BIXTlbT0hd

>  <s_epik_cmdline>  (127) 
J2VwaWtfcHl0aG9uJywgJy1waHQnLCAnMi4wJywgJy1waCcsICc3LjAnLCAnLXRuJywgJzgnLCAnLW1hJywgJzIwMCcsICctaW1hZScsICc8aW5maWxlLm1hZT4nLCAnLW9tYWUnLCAnPG91dGZpbGUubWFlPic=

>  <r_lp_tautomer_probability>  (127) 
1

>  <r_epik_Ionization_Penalty>  (127) 
0.000143699

>  <r_epik_Ionization_Penalty_Charging>  (127) 
0

>  <r_epik_Ionization_Penalty_Neutral>  (127) 
0.000143699

>  <r_epik_State_Penalty>  (127) 
-0

>  <r_epik_Charging_Adjusted_Penalty>  (127) 
0

>  <i_epik_Tot_Q>  (127) 
0

>  <i_epik_Tot_abs_Q>  (127) 
0

>  <s_epik_Chemistry_Notes>  (127) 
This compound has an ester and may undergo hydrolysis at high or low pH. This compound contains an acetal/aminal-like group ( X-CH(R)-Y where X, Y are N, S, or O) that may be acid/base labile, releasing an aldehyde.

>  <s_lp_Force_Field>  (127) 
OPLS3e

>  <r_lp_Energy>  (127) 
309.624

>  <b_lp_Chiralities_Consistent>  (127) 
1

>  <s_lp_Variant>  (127) 
49:0-1

>  <s_i_glide_gridfile>  (127) 
pfpi4k_grid

>  <i_i_glide_lignum>  (127) 
26

>  <i_i_glide_rotatable_bonds>  (127) 
6

>  <r_i_docking_score>  (127) 
-1.69236

>  <r_i_glide_ligand_efficiency>  (127) 
-0.041277

>  <r_i_glide_ligand_efficiency_sa>  (127) 
-0.142332

>  <r_i_glide_ligand_efficiency_ln>  (127) 
-0.359039

>  <r_i_glide_gscore>  (127) 
-1.69236

>  <r_i_glide_lipo>  (127) 
-0.381939

>  <r_i_glide_hbond>  (127) 
-0.32

>  <r_i_glide_metal>  (127) 
-0

>  <r_i_glide_rewards>  (127) 
-0.5

>  <r_i_glide_evdw>  (127) 
-0.896784

>  <r_i_glide_ecoul>  (127) 
-5.6782

>  <r_i_glide_erotb>  (127) 
0

>  <r_i_glide_esite>  (127) 
-0.0245117

>  <r_i_glide_emodel>  (127) 
-7.77072

>  <r_i_glide_energy>  (127) 
-6.57498

>  <r_i_glide_einternal>  (127) 
9.40206

>  <r_i_glide_intrahb_reward>  (127) 
-0.5

>  <i_i_glide_confnum>  (127) 
1

>  <i_i_glide_posenum>  (127) 
28

>  <r_i_glide_eff_state_penalty>  (127) 
0

>  <ligand_id>  (127) 
49

>  <original_smiles>  (127) 
COC1C2=CC3OC4(C(OC)CCC5C(O)C(=O)OC6CC(O)C4C365)C1(O)C1COC3OC4C(COC41)C1C(O)C231

>  <smiles>  (127) 
[H]OC1([H])C(=O)OC2([H])C([H])([H])C([H])(O[H])C3([H])C45OC([H])(C([H])=C6C([H])(OC([H])([H])[H])C4(O[H])C4([H])C([H])([H])OC7([H])OC8([H])C4([H])OC([H])([H])C8([H])C4([H])C([H])(O[H])C674)C23C1([H])C([H])([H])C([H])([H])C5([H])OC([H])([H])[H]

$$$$
49:0:1
     RDKit          3D

 77 86  0  0  1  0  0  0  0  0999 V2000
    4.4459   -7.1576    0.0694 C   0  0  0  0  0  0  0  0  0  0  0  0
    4.8702   -6.2501    1.0964 O   0  0  0  0  0  0  0  0  0  0  0  0
    4.1735   -6.2338    2.3334 C   0  0  2  0  0  0  0  0  0  0  0  0
    2.6780   -6.4225    2.1641 C   0  0  0  0  0  0  0  0  0  0  0  0
    2.1486   -5.6378    1.2254 C   0  0  0  0  0  0  0  0  0  0  0  0
    2.5059   -4.1834    1.3291 C   0  0  1  0  0  0  0  0  0  0  0  0
    2.8211   -3.7576    2.6849 O   0  0  0  0  0  0  0  0  0  0  0  0
    4.1702   -3.4292    2.6438 C   0  0  2  0  0  0  0  0  0  0  0  0
    5.1451   -2.3739    3.1019 C   0  0  1  0  0  0  0  0  0  0  0  0
    5.7415   -2.6660    4.3529 O   0  0  0  0  0  0  0  0  0  0  0  0
    5.0443   -2.1588    5.4836 C   0  0  0  0  0  0  0  0  0  0  0  0
    6.2413   -2.4896    1.9541 C   0  0  0  0  0  0  0  0  0  0  0  0
    6.0906   -3.4397    0.6620 C   0  0  0  0  0  0  0  0  0  0  0  0
    4.8156   -3.7380   -0.2605 C   0  0  2  0  0  0  0  0  0  0  0  0
    5.1132   -3.1316   -1.6722 C   0  0  1  0  0  0  0  0  0  0  0  0
    6.2481   -3.7271   -2.2086 O   0  0  0  0  0  0  0  0  0  0  0  0
    3.9201   -3.2891   -2.6143 C   0  0  0  0  0  0  0  0  0  0  0  0
    4.0631   -3.6449   -3.8002 O   0  0  0  0  0  0  0  0  0  0  0  0
    2.7200   -2.9902   -2.0503 O   0  0  0  0  0  0  0  0  0  0  0  0
    2.6227   -2.5001   -0.7062 C   0  0  2  0  0  0  0  0  0  0  0  0
    3.1985   -1.0474   -0.4692 C   0  0  0  0  0  0  0  0  0  0  0  0
    4.0868   -1.1291    0.7443 C   0  0  1  0  0  0  0  0  0  0  0  0
    3.9384    0.0624    1.5195 O   0  0  0  0  0  0  0  0  0  0  0  0
    3.5904   -2.4886    1.4057 C   0  0  1  0  0  0  0  0  0  0  0  0
    3.3608   -3.3931    0.2835 C   0  0  1  0  0  0  0  0  0  0  0  0
    4.5241   -4.9728    3.1867 C   0  0  2  0  0  0  0  0  0  0  0  0
    5.9324   -5.1255    3.2538 O   0  0  0  0  0  0  0  0  0  0  0  0
    4.1543   -5.2925    4.7325 C   0  0  2  0  0  0  0  0  0  0  0  0
    4.5651   -6.7002    5.2117 C   0  0  0  0  0  0  0  0  0  0  0  0
    3.8834   -7.7709    4.5688 O   0  0  0  0  0  0  0  0  0  0  0  0
    2.4976   -7.7316    4.5143 C   0  0  1  0  0  0  0  0  0  0  0  0
    1.9518   -7.3122    5.7211 O   0  0  0  0  0  0  0  0  0  0  0  0
    1.7174   -5.9174    5.8518 C   0  0  2  0  0  0  0  0  0  0  0  0
    0.5446   -5.4814    5.0048 C   0  0  1  0  0  0  0  0  0  0  0  0
    0.7248   -3.9593    5.0688 C   0  0  0  0  0  0  0  0  0  0  0  0
    2.1246   -3.7426    5.0078 O   0  0  0  0  0  0  0  0  0  0  0  0
    2.8272   -4.8813    5.4968 C   0  0  2  0  0  0  0  0  0  0  0  0
    0.6515   -6.0483    3.6081 C   0  0  2  0  0  0  0  0  0  0  0  0
    0.3810   -7.4550    3.1899 C   0  0  1  0  0  0  0  0  0  0  0  0
   -0.1261   -7.5619    1.8755 O   0  0  0  0  0  0  0  0  0  0  0  0
    1.8365   -7.0051    3.3008 C   0  0  1  0  0  0  0  0  0  0  0  0
    5.0000   -7.0632   -0.8493 H   0  0  0  0  0  0  0  0  0  0  0  0
    3.4881   -6.7708   -0.2599 H   0  0  0  0  0  0  0  0  0  0  0  0
    4.3708   -8.2166    0.3586 H   0  0  0  0  0  0  0  0  0  0  0  0
    4.6392   -7.1457    2.6672 H   0  0  0  0  0  0  0  0  0  0  0  0
    1.1174   -5.7412    0.9563 H   0  0  0  0  0  0  0  0  0  0  0  0
    1.5443   -3.7268    1.3229 H   0  0  0  0  0  0  0  0  0  0  0  0
    4.7443   -1.3648    3.2145 H   0  0  0  0  0  0  0  0  0  0  0  0
    5.5167   -2.4885    6.4138 H   0  0  0  0  0  0  0  0  0  0  0  0
    4.0329   -2.5355    5.4912 H   0  0  0  0  0  0  0  0  0  0  0  0
    4.9626   -1.0723    5.4874 H   0  0  0  0  0  0  0  0  0  0  0  0
    6.6342   -1.4906    1.6780 H   0  0  0  0  0  0  0  0  0  0  0  0
    6.9988   -3.0474    2.4520 H   0  0  0  0  0  0  0  0  0  0  0  0
    6.9064   -3.1178    0.0192 H   0  0  0  0  0  0  0  0  0  0  0  0
    6.4649   -4.4089    0.9530 H   0  0  0  0  0  0  0  0  0  0  0  0
    4.8180   -4.7880   -0.5258 H   0  0  0  0  0  0  0  0  0  0  0  0
    5.3176   -2.0630   -1.6204 H   0  0  0  0  0  0  0  0  0  0  0  0
    6.3966   -3.3461   -3.0767 H   0  0  0  0  0  0  0  0  0  0  0  0
    1.5685   -2.6672   -0.4253 H   0  0  0  0  0  0  0  0  0  0  0  0
    3.7000   -0.6861   -1.3531 H   0  0  0  0  0  0  0  0  0  0  0  0
    2.5107   -0.2850   -0.2112 H   0  0  0  0  0  0  0  0  0  0  0  0
    5.0642   -1.0993    0.2766 H   0  0  0  0  0  0  0  0  0  0  0  0
    3.0164    0.2362    1.6206 H   0  0  0  0  0  0  0  0  0  0  0  0
    2.6667   -1.9676    1.7459 H   0  0  0  0  0  0  0  0  0  0  0  0
    6.2504   -4.4025    3.7745 H   0  0  0  0  0  0  0  0  0  0  0  0
    4.8841   -4.7098    5.2785 H   0  0  0  0  0  0  0  0  0  0  0  0
    5.6347   -6.8519    5.0700 H   0  0  0  0  0  0  0  0  0  0  0  0
    4.4313   -6.7609    6.2899 H   0  0  0  0  0  0  0  0  0  0  0  0
    2.2511   -8.7895    4.4343 H   0  0  0  0  0  0  0  0  0  0  0  0
    1.4327   -5.7511    6.8902 H   0  0  0  0  0  0  0  0  0  0  0  0
   -0.4177   -5.7857    5.4215 H   0  0  0  0  0  0  0  0  0  0  0  0
    0.1963   -3.4048    4.2885 H   0  0  0  0  0  0  0  0  0  0  0  0
    0.3782   -3.5979    6.0392 H   0  0  0  0  0  0  0  0  0  0  0  0
    3.1857   -4.5664    6.4766 H   0  0  0  0  0  0  0  0  0  0  0  0
    0.3289   -5.3103    2.8835 H   0  0  0  0  0  0  0  0  0  0  0  0
   -0.0707   -8.1239    3.9242 H   0  0  0  0  0  0  0  0  0  0  0  0
   -0.1030   -8.4735    1.6191 H   0  0  0  0  0  0  0  0  0  0  0  0
  1  2  1  0
  1 42  1  0
  1 43  1  0
  1 44  1  0
  2  3  1  0
  3 26  1  0
  3  4  1  0
  3 45  1  1
 41  4  1  6
  4  5  2  0
  5  6  1  0
  5 46  1  0
 25  6  1  1
  6  7  1  0
  6 47  1  6
  8  7  1  1
  8 24  1  0
  8  9  1  0
  8 26  1  0
  9 10  1  0
  9 12  1  0
  9 48  1  1
 10 11  1  0
 11 49  1  0
 11 50  1  0
 11 51  1  0
 12 13  1  0
 12 52  1  0
 12 53  1  0
 13 14  1  0
 13 54  1  0
 13 55  1  0
 14 25  1  0
 14 15  1  0
 14 56  1  6
 15 16  1  0
 15 17  1  0
 15 57  1  1
 16 58  1  0
 17 18  2  0
 17 19  1  0
 19 20  1  0
 20 25  1  0
 20 21  1  0
 20 59  1  1
 21 22  1  0
 21 60  1  0
 21 61  1  0
 22 23  1  0
 22 24  1  0
 22 62  1  6
 23 63  1  0
 24 25  1  0
 24 64  1  1
 26 27  1  1
 26 28  1  0
 27 65  1  0
 28 37  1  0
 28 29  1  0
 28 66  1  1
 29 30  1  0
 29 67  1  0
 29 68  1  0
 30 31  1  0
 31 41  1  0
 31 32  1  0
 31 69  1  6
 32 33  1  0
 33 37  1  0
 33 34  1  0
 33 70  1  1
 34 35  1  0
 34 38  1  0
 34 71  1  1
 35 36  1  0
 35 72  1  0
 35 73  1  0
 36 37  1  0
 37 74  1  1
 38 41  1  0
 38 39  1  0
 38 75  1  6
 39 40  1  0
 39 41  1  0
 39 76  1  1
 40 77  1  0
M  END
>  <i_m_ct_stereo_status>  (128) 
1

>  <s_m_source_file>  (128) 
/var/tmp/pbs.5076255.sched01/tmp3foza_40/36o9al7bb4.sdf

>  <i_m_source_file_index>  (128) 
26

>  <i_lp_mmshare_version>  (128) 
48012

>  <i_f3d_flags>  (128) 
1

>  <s_epik_input>  (128) 
W09IXVtDQEBIXTFbQ0BIXTJbQ0BIXShbQ0gyXU8zKVtDQEBIXShPNClbQ0BIXTNbQ0BIXShbQ0BAXTUoW09IXSlbQ0BASF02T1tDSDNdKVtDSDJdT1tDQEBIXTRbQ0BAXTEyQzY9W0NIXVtDQEBIXShPNylbQ0BAXTgoW0NASF05QzE1NylbQ0BIXShbQ0gyXVtDSDJdW0NAQEhdMU9bQ0gzXSlbQ0BASF0oW09IXSlDKD1PKU9bQ0BASF04W0NIMl1bQ0BIXTlbT0hd

>  <s_epik_cmdline>  (128) 
J2VwaWtfcHl0aG9uJywgJy1waHQnLCAnMi4wJywgJy1waCcsICc3LjAnLCAnLXRuJywgJzgnLCAnLW1hJywgJzIwMCcsICctaW1hZScsICc8aW5maWxlLm1hZT4nLCAnLW9tYWUnLCAnPG91dGZpbGUubWFlPic=

>  <r_lp_tautomer_probability>  (128) 
1

>  <r_epik_Ionization_Penalty>  (128) 
0.000143699

>  <r_epik_Ionization_Penalty_Charging>  (128) 
0

>  <r_epik_Ionization_Penalty_Neutral>  (128) 
0.000143699

>  <r_epik_State_Penalty>  (128) 
-0

>  <r_epik_Charging_Adjusted_Penalty>  (128) 
0

>  <i_epik_Tot_Q>  (128) 
0

>  <i_epik_Tot_abs_Q>  (128) 
0

>  <s_epik_Chemistry_Notes>  (128) 
This compound has an ester and may undergo hydrolysis at high or low pH. This compound contains an acetal/aminal-like group ( X-CH(R)-Y where X, Y are N, S, or O) that may be acid/base labile, releasing an aldehyde.

>  <s_lp_Force_Field>  (128) 
OPLS3e

>  <r_lp_Energy>  (128) 
309.624

>  <b_lp_Chiralities_Consistent>  (128) 
1

>  <s_lp_Variant>  (128) 
49:0-1

>  <s_i_glide_gridfile>  (128) 
pfpi4k_grid

>  <i_i_glide_lignum>  (128) 
26

>  <i_i_glide_rotatable_bonds>  (128) 
6

>  <r_i_docking_score>  (128) 
-1.59535

>  <r_i_glide_ligand_efficiency>  (128) 
-0.0389109

>  <r_i_glide_ligand_efficiency_sa>  (128) 
-0.134173

>  <r_i_glide_ligand_efficiency_ln>  (128) 
-0.338458

>  <r_i_glide_gscore>  (128) 
-1.59535

>  <r_i_glide_lipo>  (128) 
-0.412744

>  <r_i_glide_hbond>  (128) 
-0.0597489

>  <r_i_glide_metal>  (128) 
-0

>  <r_i_glide_rewards>  (128) 
-0.5

>  <r_i_glide_evdw>  (128) 
1.39793

>  <r_i_glide_ecoul>  (128) 
-4.36317

>  <r_i_glide_erotb>  (128) 
0

>  <r_i_glide_esite>  (128) 
-0.0382729

>  <r_i_glide_emodel>  (128) 
-5.35471

>  <r_i_glide_energy>  (128) 
-2.96525

>  <r_i_glide_einternal>  (128) 
7.97063

>  <r_i_glide_intrahb_reward>  (128) 
-0.5

>  <i_i_glide_confnum>  (128) 
2

>  <i_i_glide_posenum>  (128) 
22

>  <r_i_glide_eff_state_penalty>  (128) 
0

>  <ligand_id>  (128) 
49

>  <original_smiles>  (128) 
COC1C2=CC3OC4(C(OC)CCC5C(O)C(=O)OC6CC(O)C4C365)C1(O)C1COC3OC4C(COC41)C1C(O)C231

>  <smiles>  (128) 
[H]OC1([H])C(=O)OC2([H])C([H])([H])C([H])(O[H])C3([H])C45OC([H])(C([H])=C6C([H])(OC([H])([H])[H])C4(O[H])C4([H])C([H])([H])OC7([H])OC8([H])C4([H])OC([H])([H])C8([H])C4([H])C([H])(O[H])C674)C23C1([H])C([H])([H])C([H])([H])C5([H])OC([H])([H])[H]

$$$$
50:0:0
     RDKit          3D

 96104  0  0  1  0  0  0  0  0999 V2000
    3.2748   -2.5702   -2.3583 C   0  0  0  0  0  0  0  0  0  0  0  0
    3.4638   -3.2234   -0.9798 C   0  0  2  0  0  0  0  0  0  0  0  0
    3.8227   -2.1788    0.0740 C   0  0  0  0  0  0  0  0  0  0  0  0
    3.7324   -2.7849    1.4818 C   0  0  0  0  0  0  0  0  0  0  0  0
    4.5624   -4.0860    1.7347 C   0  0  1  0  0  0  0  0  0  0  0  0
    3.8976   -4.8445    2.7233 O   0  0  0  0  0  0  0  0  0  0  0  0
    4.2761   -6.2142    2.9627 C   0  0  2  0  0  0  0  0  0  0  0  0
    3.3403   -6.8368    4.0429 C   0  0  1  0  0  0  0  0  0  0  0  0
    1.7998   -6.5040    3.7951 C   0  0  2  0  0  0  0  0  0  0  0  0
    1.0614   -5.9222    2.5587 C   0  0  1  0  0  0  0  0  0  0  0  0
    1.7337   -5.8811    1.3170 O   0  0  0  0  0  0  0  0  0  0  0  0
   -0.1855   -6.8650    2.4635 C   0  0  0  0  0  0  0  0  0  0  0  0
   -0.1671   -7.7393    3.7582 C   0  0  1  0  0  0  0  0  0  0  0  0
   -1.4937   -8.0928    4.1153 O   0  0  0  0  0  0  0  0  0  0  0  0
    0.6650   -8.8658    3.4620 O   0  0  0  0  0  0  0  0  0  0  0  0
    1.7231   -9.4065    4.3224 C   0  0  2  0  0  0  0  0  0  0  0  0
    1.0682  -10.1451    5.4600 C   0  0  0  0  0  0  0  0  0  0  0  0
    0.2908   -9.1427    6.3801 C   0  0  1  0  0  0  0  0  0  0  0  0
    0.4358   -9.5630    7.8471 C   0  0  0  0  0  0  0  0  0  0  0  0
    0.5804   -7.5853    6.2350 C   0  0  0  0  0  0  0  0  0  0  0  0
    0.5560   -6.8552    4.7971 C   0  0  1  0  0  0  0  0  0  0  0  0
   -0.2245   -5.5503    5.1311 C   0  0  0  0  0  0  0  0  0  0  0  0
    2.5712   -8.5652    5.1647 O   0  0  0  0  0  0  0  0  0  0  0  0
    3.5900   -8.4068    4.2268 C   0  0  2  0  0  0  0  0  0  0  0  0
    4.8007   -8.6708    4.9071 O   0  0  0  0  0  0  0  0  0  0  0  0
    6.0642   -8.6931    4.2702 C   0  0  2  0  0  0  0  0  0  0  0  0
    6.9905   -8.1712    5.3859 C   0  0  1  0  0  0  0  0  0  0  0  0
    8.3597   -8.4169    5.1232 O   0  0  0  0  0  0  0  0  0  0  0  0
    6.6894   -6.6898    5.6803 C   0  0  1  0  0  0  0  0  0  0  0  0
    7.7381   -6.0413    6.6103 C   0  0  0  0  0  0  0  0  0  0  0  0
    6.4816   -5.8206    4.4160 C   0  0  0  0  0  0  0  0  0  0  0  0
    5.8383   -6.3896    3.0927 C   0  0  1  0  0  0  0  0  0  0  0  0
    6.1848   -7.9043    2.9402 C   0  0  1  0  0  0  0  0  0  0  0  0
    7.5442   -8.1906    2.2749 C   0  0  0  0  0  0  0  0  0  0  0  0
    6.4217   -5.5270    1.9070 C   0  0  1  0  0  0  0  0  0  0  0  0
    5.8439   -5.8258    0.5093 C   0  0  0  0  0  0  0  0  0  0  0  0
    4.6409   -4.9715    0.3674 N   0  0  2  0  0  0  0  0  0  0  0  0
    4.5840   -4.2627   -0.9337 C   0  0  0  0  0  0  0  0  0  0  0  0
    6.0512   -4.0425    2.0796 C   0  0  1  0  0  0  0  0  0  0  0  0
    6.8935   -3.0784    1.2219 C   0  0  0  0  0  0  0  0  0  0  0  0
    2.9893   -9.6557    3.4844 C   0  0  1  0  0  0  0  0  0  0  0  0
    3.6603  -11.0230    3.6232 C   0  0  0  0  0  0  0  0  0  0  0  0
    4.1811   -2.0682   -2.7055 H   0  0  0  0  0  0  0  0  0  0  0  0
    2.4786   -1.8221   -2.3321 H   0  0  0  0  0  0  0  0  0  0  0  0
    2.9870   -3.3089   -3.1114 H   0  0  0  0  0  0  0  0  0  0  0  0
    2.5040   -3.6720   -0.7119 H   0  0  0  0  0  0  0  0  0  0  0  0
    4.8093   -1.7526   -0.1215 H   0  0  0  0  0  0  0  0  0  0  0  0
    3.1189   -1.3460    0.0231 H   0  0  0  0  0  0  0  0  0  0  0  0
    4.0390   -2.0455    2.2263 H   0  0  0  0  0  0  0  0  0  0  0  0
    2.6855   -3.0149    1.6901 H   0  0  0  0  0  0  0  0  0  0  0  0
    3.9913   -6.7603    2.0662 H   0  0  0  0  0  0  0  0  0  0  0  0
    3.5804   -6.3284    4.9747 H   0  0  0  0  0  0  0  0  0  0  0  0
    1.9925   -7.2818    3.0796 H   0  0  0  0  0  0  0  0  0  0  0  0
    0.7927   -4.8794    2.7375 H   0  0  0  0  0  0  0  0  0  0  0  0
    2.4910   -5.3481    1.4914 H   0  0  0  0  0  0  0  0  0  0  0  0
   -1.1072   -6.2977    2.4091 H   0  0  0  0  0  0  0  0  0  0  0  0
   -0.1594   -7.5232    1.5927 H   0  0  0  0  0  0  0  0  0  0  0  0
   -1.4585   -8.8820    4.6376 H   0  0  0  0  0  0  0  0  0  0  0  0
    0.3764  -10.8989    5.0815 H   0  0  0  0  0  0  0  0  0  0  0  0
    1.8207  -10.6920    6.0280 H   0  0  0  0  0  0  0  0  0  0  0  0
   -0.7633   -9.2976    6.1618 H   0  0  0  0  0  0  0  0  0  0  0  0
    1.4732   -9.4932    8.1803 H   0  0  0  0  0  0  0  0  0  0  0  0
    0.1239  -10.5977    7.9736 H   0  0  0  0  0  0  0  0  0  0  0  0
   -0.1814   -8.9545    8.5058 H   0  0  0  0  0  0  0  0  0  0  0  0
   -0.1634   -7.1364    6.8907 H   0  0  0  0  0  0  0  0  0  0  0  0
    1.5026   -7.3171    6.7567 H   0  0  0  0  0  0  0  0  0  0  0  0
   -1.1424   -5.7556    5.6778 H   0  0  0  0  0  0  0  0  0  0  0  0
   -0.5545   -4.9654    4.2882 H   0  0  0  0  0  0  0  0  0  0  0  0
    0.3841   -4.8914    5.7482 H   0  0  0  0  0  0  0  0  0  0  0  0
    6.2886   -9.7442    4.0822 H   0  0  0  0  0  0  0  0  0  0  0  0
    6.7876   -8.7374    6.2946 H   0  0  0  0  0  0  0  0  0  0  0  0
    8.5820   -8.0355    4.2900 H   0  0  0  0  0  0  0  0  0  0  0  0
    5.7473   -6.6741    6.2353 H   0  0  0  0  0  0  0  0  0  0  0  0
    8.6981   -5.9441    6.0992 H   0  0  0  0  0  0  0  0  0  0  0  0
    7.9066   -6.6299    7.5122 H   0  0  0  0  0  0  0  0  0  0  0  0
    7.4344   -5.0381    6.9135 H   0  0  0  0  0  0  0  0  0  0  0  0
    5.8743   -4.9852    4.7542 H   0  0  0  0  0  0  0  0  0  0  0  0
    7.4649   -5.4078    4.1753 H   0  0  0  0  0  0  0  0  0  0  0  0
    5.4663   -8.3631    2.2611 H   0  0  0  0  0  0  0  0  0  0  0  0
    8.3666   -7.6155    2.7030 H   0  0  0  0  0  0  0  0  0  0  0  0
    7.5358   -7.9850    1.2050 H   0  0  0  0  0  0  0  0  0  0  0  0
    7.7851   -9.2448    2.4021 H   0  0  0  0  0  0  0  0  0  0  0  0
    7.5075   -5.6163    1.8893 H   0  0  0  0  0  0  0  0  0  0  0  0
    6.5965   -5.5714   -0.2410 H   0  0  0  0  0  0  0  0  0  0  0  0
    5.5943   -6.8734    0.3790 H   0  0  0  0  0  0  0  0  0  0  0  0
    4.4509   -5.0334   -1.6802 H   0  0  0  0  0  0  0  0  0  0  0  0
    5.5238   -3.7854   -1.2177 H   0  0  0  0  0  0  0  0  0  0  0  0
    6.1272   -3.6817    3.1010 H   0  0  0  0  0  0  0  0  0  0  0  0
    6.9262   -3.2834    0.1590 H   0  0  0  0  0  0  0  0  0  0  0  0
    7.9235   -3.1865    1.5249 H   0  0  0  0  0  0  0  0  0  0  0  0
    6.6009   -2.0380    1.3676 H   0  0  0  0  0  0  0  0  0  0  0  0
    2.8058   -9.4080    2.4370 H   0  0  0  0  0  0  0  0  0  0  0  0
    3.9039  -11.2474    4.6640 H   0  0  0  0  0  0  0  0  0  0  0  0
    4.5840  -11.0757    3.0501 H   0  0  0  0  0  0  0  0  0  0  0  0
    3.0126  -11.8222    3.2642 H   0  0  0  0  0  0  0  0  0  0  0  0
    3.8589   -5.6139    0.3231 H   0  0  0  0  0  0  0  0  0  0  0  0
  1  2  1  0
  1 43  1  0
  1 44  1  0
  1 45  1  0
  2 38  1  0
  2  3  1  0
  2 46  1  1
  3  4  1  0
  3 47  1  0
  3 48  1  0
  4  5  1  0
  4 49  1  0
  4 50  1  0
  5 37  1  0
  5 39  1  0
  5  6  1  1
  6  7  1  0
  7 32  1  0
  7  8  1  0
  7 51  1  6
  8 24  1  0
  8  9  1  0
  8 52  1  1
  9 21  1  0
  9 10  1  0
  9 53  1  1
 10 11  1  0
 10 12  1  0
 10 54  1  1
 11 55  1  0
 12 13  1  0
 12 56  1  0
 12 57  1  0
 13 21  1  0
 13 14  1  1
 13 15  1  0
 14 58  1  0
 15 16  1  0
 16 41  1  0
 16 17  1  1
 16 23  1  0
 17 18  1  0
 17 59  1  0
 17 60  1  0
 18 19  1  0
 18 20  1  0
 18 61  1  6
 19 62  1  0
 19 63  1  0
 19 64  1  0
 20 21  1  0
 20 65  1  0
 20 66  1  0
 21 22  1  1
 22 67  1  0
 22 68  1  0
 22 69  1  0
 23 24  1  0
 24 25  1  1
 24 41  1  0
 25 26  1  0
 26 33  1  0
 26 27  1  0
 26 70  1  6
 27 28  1  0
 27 29  1  0
 27 71  1  1
 28 72  1  0
 29 30  1  0
 29 31  1  0
 29 73  1  1
 30 74  1  0
 30 75  1  0
 30 76  1  0
 32 31  1  1
 31 77  1  0
 31 78  1  0
 32 33  1  0
 32 35  1  0
 33 34  1  0
 33 79  1  6
 34 80  1  0
 34 81  1  0
 34 82  1  0
 35 36  1  0
 35 39  1  0
 35 83  1  6
 36 37  1  0
 36 84  1  0
 36 85  1  0
 37 38  1  0
 37 96  1  6
 38 86  1  0
 38 87  1  0
 39 40  1  0
 39 88  1  1
 40 89  1  0
 40 90  1  0
 40 91  1  0
 41 42  1  0
 41 92  1  6
 42 93  1  0
 42 94  1  0
 42 95  1  0
M  CHG  1  37   1
M  END
>  <i_m_ct_stereo_status>  (129) 
1

>  <s_m_source_file>  (129) 
/var/tmp/pbs.5076255.sched01/tmp3foza_40/36o9al7bb4.sdf

>  <i_m_source_file_index>  (129) 
27

>  <i_lp_mmshare_version>  (129) 
48012

>  <i_f3d_flags>  (129) 
0

>  <s_epik_input>  (129) 
W0NIMl0xW0NIMl1bQ0BASF0oW0NIM10pW0NIMl1OKFtDQEBdMTIzKVtDSDJdW0NAQEhdKFtDQEhdM1tDSDNdKVtDQF00NVtDQEhdKE8yKVtDQEBIXTZbQ0BAXTcoT1tDQEBIXShbQ0BASF01W0NIM10pW0NAQEhdKFtPSF0pW0NAQEhdKFtDSDNdKVtDSDJdNClPW0NAXTgoW0NAQEhdN1tDSDNdKU9bQ0BAXTkoW09IXSlbQ0BdKFtDSDNdKShbQ0BIXTZbQ0BASF0oW09IXSlbQ0gyXTkpW0NIMl1bQ0BASF0oW0NIMl04KVtDSDNd

>  <s_epik_cmdline>  (129) 
J2VwaWtfcHl0aG9uJywgJy1waHQnLCAnMi4wJywgJy1waCcsICc3LjAnLCAnLXRuJywgJzgnLCAnLW1hJywgJzIwMCcsICctaW1hZScsICc8aW5maWxlLm1hZT4nLCAnLW9tYWUnLCAnPG91dGZpbGUubWFlPic=

>  <r_epik_Ionization_Penalty>  (129) 
0.0643772

>  <r_epik_Ionization_Penalty_Charging>  (129) 
0.0643766

>  <r_epik_Ionization_Penalty_Neutral>  (129) 
6.08739e-07

>  <r_epik_State_Penalty>  (129) 
0.0560735

>  <r_epik_Charging_Adjusted_Penalty>  (129) 
0.12045

>  <i_epik_Tot_Q>  (129) 
1

>  <i_epik_Tot_abs_Q>  (129) 
1

>  <s_lp_Force_Field>  (129) 
OPLS3e

>  <r_lp_Energy>  (129) 
212.574

>  <b_lp_Chiralities_Consistent>  (129) 
1

>  <s_lp_Variant>  (129) 
50:0-1

>  <s_i_glide_gridfile>  (129) 
pfpi4k_grid

>  <i_i_glide_lignum>  (129) 
27

>  <i_i_glide_rotatable_bonds>  (129) 
3

>  <r_i_docking_score>  (129) 
-2.8307

>  <r_i_glide_ligand_efficiency>  (129) 
-0.0673976

>  <r_i_glide_ligand_efficiency_sa>  (129) 
-0.234276

>  <r_i_glide_ligand_efficiency_ln>  (129) 
-0.597487

>  <r_i_glide_gscore>  (129) 
-2.8307

>  <r_i_glide_lipo>  (129) 
-0.290394

>  <r_i_glide_hbond>  (129) 
0

>  <r_i_glide_metal>  (129) 
-0

>  <r_i_glide_rewards>  (129) 
-0.527984

>  <r_i_glide_evdw>  (129) 
-21.8736

>  <r_i_glide_ecoul>  (129) 
-5.7308

>  <r_i_glide_erotb>  (129) 
0

>  <r_i_glide_esite>  (129) 
-0.0590208

>  <r_i_glide_emodel>  (129) 
-36.4018

>  <r_i_glide_energy>  (129) 
-27.6044

>  <r_i_glide_einternal>  (129) 
1.48422

>  <r_i_glide_intrahb_reward>  (129) 
-0.5

>  <i_i_glide_confnum>  (129) 
1

>  <i_i_glide_posenum>  (129) 
9

>  <r_i_glide_eff_state_penalty>  (129) 
0

>  <ligand_id>  (129) 
50

>  <original_smiles>  (129) 
CC1CCC23OC4C5C6C(O)CC7(O)OC8(CC(C)CC67C)OC5(OC5C(O)C(C)CC4(C5C)C(CN2C1)C3C)C8C

>  <smiles>  (129) 
[H]OC1([H])C2([H])OC34OC5(OC6(O[H])C([H])([H])C([H])(O[H])C([H])(C3([H])C3([H])OC78C([H])([H])C([H])([H])C([H])(C([H])([H])[H])C([H])([H])[N+]7([H])C([H])([H])C([H])(C8([H])C([H])([H])[H])C3(C([H])([H])C1([H])C([H])([H])[H])C2([H])C([H])([H])[H])C6(C([H])([H])[H])C([H])([H])C([H])(C([H])([H])[H])C5([H])[H])C4([H])C([H])([H])[H]

$$$$
50:0:1
     RDKit          3D

 96104  0  0  1  0  0  0  0  0999 V2000
    0.8254  -11.8474    3.8887 C   0  0  0  0  0  0  0  0  0  0  0  0
    1.8876  -10.7338    3.8998 C   0  0  2  0  0  0  0  0  0  0  0  0
    3.2743  -11.3074    3.6419 C   0  0  0  0  0  0  0  0  0  0  0  0
    4.2781  -10.1741    3.3739 C   0  0  0  0  0  0  0  0  0  0  0  0
    4.3772   -9.0744    4.4902 C   0  0  1  0  0  0  0  0  0  0  0  0
    4.7547   -7.8551    3.8506 O   0  0  0  0  0  0  0  0  0  0  0  0
    4.6372   -6.6108    4.5615 C   0  0  2  0  0  0  0  0  0  0  0  0
    5.0383   -5.4356    3.6173 C   0  0  1  0  0  0  0  0  0  0  0  0
    4.3765   -5.5407    2.1737 C   0  0  2  0  0  0  0  0  0  0  0  0
    3.2260   -6.4363    1.6421 C   0  0  1  0  0  0  0  0  0  0  0  0
    2.3902   -7.0695    2.5834 O   0  0  0  0  0  0  0  0  0  0  0  0
    2.3925   -5.4003    0.8075 C   0  0  0  0  0  0  0  0  0  0  0  0
    3.2303   -4.0772    0.7680 C   0  0  1  0  0  0  0  0  0  0  0  0
    2.9935   -3.3483   -0.4409 O   0  0  0  0  0  0  0  0  0  0  0  0
    2.8907   -3.3737    1.9813 O   0  0  0  0  0  0  0  0  0  0  0  0
    3.8573   -2.7240    2.8800 C   0  0  2  0  0  0  0  0  0  0  0  0
    4.3621   -1.4666    2.2268 C   0  0  0  0  0  0  0  0  0  0  0  0
    5.2097   -1.8324    0.9639 C   0  0  1  0  0  0  0  0  0  0  0  0
    6.3931   -0.8776    0.8505 C   0  0  0  0  0  0  0  0  0  0  0  0
    5.7027   -3.3341    0.7726 C   0  0  0  0  0  0  0  0  0  0  0  0
    4.6766   -4.5735    0.8934 C   0  0  1  0  0  0  0  0  0  0  0  0
    5.0992   -5.4524   -0.3213 C   0  0  0  0  0  0  0  0  0  0  0  0
    5.1704   -3.2957    3.1691 O   0  0  0  0  0  0  0  0  0  0  0  0
    4.7850   -4.0043    4.3022 C   0  0  2  0  0  0  0  0  0  0  0  0
    5.7070   -3.7022    5.3142 O   0  0  0  0  0  0  0  0  0  0  0  0
    5.6106   -4.1959    6.6439 C   0  0  2  0  0  0  0  0  0  0  0  0
    7.0899   -4.3757    7.0215 C   0  0  1  0  0  0  0  0  0  0  0  0
    7.2840   -4.5160    8.4140 O   0  0  0  0  0  0  0  0  0  0  0  0
    7.7242   -5.5145    6.2004 C   0  0  1  0  0  0  0  0  0  0  0  0
    9.1285   -5.8975    6.7168 C   0  0  0  0  0  0  0  0  0  0  0  0
    6.8365   -6.7849    6.0898 C   0  0  0  0  0  0  0  0  0  0  0  0
    5.2568   -6.6910    6.0148 C   0  0  1  0  0  0  0  0  0  0  0  0
    4.7497   -5.4704    6.8448 C   0  0  1  0  0  0  0  0  0  0  0  0
    4.5625   -5.7461    8.3542 C   0  0  0  0  0  0  0  0  0  0  0  0
    4.7124   -8.0585    6.5845 C   0  0  1  0  0  0  0  0  0  0  0  0
    3.1860   -8.2749    6.5312 C   0  0  0  0  0  0  0  0  0  0  0  0
    2.9217   -8.8466    5.1692 N   0  0  2  0  0  0  0  0  0  0  0  0
    1.9432   -9.9839    5.2280 C   0  0  0  0  0  0  0  0  0  0  0  0
    5.2434   -9.2412    5.7440 C   0  0  1  0  0  0  0  0  0  0  0  0
    5.1431  -10.6217    6.4360 C   0  0  0  0  0  0  0  0  0  0  0  0
    3.5044   -3.0823    4.3331 C   0  0  1  0  0  0  0  0  0  0  0  0
    3.4184   -1.9303    5.3447 C   0  0  0  0  0  0  0  0  0  0  0  0
    1.0197  -12.6132    4.6421 H   0  0  0  0  0  0  0  0  0  0  0  0
    0.7970  -12.3434    2.9138 H   0  0  0  0  0  0  0  0  0  0  0  0
   -0.1712  -11.4374    4.0780 H   0  0  0  0  0  0  0  0  0  0  0  0
    1.6241  -10.0543    3.0888 H   0  0  0  0  0  0  0  0  0  0  0  0
    3.5948  -11.9536    4.4633 H   0  0  0  0  0  0  0  0  0  0  0  0
    3.2490  -11.9314    2.7467 H   0  0  0  0  0  0  0  0  0  0  0  0
    5.2700  -10.5852    3.2301 H   0  0  0  0  0  0  0  0  0  0  0  0
    4.0016   -9.6798    2.4418 H   0  0  0  0  0  0  0  0  0  0  0  0
    3.5693   -6.4417    4.7140 H   0  0  0  0  0  0  0  0  0  0  0  0
    6.1127   -5.5414    3.4347 H   0  0  0  0  0  0  0  0  0  0  0  0
    3.5697   -5.1729    2.7750 H   0  0  0  0  0  0  0  0  0  0  0  0
    3.6044   -7.2486    1.0126 H   0  0  0  0  0  0  0  0  0  0  0  0
    2.9266   -7.7890    2.8921 H   0  0  0  0  0  0  0  0  0  0  0  0
    2.2171   -5.7737   -0.1926 H   0  0  0  0  0  0  0  0  0  0  0  0
    1.4314   -5.1893    1.2787 H   0  0  0  0  0  0  0  0  0  0  0  0
    2.2153   -2.8146   -0.3312 H   0  0  0  0  0  0  0  0  0  0  0  0
    3.5356   -0.8264    1.9249 H   0  0  0  0  0  0  0  0  0  0  0  0
    4.9472   -0.8681    2.9301 H   0  0  0  0  0  0  0  0  0  0  0  0
    4.5894   -1.5914    0.1029 H   0  0  0  0  0  0  0  0  0  0  0  0
    7.0831   -1.0130    1.6835 H   0  0  0  0  0  0  0  0  0  0  0  0
    6.0541    0.1576    0.8590 H   0  0  0  0  0  0  0  0  0  0  0  0
    6.9509   -1.0375   -0.0700 H   0  0  0  0  0  0  0  0  0  0  0  0
    6.1489   -3.3261   -0.2195 H   0  0  0  0  0  0  0  0  0  0  0  0
    6.5825   -3.5312    1.3867 H   0  0  0  0  0  0  0  0  0  0  0  0
    5.1778   -4.8710   -1.2376 H   0  0  0  0  0  0  0  0  0  0  0  0
    4.4418   -6.2684   -0.6039 H   0  0  0  0  0  0  0  0  0  0  0  0
    6.0770   -5.8906   -0.1339 H   0  0  0  0  0  0  0  0  0  0  0  0
    5.1839   -3.3813    7.2294 H   0  0  0  0  0  0  0  0  0  0  0  0
    7.6206   -3.4508    6.7911 H   0  0  0  0  0  0  0  0  0  0  0  0
    6.8360   -5.3004    8.7056 H   0  0  0  0  0  0  0  0  0  0  0  0
    7.8890   -5.1104    5.1909 H   0  0  0  0  0  0  0  0  0  0  0  0
    9.0699   -6.3809    7.6930 H   0  0  0  0  0  0  0  0  0  0  0  0
    9.7894   -5.0383    6.8241 H   0  0  0  0  0  0  0  0  0  0  0  0
    9.6140   -6.6102    6.0474 H   0  0  0  0  0  0  0  0  0  0  0  0
    7.1744   -7.2383    5.1670 H   0  0  0  0  0  0  0  0  0  0  0  0
    7.1349   -7.4759    6.9019 H   0  0  0  0  0  0  0  0  0  0  0  0
    3.7508   -5.2056    6.5048 H   0  0  0  0  0  0  0  0  0  0  0  0
    5.4277   -6.2250    8.8107 H   0  0  0  0  0  0  0  0  0  0  0  0
    3.7049   -6.3886    8.5467 H   0  0  0  0  0  0  0  0  0  0  0  0
    4.3730   -4.8184    8.8948 H   0  0  0  0  0  0  0  0  0  0  0  0
    5.0671   -8.1891    7.6099 H   0  0  0  0  0  0  0  0  0  0  0  0
    2.8856   -8.9495    7.3221 H   0  0  0  0  0  0  0  0  0  0  0  0
    2.6219   -7.3698    6.6912 H   0  0  0  0  0  0  0  0  0  0  0  0
    0.9564   -9.5912    5.4484 H   0  0  0  0  0  0  0  0  0  0  0  0
    2.1706  -10.6875    6.0117 H   0  0  0  0  0  0  0  0  0  0  0  0
    6.2776   -9.1537    5.4419 H   0  0  0  0  0  0  0  0  0  0  0  0
    4.1611  -10.8752    6.8361 H   0  0  0  0  0  0  0  0  0  0  0  0
    5.8276  -10.6510    7.2779 H   0  0  0  0  0  0  0  0  0  0  0  0
    5.4521  -11.4288    5.7694 H   0  0  0  0  0  0  0  0  0  0  0  0
    2.6215   -3.6997    4.3489 H   0  0  0  0  0  0  0  0  0  0  0  0
    4.3394   -1.3544    5.3612 H   0  0  0  0  0  0  0  0  0  0  0  0
    3.2374   -2.3009    6.3531 H   0  0  0  0  0  0  0  0  0  0  0  0
    2.6081   -1.2491    5.0953 H   0  0  0  0  0  0  0  0  0  0  0  0
    2.3878   -8.1510    4.7117 H   0  0  0  0  0  0  0  0  0  0  0  0
  1  2  1  0
  1 43  1  0
  1 44  1  0
  1 45  1  0
  2 38  1  0
  2  3  1  0
  2 46  1  6
  3  4  1  0
  3 47  1  0
  3 48  1  0
  4  5  1  0
  4 49  1  0
  4 50  1  0
  5 37  1  0
  5 39  1  0
  5  6  1  6
  6  7  1  0
  7 32  1  0
  7  8  1  0
  7 51  1  1
  8 24  1  0
  8  9  1  0
  8 52  1  6
  9 21  1  0
  9 10  1  0
  9 53  1  6
 10 11  1  0
 10 12  1  0
 10 54  1  6
 11 55  1  0
 12 13  1  0
 12 56  1  0
 12 57  1  0
 13 21  1  0
 13 14  1  6
 13 15  1  0
 14 58  1  0
 15 16  1  0
 16 41  1  0
 16 17  1  1
 16 23  1  0
 17 18  1  0
 17 59  1  0
 17 60  1  0
 18 19  1  0
 18 20  1  0
 18 61  1  6
 19 62  1  0
 19 63  1  0
 19 64  1  0
 20 21  1  0
 20 65  1  0
 20 66  1  0
 21 22  1  6
 22 67  1  0
 22 68  1  0
 22 69  1  0
 23 24  1  0
 24 25  1  1
 24 41  1  0
 25 26  1  0
 26 33  1  0
 26 27  1  0
 26 70  1  1
 27 28  1  0
 27 29  1  0
 27 71  1  6
 28 72  1  0
 29 30  1  0
 29 31  1  0
 29 73  1  6
 30 74  1  0
 30 75  1  0
 30 76  1  0
 32 31  1  6
 31 77  1  0
 31 78  1  0
 32 33  1  0
 32 35  1  0
 33 34  1  0
 33 79  1  6
 34 80  1  0
 34 81  1  0
 34 82  1  0
 35 36  1  0
 35 39  1  0
 35 83  1  1
 36 37  1  0
 36 84  1  0
 36 85  1  0
 37 38  1  0
 37 96  1  6
 38 86  1  0
 38 87  1  0
 39 40  1  0
 39 88  1  6
 40 89  1  0
 40 90  1  0
 40 91  1  0
 41 42  1  0
 41 92  1  6
 42 93  1  0
 42 94  1  0
 42 95  1  0
M  CHG  1  37   1
M  END
>  <i_m_ct_stereo_status>  (130) 
1

>  <s_m_source_file>  (130) 
/var/tmp/pbs.5076255.sched01/tmp3foza_40/36o9al7bb4.sdf

>  <i_m_source_file_index>  (130) 
27

>  <i_lp_mmshare_version>  (130) 
48012

>  <i_f3d_flags>  (130) 
0

>  <s_epik_input>  (130) 
W0NIMl0xW0NIMl1bQ0BASF0oW0NIM10pW0NIMl1OKFtDQEBdMTIzKVtDSDJdW0NAQEhdKFtDQEhdM1tDSDNdKVtDQF00NVtDQEhdKE8yKVtDQEBIXTZbQ0BAXTcoT1tDQEBIXShbQ0BASF01W0NIM10pW0NAQEhdKFtPSF0pW0NAQEhdKFtDSDNdKVtDSDJdNClPW0NAXTgoW0NAQEhdN1tDSDNdKU9bQ0BAXTkoW09IXSlbQ0BdKFtDSDNdKShbQ0BIXTZbQ0BASF0oW09IXSlbQ0gyXTkpW0NIMl1bQ0BASF0oW0NIMl04KVtDSDNd

>  <s_epik_cmdline>  (130) 
J2VwaWtfcHl0aG9uJywgJy1waHQnLCAnMi4wJywgJy1waCcsICc3LjAnLCAnLXRuJywgJzgnLCAnLW1hJywgJzIwMCcsICctaW1hZScsICc8aW5maWxlLm1hZT4nLCAnLW9tYWUnLCAnPG91dGZpbGUubWFlPic=

>  <r_epik_Ionization_Penalty>  (130) 
0.0643772

>  <r_epik_Ionization_Penalty_Charging>  (130) 
0.0643766

>  <r_epik_Ionization_Penalty_Neutral>  (130) 
6.08739e-07

>  <r_epik_State_Penalty>  (130) 
0.0560735

>  <r_epik_Charging_Adjusted_Penalty>  (130) 
0.12045

>  <i_epik_Tot_Q>  (130) 
1

>  <i_epik_Tot_abs_Q>  (130) 
1

>  <s_lp_Force_Field>  (130) 
OPLS3e

>  <r_lp_Energy>  (130) 
212.574

>  <b_lp_Chiralities_Consistent>  (130) 
1

>  <s_lp_Variant>  (130) 
50:0-1

>  <s_i_glide_gridfile>  (130) 
pfpi4k_grid

>  <i_i_glide_lignum>  (130) 
27

>  <i_i_glide_rotatable_bonds>  (130) 
3

>  <r_i_docking_score>  (130) 
-2.45139

>  <r_i_glide_ligand_efficiency>  (130) 
-0.0583665

>  <r_i_glide_ligand_efficiency_sa>  (130) 
-0.202884

>  <r_i_glide_ligand_efficiency_ln>  (130) 
-0.517426

>  <r_i_glide_gscore>  (130) 
-2.45139

>  <r_i_glide_lipo>  (130) 
-0.360429

>  <r_i_glide_hbond>  (130) 
0

>  <r_i_glide_metal>  (130) 
-0

>  <r_i_glide_rewards>  (130) 
-0.514312

>  <r_i_glide_evdw>  (130) 
-22.8326

>  <r_i_glide_ecoul>  (130) 
-2.80797

>  <r_i_glide_erotb>  (130) 
0

>  <r_i_glide_esite>  (130) 
-0.0138284

>  <r_i_glide_emodel>  (130) 
-33.6581

>  <r_i_glide_energy>  (130) 
-25.6406

>  <r_i_glide_einternal>  (130) 
1.22082

>  <r_i_glide_intrahb_reward>  (130) 
-0.5

>  <i_i_glide_confnum>  (130) 
2

>  <i_i_glide_posenum>  (130) 
1

>  <r_i_glide_eff_state_penalty>  (130) 
0

>  <ligand_id>  (130) 
50

>  <original_smiles>  (130) 
CC1CCC23OC4C5C6C(O)CC7(O)OC8(CC(C)CC67C)OC5(OC5C(O)C(C)CC4(C5C)C(CN2C1)C3C)C8C

>  <smiles>  (130) 
[H]OC1([H])C2([H])OC34OC5(OC6(O[H])C([H])([H])C([H])(O[H])C([H])(C3([H])C3([H])OC78C([H])([H])C([H])([H])C([H])(C([H])([H])[H])C([H])([H])[N+]7([H])C([H])([H])C([H])(C8([H])C([H])([H])[H])C3(C([H])([H])C1([H])C([H])([H])[H])C2([H])C([H])([H])[H])C6(C([H])([H])[H])C([H])([H])C([H])(C([H])([H])[H])C5([H])[H])C4([H])C([H])([H])[H]

$$$$
50:0:2
     RDKit          3D

 96104  0  0  1  0  0  0  0  0999 V2000
    2.6964   -9.7842    2.0505 C   0  0  0  0  0  0  0  0  0  0  0  0
    2.7599   -8.4741    2.8594 C   0  0  2  0  0  0  0  0  0  0  0  0
    4.0246   -8.4279    3.7127 C   0  0  0  0  0  0  0  0  0  0  0  0
    4.2316   -7.0238    4.2919 C   0  0  0  0  0  0  0  0  0  0  0  0
    3.0451   -6.4375    5.1196 C   0  0  1  0  0  0  0  0  0  0  0  0
    3.0792   -5.0284    4.9865 O   0  0  0  0  0  0  0  0  0  0  0  0
    1.9504   -4.2285    5.3917 C   0  0  2  0  0  0  0  0  0  0  0  0
    2.2268   -2.7298    5.0718 C   0  0  1  0  0  0  0  0  0  0  0  0
    2.8222   -2.5111    3.6131 C   0  0  2  0  0  0  0  0  0  0  0  0
    2.9042   -3.4592    2.3871 C   0  0  1  0  0  0  0  0  0  0  0  0
    2.1247   -4.6371    2.4035 O   0  0  0  0  0  0  0  0  0  0  0  0
    2.4749   -2.4993    1.2204 C   0  0  0  0  0  0  0  0  0  0  0  0
    2.3494   -1.0872    1.8643 C   0  0  1  0  0  0  0  0  0  0  0  0
    2.6114   -0.0948    0.8886 O   0  0  0  0  0  0  0  0  0  0  0  0
    1.0249   -1.0104    2.4184 O   0  0  0  0  0  0  0  0  0  0  0  0
    0.6867   -0.4611    3.7283 C   0  0  2  0  0  0  0  0  0  0  0  0
    0.7918    1.0408    3.6702 C   0  0  0  0  0  0  0  0  0  0  0  0
    2.2868    1.4561    3.4533 C   0  0  1  0  0  0  0  0  0  0  0  0
    2.5880    2.7241    4.2662 C   0  0  0  0  0  0  0  0  0  0  0  0
    3.4332    0.3683    3.6770 C   0  0  0  0  0  0  0  0  0  0  0  0
    3.3622   -1.0976    3.0008 C   0  0  1  0  0  0  0  0  0  0  0  0
    4.8250   -1.2791    2.4684 C   0  0  0  0  0  0  0  0  0  0  0  0
    1.5507   -0.6368    4.8964 O   0  0  0  0  0  0  0  0  0  0  0  0
    0.9449   -1.8055    5.3434 C   0  0  2  0  0  0  0  0  0  0  0  0
    0.6934   -1.6171    6.7202 O   0  0  0  0  0  0  0  0  0  0  0  0
    0.0346   -2.5755    7.5227 C   0  0  2  0  0  0  0  0  0  0  0  0
    0.7330   -2.3859    8.8793 C   0  0  1  0  0  0  0  0  0  0  0  0
   -0.0196   -2.9611    9.9284 O   0  0  0  0  0  0  0  0  0  0  0  0
    2.1883   -2.8842    8.7947 C   0  0  1  0  0  0  0  0  0  0  0  0
    2.8711   -2.9616   10.1776 C   0  0  0  0  0  0  0  0  0  0  0  0
    2.3587   -4.2286    8.0383 C   0  0  0  0  0  0  0  0  0  0  0  0
    1.4295   -4.6349    6.8248 C   0  0  1  0  0  0  0  0  0  0  0  0
    0.0023   -4.0365    7.0147 C   0  0  1  0  0  0  0  0  0  0  0  0
   -0.9543   -4.8830    7.8883 C   0  0  0  0  0  0  0  0  0  0  0  0
    1.4004   -6.2151    6.7955 C   0  0  1  0  0  0  0  0  0  0  0  0
    0.6430   -6.8657    5.6125 C   0  0  0  0  0  0  0  0  0  0  0  0
    1.6237   -6.9732    4.5144 N   0  0  2  0  0  0  0  0  0  0  0  0
    1.5758   -8.2746    3.7995 C   0  0  0  0  0  0  0  0  0  0  0  0
    2.8279   -6.7708    6.6058 C   0  0  1  0  0  0  0  0  0  0  0  0
    2.9970   -8.2584    6.9846 C   0  0  0  0  0  0  0  0  0  0  0  0
   -0.2831   -1.4206    4.4398 C   0  0  1  0  0  0  0  0  0  0  0  0
   -1.5440   -0.8191    5.0595 C   0  0  0  0  0  0  0  0  0  0  0  0
    2.6937  -10.6707    2.6926 H   0  0  0  0  0  0  0  0  0  0  0  0
    3.5569   -9.8751    1.3819 H   0  0  0  0  0  0  0  0  0  0  0  0
    1.8052   -9.8292    1.4186 H   0  0  0  0  0  0  0  0  0  0  0  0
    2.7959   -7.6610    2.1271 H   0  0  0  0  0  0  0  0  0  0  0  0
    4.0017   -9.1912    4.4931 H   0  0  0  0  0  0  0  0  0  0  0  0
    4.8899   -8.6532    3.0894 H   0  0  0  0  0  0  0  0  0  0  0  0
    5.1126   -7.0078    4.9292 H   0  0  0  0  0  0  0  0  0  0  0  0
    4.4315   -6.3336    3.4698 H   0  0  0  0  0  0  0  0  0  0  0  0
    1.1436   -4.4766    4.7034 H   0  0  0  0  0  0  0  0  0  0  0  0
    3.0273   -2.4115    5.7368 H   0  0  0  0  0  0  0  0  0  0  0  0
    1.7776   -2.6695    3.4244 H   0  0  0  0  0  0  0  0  0  0  0  0
    3.9255   -3.8146    2.2380 H   0  0  0  0  0  0  0  0  0  0  0  0
    2.5844   -5.1861    3.0135 H   0  0  0  0  0  0  0  0  0  0  0  0
    3.2119   -2.5100    0.4187 H   0  0  0  0  0  0  0  0  0  0  0  0
    1.5119   -2.7124    0.7651 H   0  0  0  0  0  0  0  0  0  0  0  0
    1.9992   -0.2582    0.1930 H   0  0  0  0  0  0  0  0  0  0  0  0
    0.1882    1.4383    2.8550 H   0  0  0  0  0  0  0  0  0  0  0  0
    0.3895    1.4883    4.5757 H   0  0  0  0  0  0  0  0  0  0  0  0
    2.3595    1.7820    2.4168 H   0  0  0  0  0  0  0  0  0  0  0  0
    2.5315    2.5288    5.3390 H   0  0  0  0  0  0  0  0  0  0  0  0
    1.8743    3.5173    4.0357 H   0  0  0  0  0  0  0  0  0  0  0  0
    3.5846    3.1100    4.0457 H   0  0  0  0  0  0  0  0  0  0  0  0
    4.3269    0.8854    3.3362 H   0  0  0  0  0  0  0  0  0  0  0  0
    3.6508    0.2541    4.7392 H   0  0  0  0  0  0  0  0  0  0  0  0
    5.1765   -0.4029    1.9187 H   0  0  0  0  0  0  0  0  0  0  0  0
    5.0020   -2.0970    1.7739 H   0  0  0  0  0  0  0  0  0  0  0  0
    5.5114   -1.4277    3.3024 H   0  0  0  0  0  0  0  0  0  0  0  0
   -0.9739   -2.2379    7.5771 H   0  0  0  0  0  0  0  0  0  0  0  0
    0.7573   -1.3211    9.1227 H   0  0  0  0  0  0  0  0  0  0  0  0
    0.4022   -2.7566   10.7503 H   0  0  0  0  0  0  0  0  0  0  0  0
    2.7374   -2.1136    8.2414 H   0  0  0  0  0  0  0  0  0  0  0  0
    2.4423   -3.7639   10.7830 H   0  0  0  0  0  0  0  0  0  0  0  0
    2.7786   -2.0342   10.7460 H   0  0  0  0  0  0  0  0  0  0  0  0
    3.9358   -3.1842   10.0774 H   0  0  0  0  0  0  0  0  0  0  0  0
    3.3788   -4.1944    7.6724 H   0  0  0  0  0  0  0  0  0  0  0  0
    2.3380   -5.0283    8.7916 H   0  0  0  0  0  0  0  0  0  0  0  0
   -0.5016   -3.9980    6.0495 H   0  0  0  0  0  0  0  0  0  0  0  0
   -0.5030   -5.1747    8.8367 H   0  0  0  0  0  0  0  0  0  0  0  0
   -1.2659   -5.7944    7.3836 H   0  0  0  0  0  0  0  0  0  0  0  0
   -1.8690   -4.3354    8.1199 H   0  0  0  0  0  0  0  0  0  0  0  0
    1.0136   -6.5851    7.7441 H   0  0  0  0  0  0  0  0  0  0  0  0
    0.2765   -7.8510    5.9269 H   0  0  0  0  0  0  0  0  0  0  0  0
   -0.2433   -6.3094    5.3197 H   0  0  0  0  0  0  0  0  0  0  0  0
    0.6504   -8.3316    3.2223 H   0  0  0  0  0  0  0  0  0  0  0  0
    1.5440   -9.1179    4.4955 H   0  0  0  0  0  0  0  0  0  0  0  0
    3.5957   -6.2465    7.1692 H   0  0  0  0  0  0  0  0  0  0  0  0
    2.2821   -8.9382    6.5262 H   0  0  0  0  0  0  0  0  0  0  0  0
    2.8724   -8.3719    8.0596 H   0  0  0  0  0  0  0  0  0  0  0  0
    4.0007   -8.6200    6.7585 H   0  0  0  0  0  0  0  0  0  0  0  0
   -0.5112   -2.2623    3.7864 H   0  0  0  0  0  0  0  0  0  0  0  0
   -1.2938   -0.0225    5.7589 H   0  0  0  0  0  0  0  0  0  0  0  0
   -2.1259   -1.5667    5.5943 H   0  0  0  0  0  0  0  0  0  0  0  0
   -2.1841   -0.3843    4.2972 H   0  0  0  0  0  0  0  0  0  0  0  0
    1.2961   -6.3217    3.8020 H   0  0  0  0  0  0  0  0  0  0  0  0
  1  2  1  0
  1 43  1  0
  1 44  1  0
  1 45  1  0
  2 38  1  0
  2  3  1  0
  2 46  1  6
  3  4  1  0
  3 47  1  0
  3 48  1  0
  4  5  1  0
  4 49  1  0
  4 50  1  0
  5 37  1  0
  5 39  1  0
  5  6  1  1
  6  7  1  0
  7 32  1  0
  7  8  1  0
  7 51  1  6
  8 24  1  0
  8  9  1  0
  8 52  1  1
  9 21  1  0
  9 10  1  0
  9 53  1  1
 10 11  1  0
 10 12  1  0
 10 54  1  6
 11 55  1  0
 12 13  1  0
 12 56  1  0
 12 57  1  0
 13 21  1  0
 13 14  1  6
 13 15  1  0
 14 58  1  0
 15 16  1  0
 16 41  1  0
 16 17  1  6
 16 23  1  0
 17 18  1  0
 17 59  1  0
 17 60  1  0
 18 19  1  0
 18 20  1  0
 18 61  1  6
 19 62  1  0
 19 63  1  0
 19 64  1  0
 20 21  1  0
 20 65  1  0
 20 66  1  0
 21 22  1  6
 22 67  1  0
 22 68  1  0
 22 69  1  0
 23 24  1  0
 24 25  1  1
 24 41  1  0
 25 26  1  0
 26 33  1  0
 26 27  1  0
 26 70  1  1
 27 28  1  0
 27 29  1  0
 27 71  1  1
 28 72  1  0
 29 30  1  0
 29 31  1  0
 29 73  1  6
 30 74  1  0
 30 75  1  0
 30 76  1  0
 32 31  1  1
 31 77  1  0
 31 78  1  0
 32 33  1  0
 32 35  1  0
 33 34  1  0
 33 79  1  6
 34 80  1  0
 34 81  1  0
 34 82  1  0
 35 36  1  0
 35 39  1  0
 35 83  1  1
 36 37  1  0
 36 84  1  0
 36 85  1  0
 37 38  1  0
 37 96  1  6
 38 86  1  0
 38 87  1  0
 39 40  1  0
 39 88  1  1
 40 89  1  0
 40 90  1  0
 40 91  1  0
 41 42  1  0
 41 92  1  6
 42 93  1  0
 42 94  1  0
 42 95  1  0
M  CHG  1  37   1
M  END
>  <i_m_ct_stereo_status>  (131) 
1

>  <s_m_source_file>  (131) 
/var/tmp/pbs.5076255.sched01/tmp3foza_40/36o9al7bb4.sdf

>  <i_m_source_file_index>  (131) 
27

>  <i_lp_mmshare_version>  (131) 
48012

>  <i_f3d_flags>  (131) 
0

>  <s_epik_input>  (131) 
W0NIMl0xW0NIMl1bQ0BASF0oW0NIM10pW0NIMl1OKFtDQEBdMTIzKVtDSDJdW0NAQEhdKFtDQEhdM1tDSDNdKVtDQF00NVtDQEhdKE8yKVtDQEBIXTZbQ0BAXTcoT1tDQEBIXShbQ0BASF01W0NIM10pW0NAQEhdKFtPSF0pW0NAQEhdKFtDSDNdKVtDSDJdNClPW0NAXTgoW0NAQEhdN1tDSDNdKU9bQ0BAXTkoW09IXSlbQ0BdKFtDSDNdKShbQ0BIXTZbQ0BASF0oW09IXSlbQ0gyXTkpW0NIMl1bQ0BASF0oW0NIMl04KVtDSDNd

>  <s_epik_cmdline>  (131) 
J2VwaWtfcHl0aG9uJywgJy1waHQnLCAnMi4wJywgJy1waCcsICc3LjAnLCAnLXRuJywgJzgnLCAnLW1hJywgJzIwMCcsICctaW1hZScsICc8aW5maWxlLm1hZT4nLCAnLW9tYWUnLCAnPG91dGZpbGUubWFlPic=

>  <r_epik_Ionization_Penalty>  (131) 
0.0643772

>  <r_epik_Ionization_Penalty_Charging>  (131) 
0.0643766

>  <r_epik_Ionization_Penalty_Neutral>  (131) 
6.08739e-07

>  <r_epik_State_Penalty>  (131) 
0.0560735

>  <r_epik_Charging_Adjusted_Penalty>  (131) 
0.12045

>  <i_epik_Tot_Q>  (131) 
1

>  <i_epik_Tot_abs_Q>  (131) 
1

>  <s_lp_Force_Field>  (131) 
OPLS3e

>  <r_lp_Energy>  (131) 
212.574

>  <b_lp_Chiralities_Consistent>  (131) 
1

>  <s_lp_Variant>  (131) 
50:0-1

>  <s_i_glide_gridfile>  (131) 
pfpi4k_grid

>  <i_i_glide_lignum>  (131) 
27

>  <i_i_glide_rotatable_bonds>  (131) 
3

>  <r_i_docking_score>  (131) 
-2.42949

>  <r_i_glide_ligand_efficiency>  (131) 
-0.0578451

>  <r_i_glide_ligand_efficiency_sa>  (131) 
-0.201071

>  <r_i_glide_ligand_efficiency_ln>  (131) 
-0.512803

>  <r_i_glide_gscore>  (131) 
-2.42949

>  <r_i_glide_lipo>  (131) 
-0.101981

>  <r_i_glide_hbond>  (131) 
0

>  <r_i_glide_metal>  (131) 
-0

>  <r_i_glide_rewards>  (131) 
-0.5

>  <r_i_glide_evdw>  (131) 
-19.0581

>  <r_i_glide_ecoul>  (131) 
-5.35819

>  <r_i_glide_erotb>  (131) 
0

>  <r_i_glide_esite>  (131) 
-0.0708783

>  <r_i_glide_emodel>  (131) 
-32.8406

>  <r_i_glide_energy>  (131) 
-24.4163

>  <r_i_glide_einternal>  (131) 
0.698854

>  <r_i_glide_intrahb_reward>  (131) 
-0.5

>  <i_i_glide_confnum>  (131) 
2

>  <i_i_glide_posenum>  (131) 
12

>  <r_i_glide_eff_state_penalty>  (131) 
0

>  <ligand_id>  (131) 
50

>  <original_smiles>  (131) 
CC1CCC23OC4C5C6C(O)CC7(O)OC8(CC(C)CC67C)OC5(OC5C(O)C(C)CC4(C5C)C(CN2C1)C3C)C8C

>  <smiles>  (131) 
[H]OC1([H])C2([H])OC34OC5(OC6(O[H])C([H])([H])C([H])(O[H])C([H])(C3([H])C3([H])OC78C([H])([H])C([H])([H])C([H])(C([H])([H])[H])C([H])([H])[N+]7([H])C([H])([H])C([H])(C8([H])C([H])([H])[H])C3(C([H])([H])C1([H])C([H])([H])[H])C2([H])C([H])([H])[H])C6(C([H])([H])[H])C([H])([H])C([H])(C([H])([H])[H])C5([H])[H])C4([H])C([H])([H])[H]

$$$$
50:1:0
     RDKit          3D

 95103  0  0  1  0  0  0  0  0999 V2000
    3.6177   -0.6535    0.0114 C   0  0  0  0  0  0  0  0  0  0  0  0
    3.8846   -1.8344    0.9378 C   0  0  2  0  0  0  0  0  0  0  0  0
    5.1725   -1.6286    1.7091 C   0  0  0  0  0  0  0  0  0  0  0  0
    5.2367   -2.7089    2.7756 C   0  0  0  0  0  0  0  0  0  0  0  0
    5.0340   -4.1482    2.2070 C   0  0  1  0  0  0  0  0  0  0  0  0
    4.5339   -4.8431    3.3276 O   0  0  0  0  0  0  0  0  0  0  0  0
    4.0329   -6.1895    3.1708 C   0  0  2  0  0  0  0  0  0  0  0  0
    3.3815   -6.7005    4.4829 C   0  0  1  0  0  0  0  0  0  0  0  0
    2.4376   -5.6165    5.1684 C   0  0  2  0  0  0  0  0  0  0  0  0
    1.8809   -4.2677    4.6319 C   0  0  1  0  0  0  0  0  0  0  0  0
    1.8266   -4.0914    3.2276 O   0  0  0  0  0  0  0  0  0  0  0  0
    0.4084   -4.3337    5.1605 C   0  0  0  0  0  0  0  0  0  0  0  0
    0.3007   -5.5968    6.0813 C   0  0  1  0  0  0  0  0  0  0  0  0
   -0.6649   -5.3918    7.0889 O   0  0  0  0  0  0  0  0  0  0  0  0
    0.0262   -6.7155    5.2110 O   0  0  0  0  0  0  0  0  0  0  0  0
    0.7281   -8.0162    5.2301 C   0  0  2  0  0  0  0  0  0  0  0  0
    0.2347   -8.8107    6.4106 C   0  0  0  0  0  0  0  0  0  0  0  0
    0.6495   -8.0832    7.7369 C   0  0  1  0  0  0  0  0  0  0  0  0
    1.0300   -9.1259    8.7909 C   0  0  0  0  0  0  0  0  0  0  0  0
    1.7732   -6.9567    7.6871 C   0  0  0  0  0  0  0  0  0  0  0  0
    1.7237   -5.7441    6.6242 C   0  0  1  0  0  0  0  0  0  0  0  0
    2.1257   -4.5291    7.5134 C   0  0  0  0  0  0  0  0  0  0  0  0
    2.1461   -8.1388    5.5637 O   0  0  0  0  0  0  0  0  0  0  0  0
    2.6132   -8.0939    4.2505 C   0  0  2  0  0  0  0  0  0  0  0  0
    3.4888   -9.1918    4.0876 O   0  0  0  0  0  0  0  0  0  0  0  0
    4.1193   -9.4922    2.8558 C   0  0  2  0  0  0  0  0  0  0  0  0
    5.4755  -10.0501    3.3217 C   0  0  1  0  0  0  0  0  0  0  0  0
    6.1478  -10.7396    2.2821 O   0  0  0  0  0  0  0  0  0  0  0  0
    6.3242   -8.9301    3.9612 C   0  0  1  0  0  0  0  0  0  0  0  0
    7.7753   -9.3704    4.2325 C   0  0  0  0  0  0  0  0  0  0  0  0
    6.3308   -7.6032    3.1548 C   0  0  0  0  0  0  0  0  0  0  0  0
    5.0471   -7.1075    2.3803 C   0  0  1  0  0  0  0  0  0  0  0  0
    4.2425   -8.3299    1.8352 C   0  0  1  0  0  0  0  0  0  0  0  0
    4.7569   -8.8668    0.4927 C   0  0  0  0  0  0  0  0  0  0  0  0
    5.5835   -6.1650    1.2338 C   0  0  1  0  0  0  0  0  0  0  0  0
    4.4838   -5.5113    0.3584 C   0  0  0  0  0  0  0  0  0  0  0  0
    4.0986   -4.2889    1.0857 N   0  0  0  0  0  0  0  0  0  0  0  0
    3.9601   -3.1690    0.1806 C   0  0  0  0  0  0  0  0  0  0  0  0
    6.2919   -4.9268    1.8243 C   0  0  1  0  0  0  0  0  0  0  0  0
    7.2382   -4.2179    0.8262 C   0  0  0  0  0  0  0  0  0  0  0  0
    1.1400   -8.4271    3.8081 C   0  0  1  0  0  0  0  0  0  0  0  0
    0.7703   -9.8417    3.3413 C   0  0  0  0  0  0  0  0  0  0  0  0
    4.4207   -0.5071   -0.7164 H   0  0  0  0  0  0  0  0  0  0  0  0
    3.5225    0.2591    0.5915 H   0  0  0  0  0  0  0  0  0  0  0  0
    2.6668   -0.8036   -0.5070 H   0  0  0  0  0  0  0  0  0  0  0  0
    3.0355   -1.8677    1.6270 H   0  0  0  0  0  0  0  0  0  0  0  0
    6.0328   -1.6529    1.0341 H   0  0  0  0  0  0  0  0  0  0  0  0
    5.1837   -0.6439    2.1878 H   0  0  0  0  0  0  0  0  0  0  0  0
    6.1601   -2.6459    3.3296 H   0  0  0  0  0  0  0  0  0  0  0  0
    4.4412   -2.5204    3.4995 H   0  0  0  0  0  0  0  0  0  0  0  0
    3.1600   -6.0966    2.5260 H   0  0  0  0  0  0  0  0  0  0  0  0
    4.1882   -6.8474    5.2032 H   0  0  0  0  0  0  0  0  0  0  0  0
    1.8144   -5.9854    4.3760 H   0  0  0  0  0  0  0  0  0  0  0  0
    2.4258   -3.4096    5.0386 H   0  0  0  0  0  0  0  0  0  0  0  0
    2.7250   -4.0835    2.9090 H   0  0  0  0  0  0  0  0  0  0  0  0
    0.1477   -3.4343    5.7158 H   0  0  0  0  0  0  0  0  0  0  0  0
   -0.3056   -4.4525    4.3534 H   0  0  0  0  0  0  0  0  0  0  0  0
   -0.5503   -6.0835    7.7347 H   0  0  0  0  0  0  0  0  0  0  0  0
   -0.8421   -8.9502    6.3578 H   0  0  0  0  0  0  0  0  0  0  0  0
    0.6162   -9.8296    6.3903 H   0  0  0  0  0  0  0  0  0  0  0  0
   -0.2554   -7.6231    8.1263 H   0  0  0  0  0  0  0  0  0  0  0  0
    1.9156   -9.6897    8.4956 H   0  0  0  0  0  0  0  0  0  0  0  0
    0.2198   -9.8442    8.8991 H   0  0  0  0  0  0  0  0  0  0  0  0
    1.2127   -8.6721    9.7624 H   0  0  0  0  0  0  0  0  0  0  0  0
    1.7813   -6.5565    8.6957 H   0  0  0  0  0  0  0  0  0  0  0  0
    2.7604   -7.4203    7.6408 H   0  0  0  0  0  0  0  0  0  0  0  0
    1.5594   -4.4976    8.4423 H   0  0  0  0  0  0  0  0  0  0  0  0
    1.9786   -3.5424    7.0869 H   0  0  0  0  0  0  0  0  0  0  0  0
    3.1795   -4.6050    7.7770 H   0  0  0  0  0  0  0  0  0  0  0  0
    3.5425  -10.2988    2.3981 H   0  0  0  0  0  0  0  0  0  0  0  0
    5.2921  -10.8113    4.0827 H   0  0  0  0  0  0  0  0  0  0  0  0
    5.5259  -11.3292    1.8704 H   0  0  0  0  0  0  0  0  0  0  0  0
    5.8887   -8.7350    4.9506 H   0  0  0  0  0  0  0  0  0  0  0  0
    8.3112   -9.5012    3.2892 H   0  0  0  0  0  0  0  0  0  0  0  0
    7.8388  -10.3114    4.7774 H   0  0  0  0  0  0  0  0  0  0  0  0
    8.3210   -8.6138    4.7983 H   0  0  0  0  0  0  0  0  0  0  0  0
    6.5070   -6.8662    3.9275 H   0  0  0  0  0  0  0  0  0  0  0  0
    7.2223   -7.5773    2.5046 H   0  0  0  0  0  0  0  0  0  0  0  0
    3.2225   -8.0208    1.6115 H   0  0  0  0  0  0  0  0  0  0  0  0
    5.8321   -9.0508    0.5157 H   0  0  0  0  0  0  0  0  0  0  0  0
    4.5620   -8.1837   -0.3241 H   0  0  0  0  0  0  0  0  0  0  0  0
    4.2578   -9.8068    0.2572 H   0  0  0  0  0  0  0  0  0  0  0  0
    6.2931   -6.7166    0.6189 H   0  0  0  0  0  0  0  0  0  0  0  0
    4.9013   -5.2756   -0.6295 H   0  0  0  0  0  0  0  0  0  0  0  0
    3.6183   -6.1550    0.1900 H   0  0  0  0  0  0  0  0  0  0  0  0
    3.0554   -3.3031   -0.4188 H   0  0  0  0  0  0  0  0  0  0  0  0
    4.8011   -3.1213   -0.5194 H   0  0  0  0  0  0  0  0  0  0  0  0
    6.8782   -5.1297    2.7196 H   0  0  0  0  0  0  0  0  0  0  0  0
    6.7510   -3.9198   -0.0993 H   0  0  0  0  0  0  0  0  0  0  0  0
    8.0653   -4.8694    0.5443 H   0  0  0  0  0  0  0  0  0  0  0  0
    7.6846   -3.3296    1.2701 H   0  0  0  0  0  0  0  0  0  0  0  0
    0.8057   -7.6677    3.1087 H   0  0  0  0  0  0  0  0  0  0  0  0
    1.1635  -10.6031    4.0174 H   0  0  0  0  0  0  0  0  0  0  0  0
    1.1601  -10.0552    2.3476 H   0  0  0  0  0  0  0  0  0  0  0  0
   -0.3106   -9.9829    3.3048 H   0  0  0  0  0  0  0  0  0  0  0  0
  1  2  1  0
  1 43  1  0
  1 44  1  0
  1 45  1  0
  2 38  1  0
  2  3  1  0
  2 46  1  1
  3  4  1  0
  3 47  1  0
  3 48  1  0
  4  5  1  0
  4 49  1  0
  4 50  1  0
  5 37  1  0
  5 39  1  0
  5  6  1  1
  6  7  1  0
  7 32  1  0
  7  8  1  0
  7 51  1  6
  8 24  1  0
  8  9  1  0
  8 52  1  1
  9 21  1  0
  9 10  1  0
  9 53  1  1
 10 11  1  0
 10 12  1  0
 10 54  1  1
 11 55  1  0
 12 13  1  0
 12 56  1  0
 12 57  1  0
 13 21  1  0
 13 14  1  1
 13 15  1  0
 14 58  1  0
 15 16  1  0
 16 41  1  0
 16 17  1  1
 16 23  1  0
 17 18  1  0
 17 59  1  0
 17 60  1  0
 18 19  1  0
 18 20  1  0
 18 61  1  1
 19 62  1  0
 19 63  1  0
 19 64  1  0
 20 21  1  0
 20 65  1  0
 20 66  1  0
 21 22  1  1
 22 67  1  0
 22 68  1  0
 22 69  1  0
 23 24  1  0
 24 25  1  1
 24 41  1  0
 25 26  1  0
 26 33  1  0
 26 27  1  0
 26 70  1  6
 27 28  1  0
 27 29  1  0
 27 71  1  1
 28 72  1  0
 29 30  1  0
 29 31  1  0
 29 73  1  1
 30 74  1  0
 30 75  1  0
 30 76  1  0
 32 31  1  1
 31 77  1  0
 31 78  1  0
 32 33  1  0
 32 35  1  0
 33 34  1  0
 33 79  1  6
 34 80  1  0
 34 81  1  0
 34 82  1  0
 35 36  1  0
 35 39  1  0
 35 83  1  6
 36 37  1  0
 36 84  1  0
 36 85  1  0
 37 38  1  0
 38 86  1  0
 38 87  1  0
 39 40  1  0
 39 88  1  1
 40 89  1  0
 40 90  1  0
 40 91  1  0
 41 42  1  0
 41 92  1  6
 42 93  1  0
 42 94  1  0
 42 95  1  0
M  END
>  <i_m_ct_stereo_status>  (132) 
1

>  <s_m_source_file>  (132) 
/var/tmp/pbs.5076255.sched01/tmp3foza_40/36o9al7bb4.sdf

>  <i_m_source_file_index>  (132) 
28

>  <i_lp_mmshare_version>  (132) 
48012

>  <i_f3d_flags>  (132) 
0

>  <s_epik_input>  (132) 
W0NIMl0xW0NIMl1bQ0BASF0oW0NIM10pW0NIMl1OKFtDQEBdMTIzKVtDSDJdW0NAQEhdKFtDQEhdM1tDSDNdKVtDQF00NVtDQEhdKE8yKVtDQEBIXTZbQ0BAXTcoT1tDQEBIXShbQ0BASF01W0NIM10pW0NAQEhdKFtPSF0pW0NAQEhdKFtDSDNdKVtDSDJdNClPW0NAXTgoW0NAQEhdN1tDSDNdKU9bQ0BAXTkoW09IXSlbQ0BdKFtDSDNdKShbQ0BIXTZbQ0BASF0oW09IXSlbQ0gyXTkpW0NIMl1bQ0BASF0oW0NIMl04KVtDSDNd

>  <s_epik_cmdline>  (132) 
J2VwaWtfcHl0aG9uJywgJy1waHQnLCAnMi4wJywgJy1waCcsICc3LjAnLCAnLXRuJywgJzgnLCAnLW1hJywgJzIwMCcsICctaW1hZScsICc8aW5maWxlLm1hZT4nLCAnLW9tYWUnLCAnPG91dGZpbGUubWFlPic=

>  <r_epik_Ionization_Penalty>  (132) 
1.34697

>  <r_epik_Ionization_Penalty_Charging>  (132) 
0

>  <r_epik_Ionization_Penalty_Neutral>  (132) 
1.34697

>  <r_epik_State_Penalty>  (132) 
1.4247

>  <r_epik_Charging_Adjusted_Penalty>  (132) 
1.4247

>  <i_epik_Tot_Q>  (132) 
0

>  <i_epik_Tot_abs_Q>  (132) 
0

>  <s_lp_Force_Field>  (132) 
OPLS3e

>  <r_lp_Energy>  (132) 
218.885

>  <b_lp_Chiralities_Consistent>  (132) 
1

>  <s_lp_Variant>  (132) 
50:0-2

>  <s_i_glide_gridfile>  (132) 
pfpi4k_grid

>  <i_i_glide_lignum>  (132) 
28

>  <i_i_glide_rotatable_bonds>  (132) 
3

>  <r_i_docking_score>  (132) 
-2.10932

>  <r_i_glide_ligand_efficiency>  (132) 
-0.0502219

>  <r_i_glide_ligand_efficiency_sa>  (132) 
-0.174573

>  <r_i_glide_ligand_efficiency_ln>  (132) 
-0.445223

>  <r_i_glide_gscore>  (132) 
-2.10932

>  <r_i_glide_lipo>  (132) 
-0.520487

>  <r_i_glide_hbond>  (132) 
-0.0701521

>  <r_i_glide_metal>  (132) 
-0

>  <r_i_glide_rewards>  (132) 
-0.040716

>  <r_i_glide_evdw>  (132) 
-23.6287

>  <r_i_glide_ecoul>  (132) 
-1.79819

>  <r_i_glide_erotb>  (132) 
0

>  <r_i_glide_esite>  (132) 
-0.0267983

>  <r_i_glide_emodel>  (132) 
-27.6923

>  <r_i_glide_energy>  (132) 
-25.4269

>  <r_i_glide_einternal>  (132) 
0.877033

>  <r_i_glide_intrahb_reward>  (132) 
-0

>  <i_i_glide_confnum>  (132) 
1

>  <i_i_glide_posenum>  (132) 
1

>  <r_i_glide_eff_state_penalty>  (132) 
0

>  <ligand_id>  (132) 
50

>  <original_smiles>  (132) 
CC1CCC23OC4C5C6C(O)CC7(O)OC8(CC(C)CC67C)OC5(OC5C(O)C(C)CC4(C5C)C(CN2C1)C3C)C8C

>  <smiles>  (132) 
[H]OC1([H])C2([H])OC34OC5(OC6(O[H])C([H])([H])C([H])(O[H])C([H])(C3([H])C3([H])OC78N(C([H])([H])C([H])(C([H])([H])[H])C([H])([H])C7([H])[H])C([H])([H])C([H])(C8([H])C([H])([H])[H])C3(C([H])([H])C1([H])C([H])([H])[H])C2([H])C([H])([H])[H])C6(C([H])([H])[H])C([H])([H])C([H])(C([H])([H])[H])C5([H])[H])C4([H])C([H])([H])[H]

$$$$
50:1:1
     RDKit          3D

 95103  0  0  1  0  0  0  0  0999 V2000
   -1.8139   -8.7932    2.8359 C   0  0  0  0  0  0  0  0  0  0  0  0
   -0.3996   -8.2386    3.0480 C   0  0  2  0  0  0  0  0  0  0  0  0
    0.6363   -9.3608    3.1677 C   0  0  0  0  0  0  0  0  0  0  0  0
    2.0438   -8.7421    3.1552 C   0  0  0  0  0  0  0  0  0  0  0  0
    2.1783   -7.5283    4.1325 C   0  0  1  0  0  0  0  0  0  0  0  0
    3.1898   -6.7345    3.5213 O   0  0  0  0  0  0  0  0  0  0  0  0
    3.4696   -5.4111    4.0303 C   0  0  2  0  0  0  0  0  0  0  0  0
    4.4440   -4.6227    3.1000 C   0  0  1  0  0  0  0  0  0  0  0  0
    4.0226   -4.7202    1.5789 C   0  0  2  0  0  0  0  0  0  0  0  0
    2.7346   -5.2600    0.8875 C   0  0  1  0  0  0  0  0  0  0  0  0
    1.5466   -5.4396    1.6443 O   0  0  0  0  0  0  0  0  0  0  0  0
    2.5352   -4.1336   -0.1979 C   0  0  0  0  0  0  0  0  0  0  0  0
    3.7939   -3.2109   -0.1931 C   0  0  1  0  0  0  0  0  0  0  0  0
    4.0370   -2.6615   -1.4998 O   0  0  0  0  0  0  0  0  0  0  0  0
    3.5269   -2.2565    0.8433 O   0  0  0  0  0  0  0  0  0  0  0  0
    4.5034   -1.8295    1.8797 C   0  0  2  0  0  0  0  0  0  0  0  0
    5.5604   -0.9636    1.2371 C   0  0  0  0  0  0  0  0  0  0  0  0
    6.4004   -1.8157    0.2328 C   0  0  1  0  0  0  0  0  0  0  0  0
    7.8658   -1.3713    0.2879 C   0  0  0  0  0  0  0  0  0  0  0  0
    6.3122   -3.3990    0.3019 C   0  0  0  0  0  0  0  0  0  0  0  0
    4.8842   -4.1473    0.3237 C   0  0  1  0  0  0  0  0  0  0  0  0
    5.1376   -5.3052   -0.6458 C   0  0  0  0  0  0  0  0  0  0  0  0
    5.4324   -2.7700    2.5021 O   0  0  0  0  0  0  0  0  0  0  0  0
    4.5878   -3.0958    3.5706 C   0  0  2  0  0  0  0  0  0  0  0  0
    5.3765   -2.9565    4.7587 O   0  0  0  0  0  0  0  0  0  0  0  0
    4.8541   -3.1659    6.0492 C   0  0  2  0  0  0  0  0  0  0  0  0
    6.0777   -3.7707    6.7669 C   0  0  1  0  0  0  0  0  0  0  0  0
    5.9451   -3.7500    8.1760 O   0  0  0  0  0  0  0  0  0  0  0  0
    6.3799   -5.1764    6.2140 C   0  0  1  0  0  0  0  0  0  0  0  0
    7.4239   -5.9194    7.0799 C   0  0  0  0  0  0  0  0  0  0  0  0
    5.1201   -6.0690    6.0557 C   0  0  0  0  0  0  0  0  0  0  0  0
    3.7455   -5.4620    5.5761 C   0  0  1  0  0  0  0  0  0  0  0  0
    3.5700   -4.0248    6.1629 C   0  0  1  0  0  0  0  0  0  0  0  0
    3.0216   -3.9727    7.6010 C   0  0  0  0  0  0  0  0  0  0  0  0
    2.6542   -6.4670    6.1230 C   0  0  1  0  0  0  0  0  0  0  0  0
    1.1894   -6.1087    5.7322 C   0  0  0  0  0  0  0  0  0  0  0  0
    1.0127   -6.7095    4.4037 N   0  0  0  0  0  0  0  0  0  0  0  0
   -0.2991   -7.3622    4.3052 C   0  0  0  0  0  0  0  0  0  0  0  0
    2.8133   -7.8568    5.4818 C   0  0  1  0  0  0  0  0  0  0  0  0
    2.1049   -8.9990    6.2500 C   0  0  0  0  0  0  0  0  0  0  0  0
    3.8080   -1.7866    3.2326 C   0  0  1  0  0  0  0  0  0  0  0  0
    3.9558   -0.5299    4.0804 C   0  0  0  0  0  0  0  0  0  0  0  0
   -2.1394   -9.3911    3.6814 H   0  0  0  0  0  0  0  0  0  0  0  0
   -1.8791   -9.4254    1.9490 H   0  0  0  0  0  0  0  0  0  0  0  0
   -2.5383   -7.9905    2.7309 H   0  0  0  0  0  0  0  0  0  0  0  0
   -0.1926   -7.6353    2.1661 H   0  0  0  0  0  0  0  0  0  0  0  0
    0.4774   -9.9357    4.0823 H   0  0  0  0  0  0  0  0  0  0  0  0
    0.5468  -10.0564    2.3300 H   0  0  0  0  0  0  0  0  0  0  0  0
    2.8236   -9.4812    3.3585 H   0  0  0  0  0  0  0  0  0  0  0  0
    2.2226   -8.3659    2.1473 H   0  0  0  0  0  0  0  0  0  0  0  0
    2.5506   -4.8418    3.9135 H   0  0  0  0  0  0  0  0  0  0  0  0
    5.4055   -5.1277    3.1564 H   0  0  0  0  0  0  0  0  0  0  0  0
    3.3136   -4.0051    1.9394 H   0  0  0  0  0  0  0  0  0  0  0  0
    2.8794   -6.2397    0.4339 H   0  0  0  0  0  0  0  0  0  0  0  0
    1.4893   -4.7208    2.2378 H   0  0  0  0  0  0  0  0  0  0  0  0
    2.3915   -4.5931   -1.1635 H   0  0  0  0  0  0  0  0  0  0  0  0
    1.7051   -3.4576   -0.0624 H   0  0  0  0  0  0  0  0  0  0  0  0
    3.2655   -2.1922   -1.7431 H   0  0  0  0  0  0  0  0  0  0  0  0
    5.1087   -0.1295    0.6957 H   0  0  0  0  0  0  0  0  0  0  0  0
    6.2007   -0.5041    1.9959 H   0  0  0  0  0  0  0  0  0  0  0  0
    6.0655   -1.5232   -0.7616 H   0  0  0  0  0  0  0  0  0  0  0  0
    8.2918   -1.5209    1.2666 H   0  0  0  0  0  0  0  0  0  0  0  0
    7.9520   -0.3021    0.1409 H   0  0  0  0  0  0  0  0  0  0  0  0
    8.4947   -1.8759   -0.4447 H   0  0  0  0  0  0  0  0  0  0  0  0
    6.8833   -3.7168   -0.5678 H   0  0  0  0  0  0  0  0  0  0  0  0
    6.9402   -3.7787    1.1109 H   0  0  0  0  0  0  0  0  0  0  0  0
    5.4534   -4.8923   -1.5876 H   0  0  0  0  0  0  0  0  0  0  0  0
    4.3117   -5.9195   -0.9356 H   0  0  0  0  0  0  0  0  0  0  0  0
    5.8719   -5.9950   -0.2455 H   0  0  0  0  0  0  0  0  0  0  0  0
    4.6572   -2.1751    6.4596 H   0  0  0  0  0  0  0  0  0  0  0  0
    6.9455   -3.1406    6.5722 H   0  0  0  0  0  0  0  0  0  0  0  0
    5.1987   -4.2558    8.4117 H   0  0  0  0  0  0  0  0  0  0  0  0
    6.8613   -5.0394    5.2402 H   0  0  0  0  0  0  0  0  0  0  0  0
    7.0073   -6.1820    8.0550 H   0  0  0  0  0  0  0  0  0  0  0  0
    8.3205   -5.3289    7.2632 H   0  0  0  0  0  0  0  0  0  0  0  0
    7.7298   -6.8558    6.6119 H   0  0  0  0  0  0  0  0  0  0  0  0
    5.4323   -6.7396    5.2539 H   0  0  0  0  0  0  0  0  0  0  0  0
    5.0044   -6.7153    6.9328 H   0  0  0  0  0  0  0  0  0  0  0  0
    2.8158   -3.5002    5.5795 H   0  0  0  0  0  0  0  0  0  0  0  0
    3.5541   -4.6371    8.2823 H   0  0  0  0  0  0  0  0  0  0  0  0
    1.9705   -4.2507    7.6442 H   0  0  0  0  0  0  0  0  0  0  0  0
    3.0901   -2.9598    8.0038 H   0  0  0  0  0  0  0  0  0  0  0  0
    2.7417   -6.5643    7.2050 H   0  0  0  0  0  0  0  0  0  0  0  0
    0.5027   -6.5393    6.4665 H   0  0  0  0  0  0  0  0  0  0  0  0
    1.0006   -5.0377    5.6974 H   0  0  0  0  0  0  0  0  0  0  0  0
   -1.0722   -6.5989    4.2794 H   0  0  0  0  0  0  0  0  0  0  0  0
   -0.4984   -7.9799    5.1803 H   0  0  0  0  0  0  0  0  0  0  0  0
    3.8423   -8.1740    5.3280 H   0  0  0  0  0  0  0  0  0  0  0  0
    1.0458   -8.8269    6.4152 H   0  0  0  0  0  0  0  0  0  0  0  0
    2.5558   -9.1384    7.2306 H   0  0  0  0  0  0  0  0  0  0  0  0
    2.2037   -9.9528    5.7338 H   0  0  0  0  0  0  0  0  0  0  0  0
    2.7580   -2.0510    3.0886 H   0  0  0  0  0  0  0  0  0  0  0  0
    5.0105   -0.3098    4.2633 H   0  0  0  0  0  0  0  0  0  0  0  0
    3.4729   -0.6322    5.0504 H   0  0  0  0  0  0  0  0  0  0  0  0
    3.5300    0.3449    3.5891 H   0  0  0  0  0  0  0  0  0  0  0  0
  1  2  1  0
  1 43  1  0
  1 44  1  0
  1 45  1  0
  2 38  1  0
  2  3  1  0
  2 46  1  6
  3  4  1  0
  3 47  1  0
  3 48  1  0
  4  5  1  0
  4 49  1  0
  4 50  1  0
  5 37  1  0
  5 39  1  0
  5  6  1  6
  6  7  1  0
  7 32  1  0
  7  8  1  0
  7 51  1  1
  8 24  1  0
  8  9  1  0
  8 52  1  6
  9 21  1  0
  9 10  1  0
  9 53  1  6
 10 11  1  0
 10 12  1  0
 10 54  1  6
 11 55  1  0
 12 13  1  0
 12 56  1  0
 12 57  1  0
 13 21  1  0
 13 14  1  6
 13 15  1  0
 14 58  1  0
 15 16  1  0
 16 41  1  0
 16 17  1  6
 16 23  1  0
 17 18  1  0
 17 59  1  0
 17 60  1  0
 18 19  1  0
 18 20  1  0
 18 61  1  6
 19 62  1  0
 19 63  1  0
 19 64  1  0
 20 21  1  0
 20 65  1  0
 20 66  1  0
 21 22  1  6
 22 67  1  0
 22 68  1  0
 22 69  1  0
 23 24  1  0
 24 25  1  1
 24 41  1  0
 25 26  1  0
 26 33  1  0
 26 27  1  0
 26 70  1  1
 27 28  1  0
 27 29  1  0
 27 71  1  1
 28 72  1  0
 29 30  1  0
 29 31  1  0
 29 73  1  6
 30 74  1  0
 30 75  1  0
 30 76  1  0
 32 31  1  6
 31 77  1  0
 31 78  1  0
 32 33  1  0
 32 35  1  0
 33 34  1  0
 33 79  1  6
 34 80  1  0
 34 81  1  0
 34 82  1  0
 35 36  1  0
 35 39  1  0
 35 83  1  1
 36 37  1  0
 36 84  1  0
 36 85  1  0
 37 38  1  0
 38 86  1  0
 38 87  1  0
 39 40  1  0
 39 88  1  6
 40 89  1  0
 40 90  1  0
 40 91  1  0
 41 42  1  0
 41 92  1  6
 42 93  1  0
 42 94  1  0
 42 95  1  0
M  END
>  <i_m_ct_stereo_status>  (133) 
1

>  <s_m_source_file>  (133) 
/var/tmp/pbs.5076255.sched01/tmp3foza_40/36o9al7bb4.sdf

>  <i_m_source_file_index>  (133) 
28

>  <i_lp_mmshare_version>  (133) 
48012

>  <i_f3d_flags>  (133) 
0

>  <s_epik_input>  (133) 
W0NIMl0xW0NIMl1bQ0BASF0oW0NIM10pW0NIMl1OKFtDQEBdMTIzKVtDSDJdW0NAQEhdKFtDQEhdM1tDSDNdKVtDQF00NVtDQEhdKE8yKVtDQEBIXTZbQ0BAXTcoT1tDQEBIXShbQ0BASF01W0NIM10pW0NAQEhdKFtPSF0pW0NAQEhdKFtDSDNdKVtDSDJdNClPW0NAXTgoW0NAQEhdN1tDSDNdKU9bQ0BAXTkoW09IXSlbQ0BdKFtDSDNdKShbQ0BIXTZbQ0BASF0oW09IXSlbQ0gyXTkpW0NIMl1bQ0BASF0oW0NIMl04KVtDSDNd

>  <s_epik_cmdline>  (133) 
J2VwaWtfcHl0aG9uJywgJy1waHQnLCAnMi4wJywgJy1waCcsICc3LjAnLCAnLXRuJywgJzgnLCAnLW1hJywgJzIwMCcsICctaW1hZScsICc8aW5maWxlLm1hZT4nLCAnLW9tYWUnLCAnPG91dGZpbGUubWFlPic=

>  <r_epik_Ionization_Penalty>  (133) 
1.34697

>  <r_epik_Ionization_Penalty_Charging>  (133) 
0

>  <r_epik_Ionization_Penalty_Neutral>  (133) 
1.34697

>  <r_epik_State_Penalty>  (133) 
1.4247

>  <r_epik_Charging_Adjusted_Penalty>  (133) 
1.4247

>  <i_epik_Tot_Q>  (133) 
0

>  <i_epik_Tot_abs_Q>  (133) 
0

>  <s_lp_Force_Field>  (133) 
OPLS3e

>  <r_lp_Energy>  (133) 
218.885

>  <b_lp_Chiralities_Consistent>  (133) 
1

>  <s_lp_Variant>  (133) 
50:0-2

>  <s_i_glide_gridfile>  (133) 
pfpi4k_grid

>  <i_i_glide_lignum>  (133) 
28

>  <i_i_glide_rotatable_bonds>  (133) 
3

>  <r_i_docking_score>  (133) 
-2.03804

>  <r_i_glide_ligand_efficiency>  (133) 
-0.0485248

>  <r_i_glide_ligand_efficiency_sa>  (133) 
-0.168673

>  <r_i_glide_ligand_efficiency_ln>  (133) 
-0.430178

>  <r_i_glide_gscore>  (133) 
-2.03804

>  <r_i_glide_lipo>  (133) 
-0.311715

>  <r_i_glide_hbond>  (133) 
0

>  <r_i_glide_metal>  (133) 
-0

>  <r_i_glide_rewards>  (133) 
-0.0881165

>  <r_i_glide_evdw>  (133) 
-20.2053

>  <r_i_glide_ecoul>  (133) 
-4.17642

>  <r_i_glide_erotb>  (133) 
0

>  <r_i_glide_esite>  (133) 
-0.00148291

>  <r_i_glide_emodel>  (133) 
-25.9261

>  <r_i_glide_energy>  (133) 
-24.3817

>  <r_i_glide_einternal>  (133) 
0.337303

>  <r_i_glide_intrahb_reward>  (133) 
-0

>  <i_i_glide_confnum>  (133) 
1

>  <i_i_glide_posenum>  (133) 
15

>  <r_i_glide_eff_state_penalty>  (133) 
0

>  <ligand_id>  (133) 
50

>  <original_smiles>  (133) 
CC1CCC23OC4C5C6C(O)CC7(O)OC8(CC(C)CC67C)OC5(OC5C(O)C(C)CC4(C5C)C(CN2C1)C3C)C8C

>  <smiles>  (133) 
[H]OC1([H])C2([H])OC34OC5(OC6(O[H])C([H])([H])C([H])(O[H])C([H])(C3([H])C3([H])OC78N(C([H])([H])C([H])(C([H])([H])[H])C([H])([H])C7([H])[H])C([H])([H])C([H])(C8([H])C([H])([H])[H])C3(C([H])([H])C1([H])C([H])([H])[H])C2([H])C([H])([H])[H])C6(C([H])([H])[H])C([H])([H])C([H])(C([H])([H])[H])C5([H])[H])C4([H])C([H])([H])[H]

$$$$
50:1:2
     RDKit          3D

 95103  0  0  1  0  0  0  0  0999 V2000
    3.5139   -1.7089   -0.9103 C   0  0  0  0  0  0  0  0  0  0  0  0
    3.8881   -2.6648    0.2300 C   0  0  2  0  0  0  0  0  0  0  0  0
    5.0947   -2.1526    1.0244 C   0  0  0  0  0  0  0  0  0  0  0  0
    5.2948   -3.0283    2.2640 C   0  0  0  0  0  0  0  0  0  0  0  0
    5.2655   -4.5569    1.9449 C   0  0  1  0  0  0  0  0  0  0  0  0
    4.7720   -5.1242    3.1451 O   0  0  0  0  0  0  0  0  0  0  0  0
    4.4451   -6.5361    3.1914 C   0  0  2  0  0  0  0  0  0  0  0  0
    3.7653   -6.9257    4.5328 C   0  0  1  0  0  0  0  0  0  0  0  0
    2.6353   -5.8936    4.9669 C   0  0  2  0  0  0  0  0  0  0  0  0
    1.9492   -4.7397    4.1770 C   0  0  1  0  0  0  0  0  0  0  0  0
    1.9847   -4.7664    2.7606 O   0  0  0  0  0  0  0  0  0  0  0  0
    0.4617   -4.9506    4.6139 C   0  0  0  0  0  0  0  0  0  0  0  0
    0.4573   -6.0275    5.7420 C   0  0  1  0  0  0  0  0  0  0  0  0
   -0.5916   -5.7894    6.6528 O   0  0  0  0  0  0  0  0  0  0  0  0
    0.4082   -7.3008    5.0604 O   0  0  0  0  0  0  0  0  0  0  0  0
    1.2607   -8.4692    5.3495 C   0  0  2  0  0  0  0  0  0  0  0  0
    0.7619   -9.1162    6.6154 C   0  0  0  0  0  0  0  0  0  0  0  0
    0.9819   -8.1443    7.8226 C   0  0  1  0  0  0  0  0  0  0  0  0
    1.3801   -8.9593    9.0633 C   0  0  0  0  0  0  0  0  0  0  0  0
    1.9581   -6.8932    7.6433 C   0  0  0  0  0  0  0  0  0  0  0  0
    1.8344   -5.8825    6.3840 C   0  0  1  0  0  0  0  0  0  0  0  0
    2.0004   -4.4928    7.0728 C   0  0  0  0  0  0  0  0  0  0  0  0
    2.6509   -8.3379    5.7803 O   0  0  0  0  0  0  0  0  0  0  0  0
    3.2102   -8.4333    4.5044 C   0  0  2  0  0  0  0  0  0  0  0  0
    4.2408   -9.3951    4.5777 O   0  0  0  0  0  0  0  0  0  0  0  0
    5.0027   -9.8016    3.4550 C   0  0  2  0  0  0  0  0  0  0  0  0
    6.3751  -10.0708    4.0964 C   0  0  1  0  0  0  0  0  0  0  0  0
    7.2188  -10.8205    3.2464 O   0  0  0  0  0  0  0  0  0  0  0  0
    7.0137   -8.7515    4.5738 C   0  0  1  0  0  0  0  0  0  0  0  0
    8.4897   -8.9292    4.9907 C   0  0  0  0  0  0  0  0  0  0  0  0
    6.9000   -7.5832    3.5550 C   0  0  0  0  0  0  0  0  0  0  0  0
    5.6288   -7.4165    2.6335 C   0  0  1  0  0  0  0  0  0  0  0  0
    5.0590   -8.8205    2.2577 C   0  0  1  0  0  0  0  0  0  0  0  0
    5.7509   -9.4870    1.0562 C   0  0  0  0  0  0  0  0  0  0  0  0
    6.1288   -6.6135    1.3706 C   0  0  1  0  0  0  0  0  0  0  0  0
    5.0122   -6.2624    0.3453 C   0  0  0  0  0  0  0  0  0  0  0  0
    4.4328   -5.0036    0.8352 N   0  0  0  0  0  0  0  0  0  0  0  0
    4.2137   -4.0798   -0.2691 C   0  0  0  0  0  0  0  0  0  0  0  0
    6.6325   -5.2136    1.7731 C   0  0  1  0  0  0  0  0  0  0  0  0
    7.5439   -4.5368    0.7238 C   0  0  0  0  0  0  0  0  0  0  0  0
    1.8344   -9.0458    4.0447 C   0  0  1  0  0  0  0  0  0  0  0  0
    1.6989  -10.5540    3.8094 C   0  0  0  0  0  0  0  0  0  0  0  0
    4.3256   -1.5698   -1.6259 H   0  0  0  0  0  0  0  0  0  0  0  0
    3.2402   -0.7270   -0.5167 H   0  0  0  0  0  0  0  0  0  0  0  0
    2.6460   -2.0840   -1.4587 H   0  0  0  0  0  0  0  0  0  0  0  0
    3.0130   -2.7176    0.8813 H   0  0  0  0  0  0  0  0  0  0  0  0
    5.9885   -2.1525    0.3993 H   0  0  0  0  0  0  0  0  0  0  0  0
    4.9273   -1.1197    1.3401 H   0  0  0  0  0  0  0  0  0  0  0  0
    6.2116   -2.7733    2.7975 H   0  0  0  0  0  0  0  0  0  0  0  0
    4.4725   -2.8231    2.9483 H   0  0  0  0  0  0  0  0  0  0  0  0
    3.6249   -6.6733    2.4890 H   0  0  0  0  0  0  0  0  0  0  0  0
    4.5284   -6.8364    5.3081 H   0  0  0  0  0  0  0  0  0  0  0  0
    2.1286   -6.4689    4.2130 H   0  0  0  0  0  0  0  0  0  0  0  0
    2.3314   -3.7576    4.4749 H   0  0  0  0  0  0  0  0  0  0  0  0
    2.8944   -4.6640    2.4982 H   0  0  0  0  0  0  0  0  0  0  0  0
    0.0266   -4.0238    4.9777 H   0  0  0  0  0  0  0  0  0  0  0  0
   -0.1606   -5.3249    3.8035 H   0  0  0  0  0  0  0  0  0  0  0  0
   -0.4628   -6.3891    7.3828 H   0  0  0  0  0  0  0  0  0  0  0  0
   -0.2994   -9.3556    6.5378 H   0  0  0  0  0  0  0  0  0  0  0  0
    1.2567  -10.0739    6.7863 H   0  0  0  0  0  0  0  0  0  0  0  0
   -0.0022   -7.7567    8.0759 H   0  0  0  0  0  0  0  0  0  0  0  0
    2.3516   -9.4361    8.9253 H   0  0  0  0  0  0  0  0  0  0  0  0
    0.6577   -9.7519    9.2619 H   0  0  0  0  0  0  0  0  0  0  0  0
    1.4380   -8.3327    9.9523 H   0  0  0  0  0  0  0  0  0  0  0  0
    1.8336   -6.3387    8.5687 H   0  0  0  0  0  0  0  0  0  0  0  0
    3.0008   -7.2148    7.7364 H   0  0  0  0  0  0  0  0  0  0  0  0
    1.3644   -4.3931    7.9458 H   0  0  0  0  0  0  0  0  0  0  0  0
    1.7538   -3.6254    6.4771 H   0  0  0  0  0  0  0  0  0  0  0  0
    3.0283   -4.3655    7.4042 H   0  0  0  0  0  0  0  0  0  0  0  0
    4.5723  -10.7459    3.1186 H   0  0  0  0  0  0  0  0  0  0  0  0
    6.2337  -10.7118    4.9693 H   0  0  0  0  0  0  0  0  0  0  0  0
    6.7423  -11.5981    2.9965 H   0  0  0  0  0  0  0  0  0  0  0  0
    6.4835   -8.4681    5.4918 H   0  0  0  0  0  0  0  0  0  0  0  0
    9.1152   -9.1358    4.1182 H   0  0  0  0  0  0  0  0  0  0  0  0
    8.6345   -9.7490    5.6945 H   0  0  0  0  0  0  0  0  0  0  0  0
    8.8836   -8.0209    5.4493 H   0  0  0  0  0  0  0  0  0  0  0  0
    6.9281   -6.7086    4.1959 H   0  0  0  0  0  0  0  0  0  0  0  0
    7.8263   -7.5492    2.9560 H   0  0  0  0  0  0  0  0  0  0  0  0
    4.0292   -8.7091    1.9246 H   0  0  0  0  0  0  0  0  0  0  0  0
    6.8395   -9.4869    1.1318 H   0  0  0  0  0  0  0  0  0  0  0  0
    5.4694   -9.0007    0.1283 H   0  0  0  0  0  0  0  0  0  0  0  0
    5.4346  -10.5244    0.9663 H   0  0  0  0  0  0  0  0  0  0  0  0
    6.9457   -7.1544    0.8874 H   0  0  0  0  0  0  0  0  0  0  0  0
    5.4411   -6.1216   -0.6502 H   0  0  0  0  0  0  0  0  0  0  0  0
    4.2527   -7.0383    0.2484 H   0  0  0  0  0  0  0  0  0  0  0  0
    3.3879   -4.4484   -0.8783 H   0  0  0  0  0  0  0  0  0  0  0  0
    5.0830   -4.0267   -0.9285 H   0  0  0  0  0  0  0  0  0  0  0  0
    7.1689   -5.1828    2.7195 H   0  0  0  0  0  0  0  0  0  0  0  0
    7.0884   -4.4576   -0.2601 H   0  0  0  0  0  0  0  0  0  0  0  0
    8.4681   -5.0989    0.5989 H   0  0  0  0  0  0  0  0  0  0  0  0
    7.8309   -3.5327    1.0333 H   0  0  0  0  0  0  0  0  0  0  0  0
    1.4598   -8.4717    3.2042 H   0  0  0  0  0  0  0  0  0  0  0  0
    2.1338  -11.1262    4.6293 H   0  0  0  0  0  0  0  0  0  0  0  0
    2.1957  -10.8686    2.8924 H   0  0  0  0  0  0  0  0  0  0  0  0
    0.6536  -10.8549    3.7340 H   0  0  0  0  0  0  0  0  0  0  0  0
  1  2  1  0
  1 43  1  0
  1 44  1  0
  1 45  1  0
  2 38  1  0
  2  3  1  0
  2 46  1  1
  3  4  1  0
  3 47  1  0
  3 48  1  0
  4  5  1  0
  4 49  1  0
  4 50  1  0
  5 37  1  0
  5 39  1  0
  5  6  1  1
  6  7  1  0
  7 32  1  0
  7  8  1  0
  7 51  1  6
  8 24  1  0
  8  9  1  0
  8 52  1  1
  9 21  1  0
  9 10  1  0
  9 53  1  1
 10 11  1  0
 10 12  1  0
 10 54  1  1
 11 55  1  0
 12 13  1  0
 12 56  1  0
 12 57  1  0
 13 21  1  0
 13 14  1  1
 13 15  1  0
 14 58  1  0
 15 16  1  0
 16 41  1  0
 16 17  1  1
 16 23  1  0
 17 18  1  0
 17 59  1  0
 17 60  1  0
 18 19  1  0
 18 20  1  0
 18 61  1  1
 19 62  1  0
 19 63  1  0
 19 64  1  0
 20 21  1  0
 20 65  1  0
 20 66  1  0
 21 22  1  1
 22 67  1  0
 22 68  1  0
 22 69  1  0
 23 24  1  0
 24 25  1  1
 24 41  1  0
 25 26  1  0
 26 33  1  0
 26 27  1  0
 26 70  1  6
 27 28  1  0
 27 29  1  0
 27 71  1  1
 28 72  1  0
 29 30  1  0
 29 31  1  0
 29 73  1  1
 30 74  1  0
 30 75  1  0
 30 76  1  0
 32 31  1  1
 31 77  1  0
 31 78  1  0
 32 33  1  0
 32 35  1  0
 33 34  1  0
 33 79  1  6
 34 80  1  0
 34 81  1  0
 34 82  1  0
 35 36  1  0
 35 39  1  0
 35 83  1  6
 36 37  1  0
 36 84  1  0
 36 85  1  0
 37 38  1  0
 38 86  1  0
 38 87  1  0
 39 40  1  0
 39 88  1  1
 40 89  1  0
 40 90  1  0
 40 91  1  0
 41 42  1  0
 41 92  1  6
 42 93  1  0
 42 94  1  0
 42 95  1  0
M  END
>  <i_m_ct_stereo_status>  (134) 
1

>  <s_m_source_file>  (134) 
/var/tmp/pbs.5076255.sched01/tmp3foza_40/36o9al7bb4.sdf

>  <i_m_source_file_index>  (134) 
28

>  <i_lp_mmshare_version>  (134) 
48012

>  <i_f3d_flags>  (134) 
0

>  <s_epik_input>  (134) 
W0NIMl0xW0NIMl1bQ0BASF0oW0NIM10pW0NIMl1OKFtDQEBdMTIzKVtDSDJdW0NAQEhdKFtDQEhdM1tDSDNdKVtDQF00NVtDQEhdKE8yKVtDQEBIXTZbQ0BAXTcoT1tDQEBIXShbQ0BASF01W0NIM10pW0NAQEhdKFtPSF0pW0NAQEhdKFtDSDNdKVtDSDJdNClPW0NAXTgoW0NAQEhdN1tDSDNdKU9bQ0BAXTkoW09IXSlbQ0BdKFtDSDNdKShbQ0BIXTZbQ0BASF0oW09IXSlbQ0gyXTkpW0NIMl1bQ0BASF0oW0NIMl04KVtDSDNd

>  <s_epik_cmdline>  (134) 
J2VwaWtfcHl0aG9uJywgJy1waHQnLCAnMi4wJywgJy1waCcsICc3LjAnLCAnLXRuJywgJzgnLCAnLW1hJywgJzIwMCcsICctaW1hZScsICc8aW5maWxlLm1hZT4nLCAnLW9tYWUnLCAnPG91dGZpbGUubWFlPic=

>  <r_epik_Ionization_Penalty>  (134) 
1.34697

>  <r_epik_Ionization_Penalty_Charging>  (134) 
0

>  <r_epik_Ionization_Penalty_Neutral>  (134) 
1.34697

>  <r_epik_State_Penalty>  (134) 
1.4247

>  <r_epik_Charging_Adjusted_Penalty>  (134) 
1.4247

>  <i_epik_Tot_Q>  (134) 
0

>  <i_epik_Tot_abs_Q>  (134) 
0

>  <s_lp_Force_Field>  (134) 
OPLS3e

>  <r_lp_Energy>  (134) 
218.885

>  <b_lp_Chiralities_Consistent>  (134) 
1

>  <s_lp_Variant>  (134) 
50:0-2

>  <s_i_glide_gridfile>  (134) 
pfpi4k_grid

>  <i_i_glide_lignum>  (134) 
28

>  <i_i_glide_rotatable_bonds>  (134) 
3

>  <r_i_docking_score>  (134) 
-1.99029

>  <r_i_glide_ligand_efficiency>  (134) 
-0.0473877

>  <r_i_glide_ligand_efficiency_sa>  (134) 
-0.164721

>  <r_i_glide_ligand_efficiency_ln>  (134) 
-0.420098

>  <r_i_glide_gscore>  (134) 
-1.99029

>  <r_i_glide_lipo>  (134) 
-0.601084

>  <r_i_glide_hbond>  (134) 
0

>  <r_i_glide_metal>  (134) 
-0

>  <r_i_glide_rewards>  (134) 
-0.0425447

>  <r_i_glide_evdw>  (134) 
-23.5272

>  <r_i_glide_ecoul>  (134) 
-0.969271

>  <r_i_glide_erotb>  (134) 
0

>  <r_i_glide_esite>  (134) 
-0.0249072

>  <r_i_glide_emodel>  (134) 
-26.7139

>  <r_i_glide_energy>  (134) 
-24.4964

>  <r_i_glide_einternal>  (134) 
0.687877

>  <r_i_glide_intrahb_reward>  (134) 
-0

>  <i_i_glide_confnum>  (134) 
1

>  <i_i_glide_posenum>  (134) 
3

>  <r_i_glide_eff_state_penalty>  (134) 
0

>  <ligand_id>  (134) 
50

>  <original_smiles>  (134) 
CC1CCC23OC4C5C6C(O)CC7(O)OC8(CC(C)CC67C)OC5(OC5C(O)C(C)CC4(C5C)C(CN2C1)C3C)C8C

>  <smiles>  (134) 
[H]OC1([H])C2([H])OC34OC5(OC6(O[H])C([H])([H])C([H])(O[H])C([H])(C3([H])C3([H])OC78N(C([H])([H])C([H])(C([H])([H])[H])C([H])([H])C7([H])[H])C([H])([H])C([H])(C8([H])C([H])([H])[H])C3(C([H])([H])C1([H])C([H])([H])[H])C2([H])C([H])([H])[H])C6(C([H])([H])[H])C([H])([H])C([H])(C([H])([H])[H])C5([H])[H])C4([H])C([H])([H])[H]

$$$$
51:0:0
     RDKit          3D

 35 39  0  0  1  0  0  0  0  0999 V2000
   -0.2720    2.6644    6.9941 C   0  0  0  0  0  0  0  0  0  0  0  0
    0.8823    2.0154    6.3990 N   0  0  0  0  0  0  0  0  0  0  0  0
    1.0246    1.4967    5.1299 C   0  0  0  0  0  0  0  0  0  0  0  0
    2.3033    1.0013    5.0541 C   0  0  0  0  0  0  0  0  0  0  0  0
    2.9099    0.3398    3.9060 C   0  0  0  0  0  0  0  0  0  0  0  0
    2.2860   -0.0329    2.7295 C   0  0  0  0  0  0  0  0  0  0  0  0
    3.1959   -0.6536    1.8363 C   0  0  0  0  0  0  0  0  0  0  0  0
    4.4532   -0.7283    2.3201 C   0  0  0  0  0  0  0  0  0  0  0  0
    4.6346   -0.0828    3.9175 S   0  0  0  0  0  0  0  0  0  0  0  0
    5.2972   -1.3577    1.3368 C   0  0  0  0  0  0  0  0  0  0  0  0
    6.5563   -1.7467    1.2130 N   0  0  0  0  0  0  0  0  0  0  0  0
    6.5898   -2.3387   -0.0725 C   0  0  0  0  0  0  0  0  0  0  0  0
    7.8707   -2.9456   -0.5773 C   0  0  0  0  0  0  0  0  0  0  0  0
    8.0034   -2.9286   -1.8937 N   0  0  0  0  0  0  0  0  0  0  0  0
    8.7586   -3.3929    0.1502 O   0  0  0  0  0  0  0  0  0  0  0  0
    5.3173   -2.2790   -0.6743 C   0  0  0  0  0  0  0  0  0  0  0  0
    4.7304   -2.6900   -1.9780 C   0  0  0  0  0  0  0  0  0  0  0  0
    5.3938   -3.4238   -2.8753 N   0  0  0  0  0  0  0  0  0  0  0  0
    4.5301   -3.5187   -3.8906 N   0  0  0  0  0  0  0  0  0  0  0  0
    3.4011   -2.8651   -3.5864 N   0  0  0  0  0  0  0  0  0  0  0  0
    3.5024   -2.3167   -2.3728 N   0  0  0  0  0  0  0  0  0  0  0  0
    4.5368   -1.6463    0.2934 N   0  0  0  0  0  0  0  0  0  0  0  0
    3.1348   -1.2574    0.4593 C   0  0  0  0  0  0  0  0  0  0  0  0
    2.8697    1.2643    6.3337 C   0  0  0  0  0  0  0  0  0  0  0  0
    2.0054    1.8704    7.1376 N   0  0  0  0  0  0  0  0  0  0  0  0
   -1.1034    2.6954    6.2880 H   0  0  0  0  0  0  0  0  0  0  0  0
   -0.0196    3.6865    7.2815 H   0  0  0  0  0  0  0  0  0  0  0  0
   -0.5892    2.1225    7.8866 H   0  0  0  0  0  0  0  0  0  0  0  0
    0.2336    1.5180    4.4029 H   0  0  0  0  0  0  0  0  0  0  0  0
    1.2406    0.1168    2.4959 H   0  0  0  0  0  0  0  0  0  0  0  0
    7.1645   -2.7534   -2.4408 H   0  0  0  0  0  0  0  0  0  0  0  0
    8.7992   -3.3588   -2.3559 H   0  0  0  0  0  0  0  0  0  0  0  0
    2.5069   -2.1449    0.4237 H   0  0  0  0  0  0  0  0  0  0  0  0
    2.8781   -0.5299   -0.3004 H   0  0  0  0  0  0  0  0  0  0  0  0
    3.8609    1.0327    6.7077 H   0  0  0  0  0  0  0  0  0  0  0  0
  1  2  1  0
  1 26  1  0
  1 27  1  0
  1 28  1  0
  2 25  1  0
  2  3  1  0
  3  4  2  0
  3 29  1  0
  4  5  1  0
  4 24  1  0
  5  9  1  0
  5  6  2  0
  6  7  1  0
  6 30  1  0
  7 23  1  0
  7  8  2  0
  8  9  1  0
  8 10  1  0
 10 22  1  0
 10 11  2  0
 11 12  1  0
 12 13  1  0
 12 16  2  0
 13 14  1  0
 13 15  2  0
 14 31  1  0
 14 32  1  0
 16 22  1  0
 16 17  1  0
 17 21  2  0
 17 18  1  0
 18 19  1  0
 19 20  2  0
 20 21  1  0
 22 23  1  0
 23 33  1  0
 23 34  1  0
 24 25  2  0
 24 35  1  0
M  CHG  1  18  -1
M  END
>  <i_m_ct_stereo_status>  (135) 
1

>  <s_m_source_file>  (135) 
/var/tmp/pbs.5076255.sched01/tmp3foza_40/36o9al7bb4.sdf

>  <i_m_source_file_index>  (135) 
29

>  <i_lp_mmshare_version>  (135) 
48012

>  <i_f3d_flags>  (135) 
0

>  <s_epik_input>  (135) 
W0NIM11uMVtjSF1jKFtjSF1uMSktYyhbY0hdMilzYyhjMjMpYzRuKFtDSDJdMyljKGMobjQpQyg9TylbTkgyXSktYzVubltuSF1uNQ==

>  <s_epik_cmdline>  (135) 
J2VwaWtfcHl0aG9uJywgJy1waHQnLCAnMi4wJywgJy1waCcsICc3LjAnLCAnLXRuJywgJzgnLCAnLW1hJywgJzIwMCcsICctaW1hZScsICc8aW5maWxlLm1hZT4nLCAnLW9tYWUnLCAnPG91dGZpbGUubWFlPic=

>  <r_lp_tautomer_probability>  (135) 
1

>  <r_epik_Ionization_Penalty>  (135) 
0.00104082

>  <r_epik_Ionization_Penalty_Charging>  (135) 
0.000961042

>  <r_epik_Ionization_Penalty_Neutral>  (135) 
7.97747e-05

>  <r_epik_State_Penalty>  (135) 
0.000250006

>  <r_epik_Charging_Adjusted_Penalty>  (135) 
0.00121105

>  <i_epik_Tot_Q>  (135) 
-1

>  <i_epik_Tot_abs_Q>  (135) 
1

>  <s_lp_Force_Field>  (135) 
OPLS3e

>  <r_lp_Energy>  (135) 
9.56389

>  <b_lp_Chiralities_Consistent>  (135) 
1

>  <s_lp_Variant>  (135) 
51:0-1

>  <s_i_glide_gridfile>  (135) 
pfpi4k_grid

>  <i_i_glide_lignum>  (135) 
29

>  <i_i_glide_rotatable_bonds>  (135) 
3

>  <r_i_docking_score>  (135) 
-3.47801

>  <r_i_glide_ligand_efficiency>  (135) 
-0.139121

>  <r_i_glide_ligand_efficiency_sa>  (135) 
-0.406791

>  <r_i_glide_ligand_efficiency_ln>  (135) 
-0.824393

>  <r_i_glide_gscore>  (135) 
-3.47801

>  <r_i_glide_lipo>  (135) 
-0.125644

>  <r_i_glide_hbond>  (135) 
-0.0480271

>  <r_i_glide_metal>  (135) 
-0

>  <r_i_glide_rewards>  (135) 
-1.75767

>  <r_i_glide_evdw>  (135) 
-28.6335

>  <r_i_glide_ecoul>  (135) 
-2.1036

>  <r_i_glide_erotb>  (135) 
0.307423

>  <r_i_glide_esite>  (135) 
-0.106875

>  <r_i_glide_emodel>  (135) 
-43.7604

>  <r_i_glide_energy>  (135) 
-30.7371

>  <r_i_glide_einternal>  (135) 
0.25244

>  <r_i_glide_intrahb_reward>  (135) 
-0.5

>  <i_i_glide_confnum>  (135) 
4

>  <i_i_glide_posenum>  (135) 
30

>  <r_i_glide_eff_state_penalty>  (135) 
0

>  <ligand_id>  (135) 
51

>  <original_smiles>  (135) 
Cn1cc(-c2cc3c(s2)-c2nc(C(N)=O)c(-c4nn[nH]n4)n2C3)cn1

>  <smiles>  (135) 
[H]c1nn(C([H])([H])[H])c([H])c1-c1sc2c(c1[H])C([H])([H])n1c-2nc(C(=O)N([H])[H])c1-c1nnn[n-]1

$$$$
51:0:1
     RDKit          3D

 35 39  0  0  1  0  0  0  0  0999 V2000
   -2.7867    3.1919    6.5299 C   0  0  0  0  0  0  0  0  0  0  0  0
   -1.8679    2.0968    6.2733 N   0  0  0  0  0  0  0  0  0  0  0  0
   -1.3039    1.7086    5.0771 C   0  0  0  0  0  0  0  0  0  0  0  0
   -0.5185    0.6184    5.3581 C   0  0  0  0  0  0  0  0  0  0  0  0
    0.3110   -0.1175    4.4256 C   0  0  0  0  0  0  0  0  0  0  0  0
    1.0574    0.3986    3.3781 C   0  0  0  0  0  0  0  0  0  0  0  0
    1.7527   -0.6242    2.6843 C   0  0  0  0  0  0  0  0  0  0  0  0
    1.5247   -1.8584    3.1857 C   0  0  0  0  0  0  0  0  0  0  0  0
    0.4664   -1.8804    4.5620 S   0  0  0  0  0  0  0  0  0  0  0  0
    2.2540   -2.8238    2.4112 C   0  0  0  0  0  0  0  0  0  0  0  0
    2.4107   -4.1363    2.3659 N   0  0  0  0  0  0  0  0  0  0  0  0
    3.3120   -4.3191    1.2810 C   0  0  0  0  0  0  0  0  0  0  0  0
    3.6945   -5.7212    0.8723 C   0  0  0  0  0  0  0  0  0  0  0  0
    4.8320   -5.8365    0.2004 N   0  0  0  0  0  0  0  0  0  0  0  0
    3.0122   -6.7057    1.1456 O   0  0  0  0  0  0  0  0  0  0  0  0
    3.6431   -3.0751    0.7103 C   0  0  0  0  0  0  0  0  0  0  0  0
    4.5037   -2.6099   -0.4144 C   0  0  0  0  0  0  0  0  0  0  0  0
    4.4189   -1.3739   -0.9248 N   0  0  0  0  0  0  0  0  0  0  0  0
    5.3493   -1.3902   -1.8848 N   0  0  0  0  0  0  0  0  0  0  0  0
    5.9778   -2.5663   -1.9006 N   0  0  0  0  0  0  0  0  0  0  0  0
    5.4808   -3.3551   -0.9451 N   0  0  0  0  0  0  0  0  0  0  0  0
    2.9106   -2.1617    1.4691 N   0  0  0  0  0  0  0  0  0  0  0  0
    2.6928   -0.7102    1.5083 C   0  0  0  0  0  0  0  0  0  0  0  0
   -0.6313    0.4386    6.7658 C   0  0  0  0  0  0  0  0  0  0  0  0
   -1.4785    1.3055    7.3026 N   0  0  0  0  0  0  0  0  0  0  0  0
   -3.0245    3.7097    5.6005 H   0  0  0  0  0  0  0  0  0  0  0  0
   -2.3452    3.9087    7.2245 H   0  0  0  0  0  0  0  0  0  0  0  0
   -3.7115    2.8096    6.9641 H   0  0  0  0  0  0  0  0  0  0  0  0
   -1.4935    2.2168    4.1484 H   0  0  0  0  0  0  0  0  0  0  0  0
    1.1360    1.4441    3.1192 H   0  0  0  0  0  0  0  0  0  0  0  0
    5.2388   -4.9610   -0.1235 H   0  0  0  0  0  0  0  0  0  0  0  0
    5.1201   -6.7091   -0.2086 H   0  0  0  0  0  0  0  0  0  0  0  0
    2.2162   -0.3715    0.5897 H   0  0  0  0  0  0  0  0  0  0  0  0
    3.6420   -0.2036    1.6948 H   0  0  0  0  0  0  0  0  0  0  0  0
   -0.1376   -0.2788    7.4098 H   0  0  0  0  0  0  0  0  0  0  0  0
  1  2  1  0
  1 26  1  0
  1 27  1  0
  1 28  1  0
  2 25  1  0
  2  3  1  0
  3  4  2  0
  3 29  1  0
  4  5  1  0
  4 24  1  0
  5  9  1  0
  5  6  2  0
  6  7  1  0
  6 30  1  0
  7 23  1  0
  7  8  2  0
  8  9  1  0
  8 10  1  0
 10 22  1  0
 10 11  2  0
 11 12  1  0
 12 13  1  0
 12 16  2  0
 13 14  1  0
 13 15  2  0
 14 31  1  0
 14 32  1  0
 16 22  1  0
 16 17  1  0
 17 21  2  0
 17 18  1  0
 18 19  1  0
 19 20  2  0
 20 21  1  0
 22 23  1  0
 23 33  1  0
 23 34  1  0
 24 25  2  0
 24 35  1  0
M  CHG  1  18  -1
M  END
>  <i_m_ct_stereo_status>  (136) 
1

>  <s_m_source_file>  (136) 
/var/tmp/pbs.5076255.sched01/tmp3foza_40/36o9al7bb4.sdf

>  <i_m_source_file_index>  (136) 
29

>  <i_lp_mmshare_version>  (136) 
48012

>  <i_f3d_flags>  (136) 
0

>  <s_epik_input>  (136) 
W0NIM11uMVtjSF1jKFtjSF1uMSktYyhbY0hdMilzYyhjMjMpYzRuKFtDSDJdMyljKGMobjQpQyg9TylbTkgyXSktYzVubltuSF1uNQ==

>  <s_epik_cmdline>  (136) 
J2VwaWtfcHl0aG9uJywgJy1waHQnLCAnMi4wJywgJy1waCcsICc3LjAnLCAnLXRuJywgJzgnLCAnLW1hJywgJzIwMCcsICctaW1hZScsICc8aW5maWxlLm1hZT4nLCAnLW9tYWUnLCAnPG91dGZpbGUubWFlPic=

>  <r_lp_tautomer_probability>  (136) 
1

>  <r_epik_Ionization_Penalty>  (136) 
0.00104082

>  <r_epik_Ionization_Penalty_Charging>  (136) 
0.000961042

>  <r_epik_Ionization_Penalty_Neutral>  (136) 
7.97747e-05

>  <r_epik_State_Penalty>  (136) 
0.000250006

>  <r_epik_Charging_Adjusted_Penalty>  (136) 
0.00121105

>  <i_epik_Tot_Q>  (136) 
-1

>  <i_epik_Tot_abs_Q>  (136) 
1

>  <s_lp_Force_Field>  (136) 
OPLS3e

>  <r_lp_Energy>  (136) 
9.56389

>  <b_lp_Chiralities_Consistent>  (136) 
1

>  <s_lp_Variant>  (136) 
51:0-1

>  <s_i_glide_gridfile>  (136) 
pfpi4k_grid

>  <i_i_glide_lignum>  (136) 
29

>  <i_i_glide_rotatable_bonds>  (136) 
3

>  <r_i_docking_score>  (136) 
-3.31828

>  <r_i_glide_ligand_efficiency>  (136) 
-0.132731

>  <r_i_glide_ligand_efficiency_sa>  (136) 
-0.388108

>  <r_i_glide_ligand_efficiency_ln>  (136) 
-0.786531

>  <r_i_glide_gscore>  (136) 
-3.31828

>  <r_i_glide_lipo>  (136) 
-0.161055

>  <r_i_glide_hbond>  (136) 
-0.0636403

>  <r_i_glide_metal>  (136) 
-0

>  <r_i_glide_rewards>  (136) 
-1.53852

>  <r_i_glide_evdw>  (136) 
-27.7938

>  <r_i_glide_ecoul>  (136) 
-2.12004

>  <r_i_glide_erotb>  (136) 
0.307423

>  <r_i_glide_esite>  (136) 
-0.154786

>  <r_i_glide_emodel>  (136) 
-41.7987

>  <r_i_glide_energy>  (136) 
-29.9139

>  <r_i_glide_einternal>  (136) 
2.03436

>  <r_i_glide_intrahb_reward>  (136) 
-0.5

>  <i_i_glide_confnum>  (136) 
6

>  <i_i_glide_posenum>  (136) 
27

>  <r_i_glide_eff_state_penalty>  (136) 
0

>  <ligand_id>  (136) 
51

>  <original_smiles>  (136) 
Cn1cc(-c2cc3c(s2)-c2nc(C(N)=O)c(-c4nn[nH]n4)n2C3)cn1

>  <smiles>  (136) 
[H]c1nn(C([H])([H])[H])c([H])c1-c1sc2c(c1[H])C([H])([H])n1c-2nc(C(=O)N([H])[H])c1-c1nnn[n-]1

$$$$
51:0:2
     RDKit          3D

 35 39  0  0  1  0  0  0  0  0999 V2000
   -3.1688    3.0620    6.3743 C   0  0  0  0  0  0  0  0  0  0  0  0
   -2.1743    2.7149    5.3867 N   0  0  0  0  0  0  0  0  0  0  0  0
   -1.5185    1.5122    5.2064 C   0  0  0  0  0  0  0  0  0  0  0  0
   -0.6900    1.6867    4.1365 C   0  0  0  0  0  0  0  0  0  0  0  0
    0.2481    0.7406    3.5369 C   0  0  0  0  0  0  0  0  0  0  0  0
    1.1582    1.0242    2.5400 C   0  0  0  0  0  0  0  0  0  0  0  0
    1.9149   -0.1212    2.1780 C   0  0  0  0  0  0  0  0  0  0  0  0
    1.5638   -1.2208    2.8770 C   0  0  0  0  0  0  0  0  0  0  0  0
    0.3262   -0.9484    4.0636 S   0  0  0  0  0  0  0  0  0  0  0  0
    2.3812   -2.3206    2.4319 C   0  0  0  0  0  0  0  0  0  0  0  0
    2.5107   -3.6111    2.6784 N   0  0  0  0  0  0  0  0  0  0  0  0
    3.5591   -4.0046    1.8204 C   0  0  0  0  0  0  0  0  0  0  0  0
    3.9672   -5.4507    1.7625 C   0  0  0  0  0  0  0  0  0  0  0  0
    5.2356   -5.6739    1.4380 N   0  0  0  0  0  0  0  0  0  0  0  0
    3.1972   -6.3766    2.0049 O   0  0  0  0  0  0  0  0  0  0  0  0
    4.0111   -2.9085    1.0695 C   0  0  0  0  0  0  0  0  0  0  0  0
    5.0457   -2.6961    0.0312 C   0  0  0  0  0  0  0  0  0  0  0  0
    6.0489   -3.5563   -0.1736 N   0  0  0  0  0  0  0  0  0  0  0  0
    6.7319   -3.0043   -1.1813 N   0  0  0  0  0  0  0  0  0  0  0  0
    6.1448   -1.8555   -1.5307 N   0  0  0  0  0  0  0  0  0  0  0  0
    5.0940   -1.6035   -0.7347 N   0  0  0  0  0  0  0  0  0  0  0  0
    3.1977   -1.8559    1.4981 N   0  0  0  0  0  0  0  0  0  0  0  0
    3.0232   -0.4338    1.2033 C   0  0  0  0  0  0  0  0  0  0  0  0
   -0.9076    3.0290    3.7183 C   0  0  0  0  0  0  0  0  0  0  0  0
   -1.8004    3.6439    4.4802 N   0  0  0  0  0  0  0  0  0  0  0  0
   -3.3637    2.2161    7.0353 H   0  0  0  0  0  0  0  0  0  0  0  0
   -4.0943    3.3345    5.8629 H   0  0  0  0  0  0  0  0  0  0  0  0
   -2.8279    3.9056    6.9763 H   0  0  0  0  0  0  0  0  0  0  0  0
   -1.6942    0.6586    5.8474 H   0  0  0  0  0  0  0  0  0  0  0  0
    1.2972    1.9932    2.0813 H   0  0  0  0  0  0  0  0  0  0  0  0
    5.7609   -4.8762    1.0928 H   0  0  0  0  0  0  0  0  0  0  0  0
    5.5805   -6.6116    1.2921 H   0  0  0  0  0  0  0  0  0  0  0  0
    2.7094   -0.3122    0.1709 H   0  0  0  0  0  0  0  0  0  0  0  0
    3.9414    0.1074    1.4192 H   0  0  0  0  0  0  0  0  0  0  0  0
   -0.4502    3.5722    2.9050 H   0  0  0  0  0  0  0  0  0  0  0  0
  1  2  1  0
  1 26  1  0
  1 27  1  0
  1 28  1  0
  2 25  1  0
  2  3  1  0
  3  4  2  0
  3 29  1  0
  4  5  1  0
  4 24  1  0
  5  9  1  0
  5  6  2  0
  6  7  1  0
  6 30  1  0
  7 23  1  0
  7  8  2  0
  8  9  1  0
  8 10  1  0
 10 22  1  0
 10 11  2  0
 11 12  1  0
 12 13  1  0
 12 16  2  0
 13 14  1  0
 13 15  2  0
 14 31  1  0
 14 32  1  0
 16 22  1  0
 16 17  1  0
 17 21  2  0
 17 18  1  0
 18 19  1  0
 19 20  2  0
 20 21  1  0
 22 23  1  0
 23 33  1  0
 23 34  1  0
 24 25  2  0
 24 35  1  0
M  CHG  1  18  -1
M  END
>  <i_m_ct_stereo_status>  (137) 
1

>  <s_m_source_file>  (137) 
/var/tmp/pbs.5076255.sched01/tmp3foza_40/36o9al7bb4.sdf

>  <i_m_source_file_index>  (137) 
29

>  <i_lp_mmshare_version>  (137) 
48012

>  <i_f3d_flags>  (137) 
0

>  <s_epik_input>  (137) 
W0NIM11uMVtjSF1jKFtjSF1uMSktYyhbY0hdMilzYyhjMjMpYzRuKFtDSDJdMyljKGMobjQpQyg9TylbTkgyXSktYzVubltuSF1uNQ==

>  <s_epik_cmdline>  (137) 
J2VwaWtfcHl0aG9uJywgJy1waHQnLCAnMi4wJywgJy1waCcsICc3LjAnLCAnLXRuJywgJzgnLCAnLW1hJywgJzIwMCcsICctaW1hZScsICc8aW5maWxlLm1hZT4nLCAnLW9tYWUnLCAnPG91dGZpbGUubWFlPic=

>  <r_lp_tautomer_probability>  (137) 
1

>  <r_epik_Ionization_Penalty>  (137) 
0.00104082

>  <r_epik_Ionization_Penalty_Charging>  (137) 
0.000961042

>  <r_epik_Ionization_Penalty_Neutral>  (137) 
7.97747e-05

>  <r_epik_State_Penalty>  (137) 
0.000250006

>  <r_epik_Charging_Adjusted_Penalty>  (137) 
0.00121105

>  <i_epik_Tot_Q>  (137) 
-1

>  <i_epik_Tot_abs_Q>  (137) 
1

>  <s_lp_Force_Field>  (137) 
OPLS3e

>  <r_lp_Energy>  (137) 
9.56389

>  <b_lp_Chiralities_Consistent>  (137) 
1

>  <s_lp_Variant>  (137) 
51:0-1

>  <s_i_glide_gridfile>  (137) 
pfpi4k_grid

>  <i_i_glide_lignum>  (137) 
29

>  <i_i_glide_rotatable_bonds>  (137) 
3

>  <r_i_docking_score>  (137) 
-3.06872

>  <r_i_glide_ligand_efficiency>  (137) 
-0.122749

>  <r_i_glide_ligand_efficiency_sa>  (137) 
-0.35892

>  <r_i_glide_ligand_efficiency_ln>  (137) 
-0.727378

>  <r_i_glide_gscore>  (137) 
-3.06872

>  <r_i_glide_lipo>  (137) 
-0.125626

>  <r_i_glide_hbond>  (137) 
0

>  <r_i_glide_metal>  (137) 
-0

>  <r_i_glide_rewards>  (137) 
-1.58494

>  <r_i_glide_evdw>  (137) 
-27.9207

>  <r_i_glide_ecoul>  (137) 
-0.91246

>  <r_i_glide_erotb>  (137) 
0.307423

>  <r_i_glide_esite>  (137) 
-0.132672

>  <r_i_glide_emodel>  (137) 
-41.1524

>  <r_i_glide_energy>  (137) 
-28.8332

>  <r_i_glide_einternal>  (137) 
0.423105

>  <r_i_glide_intrahb_reward>  (137) 
-0.5

>  <i_i_glide_confnum>  (137) 
1

>  <i_i_glide_posenum>  (137) 
24

>  <r_i_glide_eff_state_penalty>  (137) 
0

>  <ligand_id>  (137) 
51

>  <original_smiles>  (137) 
Cn1cc(-c2cc3c(s2)-c2nc(C(N)=O)c(-c4nn[nH]n4)n2C3)cn1

>  <smiles>  (137) 
[H]c1nn(C([H])([H])[H])c([H])c1-c1sc2c(c1[H])C([H])([H])n1c-2nc(C(=O)N([H])[H])c1-c1nnn[n-]1

$$$$
52:0:0
     RDKit          3D

 35 37  0  0  1  0  0  0  0  0999 V2000
   -0.1912   -6.6712    1.4233 O   0  0  0  0  0  0  0  0  0  0  0  0
    1.0873   -6.9190    0.8927 C   0  0  0  0  0  0  0  0  0  0  0  0
    2.1916   -6.1712    1.6854 C   0  0  2  0  0  0  0  0  0  0  0  0
    2.2161   -4.7922    1.3032 O   0  0  0  0  0  0  0  0  0  0  0  0
    2.8978   -4.7206    0.0939 C   0  0  1  0  0  0  0  0  0  0  0  0
    3.3227   -3.3277   -0.2080 N   0  0  0  0  0  0  0  0  0  0  0  0
    3.4662   -2.2749    0.6431 C   0  0  0  0  0  0  0  0  0  0  0  0
    3.8797   -1.1371    0.0773 N   0  0  0  0  0  0  0  0  0  0  0  0
    4.0097   -1.4618   -1.2460 C   0  0  0  0  0  0  0  0  0  0  0  0
    3.6853   -2.7877   -1.4092 C   0  0  0  0  0  0  0  0  0  0  0  0
    3.7454   -3.4519   -2.6299 N   0  0  0  0  0  0  0  0  0  0  0  0
    4.5354   -2.7600   -3.6320 C   0  0  0  0  0  0  0  0  0  0  0  0
    4.2929   -1.2228   -3.6121 C   0  0  1  0  0  0  0  0  0  0  0  0
    3.0518   -0.9618   -4.2143 O   0  0  0  0  0  0  0  0  0  0  0  0
    4.4630   -0.6402   -2.2797 N   0  0  0  0  0  0  0  0  0  0  0  0
    4.0886   -5.6614    0.2416 C   0  0  0  0  0  0  0  0  0  0  0  0
    3.6008   -6.6629    1.2855 C   0  0  1  0  0  0  0  0  0  0  0  0
    4.4638   -6.6688    2.4056 O   0  0  0  0  0  0  0  0  0  0  0  0
   -0.7132   -7.4458    1.2520 H   0  0  0  0  0  0  0  0  0  0  0  0
    1.2673   -7.9944    0.9480 H   0  0  0  0  0  0  0  0  0  0  0  0
    1.0735   -6.6727   -0.1661 H   0  0  0  0  0  0  0  0  0  0  0  0
    2.0181   -6.2864    2.7629 H   0  0  0  0  0  0  0  0  0  0  0  0
    2.2294   -4.9619   -0.7271 H   0  0  0  0  0  0  0  0  0  0  0  0
    3.2662   -2.3770    1.6865 H   0  0  0  0  0  0  0  0  0  0  0  0
    3.5777   -4.4616   -2.6980 H   0  0  0  0  0  0  0  0  0  0  0  0
    5.5786   -2.9433   -3.3802 H   0  0  0  0  0  0  0  0  0  0  0  0
    4.3747   -3.1932   -4.6139 H   0  0  0  0  0  0  0  0  0  0  0  0
    5.0180   -0.7622   -4.2712 H   0  0  0  0  0  0  0  0  0  0  0  0
    2.4906   -0.5374   -3.5817 H   0  0  0  0  0  0  0  0  0  0  0  0
    4.5081    0.3625   -2.1577 H   0  0  0  0  0  0  0  0  0  0  0  0
    4.3011   -6.1280   -0.7168 H   0  0  0  0  0  0  0  0  0  0  0  0
    4.9663   -5.1045    0.5785 H   0  0  0  0  0  0  0  0  0  0  0  0
    3.5767   -7.6793    0.8855 H   0  0  0  0  0  0  0  0  0  0  0  0
    4.1814   -7.3404    3.0106 H   0  0  0  0  0  0  0  0  0  0  0  0
    4.0687   -0.2591    0.5381 H   0  0  0  0  0  0  0  0  0  0  0  0
  1  2  1  0
  1 19  1  0
  2  3  1  0
  2 20  1  0
  2 21  1  0
  3 17  1  0
  3  4  1  0
  3 22  1  1
  4  5  1  0
  5  6  1  0
  5 16  1  0
  5 23  1  6
  6 10  1  0
  6  7  1  0
  7  8  2  0
  7 24  1  0
  8  9  1  0
  8 35  1  0
  9 15  1  0
  9 10  2  0
 10 11  1  0
 11 12  1  0
 11 25  1  0
 12 13  1  0
 12 26  1  0
 12 27  1  0
 13 14  1  0
 13 15  1  0
 13 28  1  6
 14 29  1  0
 15 30  1  0
 16 17  1  0
 16 31  1  0
 16 32  1  0
 17 18  1  0
 17 33  1  6
 18 34  1  0
M  CHG  1   8   1
M  END
>  <i_m_ct_stereo_status>  (138) 
1

>  <s_m_source_file>  (138) 
/var/tmp/pbs.5076255.sched01/tmp3foza_40/36o9al7bb4.sdf

>  <i_m_source_file_index>  (138) 
30

>  <i_lp_mmshare_version>  (138) 
48012

>  <i_f3d_flags>  (138) 
0

>  <s_epik_input>  (138) 
W09IXVtDSDJdW0NAQEhdMU9bQ0BIXShbQ0gyXVtDQEhdMVtPSF0pbihbY0hdbjIpYyhjMjMpW05IXVtDSDJdW0NAQEhdKFtPSF0pW05IXTM=

>  <s_epik_cmdline>  (138) 
J2VwaWtfcHl0aG9uJywgJy1waHQnLCAnMi4wJywgJy1waCcsICc3LjAnLCAnLXRuJywgJzgnLCAnLW1hJywgJzIwMCcsICctaW1hZScsICc8aW5maWxlLm1hZT4nLCAnLW9tYWUnLCAnPG91dGZpbGUubWFlPic=

>  <r_epik_Ionization_Penalty>  (138) 
0.360569

>  <r_epik_Ionization_Penalty_Charging>  (138) 
0

>  <r_epik_Ionization_Penalty_Neutral>  (138) 
0.360569

>  <r_epik_State_Penalty>  (138) 
0.357347

>  <r_epik_Charging_Adjusted_Penalty>  (138) 
0.357347

>  <i_epik_Tot_Q>  (138) 
1

>  <i_epik_Tot_abs_Q>  (138) 
1

>  <s_epik_Chemistry_Notes>  (138) 
This compound contains an acetal/aminal-like group ( X-CH(R)-Y where X, Y are N, S, or O) that may be acid/base labile, releasing an aldehyde.

>  <s_lp_Force_Field>  (138) 
OPLS3e

>  <r_lp_Energy>  (138) 
9.91571

>  <b_lp_Chiralities_Consistent>  (138) 
1

>  <s_lp_Variant>  (138) 
52:0-1

>  <s_i_glide_gridfile>  (138) 
pfpi4k_grid

>  <i_i_glide_lignum>  (138) 
30

>  <i_i_glide_rotatable_bonds>  (138) 
5

>  <r_i_docking_score>  (138) 
-4.67994

>  <r_i_glide_ligand_efficiency>  (138) 
-0.259997

>  <r_i_glide_ligand_efficiency_sa>  (138) 
-0.681385

>  <r_i_glide_ligand_efficiency_ln>  (138) 
-1.20296

>  <r_i_glide_gscore>  (138) 
-4.67994

>  <r_i_glide_lipo>  (138) 
-0.248571

>  <r_i_glide_hbond>  (138) 
-0.329249

>  <r_i_glide_metal>  (138) 
-0

>  <r_i_glide_rewards>  (138) 
-1.95827

>  <r_i_glide_evdw>  (138) 
-20.6265

>  <r_i_glide_ecoul>  (138) 
-9.90979

>  <r_i_glide_erotb>  (138) 
0.533115

>  <r_i_glide_esite>  (138) 
-0.159171

>  <r_i_glide_emodel>  (138) 
-38.8438

>  <r_i_glide_energy>  (138) 
-30.5363

>  <r_i_glide_einternal>  (138) 
2.59687

>  <r_i_glide_intrahb_reward>  (138) 
-0

>  <i_i_glide_confnum>  (138) 
6

>  <i_i_glide_posenum>  (138) 
1

>  <r_i_glide_eff_state_penalty>  (138) 
0

>  <ligand_id>  (138) 
52

>  <original_smiles>  (138) 
OCC1OC(n2cnc3c2NCC(O)N3)CC1O

>  <smiles>  (138) 
[H]OC([H])([H])C1([H])OC([H])(n2c3c([n+]([H])c2[H])N([H])C([H])(O[H])C([H])([H])N3[H])C([H])([H])C1([H])O[H]

$$$$
52:0:1
     RDKit          3D

 35 37  0  0  1  0  0  0  0  0999 V2000
   -0.1878   -6.6667    1.4031 O   0  0  0  0  0  0  0  0  0  0  0  0
    1.1024   -6.9172    0.8956 C   0  0  0  0  0  0  0  0  0  0  0  0
    2.2030   -6.1555    1.6868 C   0  0  2  0  0  0  0  0  0  0  0  0
    2.2185   -4.7788    1.2986 O   0  0  0  0  0  0  0  0  0  0  0  0
    2.8925   -4.7091    0.0891 C   0  0  1  0  0  0  0  0  0  0  0  0
    3.3047   -3.3101   -0.2119 N   0  0  0  0  0  0  0  0  0  0  0  0
    3.4173   -2.2475    0.6255 C   0  0  0  0  0  0  0  0  0  0  0  0
    3.8207   -1.1090    0.0598 N   0  0  0  0  0  0  0  0  0  0  0  0
    3.9801   -1.4506   -1.2576 C   0  0  0  0  0  0  0  0  0  0  0  0
    3.6795   -2.7759   -1.4173 C   0  0  0  0  0  0  0  0  0  0  0  0
    3.7648   -3.4537   -2.6316 N   0  0  0  0  0  0  0  0  0  0  0  0
    4.5571   -2.7533   -3.6299 C   0  0  0  0  0  0  0  0  0  0  0  0
    4.2913   -1.2233   -3.6238 C   0  0  1  0  0  0  0  0  0  0  0  0
    3.0553   -0.9919   -4.2441 O   0  0  0  0  0  0  0  0  0  0  0  0
    4.4382   -0.6311   -2.2935 N   0  0  0  0  0  0  0  0  0  0  0  0
    4.0973   -5.6329    0.2397 C   0  0  0  0  0  0  0  0  0  0  0  0
    3.6239   -6.6313    1.2905 C   0  0  1  0  0  0  0  0  0  0  0  0
    4.4933   -6.6266    2.4050 O   0  0  0  0  0  0  0  0  0  0  0  0
   -0.7198   -7.4170    1.1736 H   0  0  0  0  0  0  0  0  0  0  0  0
    1.2833   -7.9920    0.9664 H   0  0  0  0  0  0  0  0  0  0  0  0
    1.0917   -6.6659   -0.1612 H   0  0  0  0  0  0  0  0  0  0  0  0
    2.0303   -6.2698    2.7655 H   0  0  0  0  0  0  0  0  0  0  0  0
    2.2289   -4.9572   -0.7323 H   0  0  0  0  0  0  0  0  0  0  0  0
    3.1985   -2.3457    1.6679 H   0  0  0  0  0  0  0  0  0  0  0  0
    3.5967   -4.4565   -2.6975 H   0  0  0  0  0  0  0  0  0  0  0  0
    5.6003   -2.9204   -3.3649 H   0  0  0  0  0  0  0  0  0  0  0  0
    4.4061   -3.1939   -4.6104 H   0  0  0  0  0  0  0  0  0  0  0  0
    5.0217   -0.7567   -4.2756 H   0  0  0  0  0  0  0  0  0  0  0  0
    2.4276   -0.7428   -3.5833 H   0  0  0  0  0  0  0  0  0  0  0  0
    4.4595    0.3734   -2.1762 H   0  0  0  0  0  0  0  0  0  0  0  0
    4.3152   -6.1012   -0.7175 H   0  0  0  0  0  0  0  0  0  0  0  0
    4.9677   -5.0612    0.5693 H   0  0  0  0  0  0  0  0  0  0  0  0
    3.6055   -7.6515    0.9023 H   0  0  0  0  0  0  0  0  0  0  0  0
    4.5474   -5.7484    2.7488 H   0  0  0  0  0  0  0  0  0  0  0  0
    3.9880   -0.2268    0.5174 H   0  0  0  0  0  0  0  0  0  0  0  0
  1  2  1  0
  1 19  1  0
  2  3  1  0
  2 20  1  0
  2 21  1  0
  3 17  1  0
  3  4  1  0
  3 22  1  1
  4  5  1  0
  5  6  1  0
  5 16  1  0
  5 23  1  6
  6 10  1  0
  6  7  1  0
  7  8  2  0
  7 24  1  0
  8  9  1  0
  8 35  1  0
  9 15  1  0
  9 10  2  0
 10 11  1  0
 11 12  1  0
 11 25  1  0
 12 13  1  0
 12 26  1  0
 12 27  1  0
 13 14  1  0
 13 15  1  0
 13 28  1  6
 14 29  1  0
 15 30  1  0
 16 17  1  0
 16 31  1  0
 16 32  1  0
 17 18  1  0
 17 33  1  6
 18 34  1  0
M  CHG  1   8   1
M  END
>  <i_m_ct_stereo_status>  (139) 
1

>  <s_m_source_file>  (139) 
/var/tmp/pbs.5076255.sched01/tmp3foza_40/36o9al7bb4.sdf

>  <i_m_source_file_index>  (139) 
30

>  <i_lp_mmshare_version>  (139) 
48012

>  <i_f3d_flags>  (139) 
0

>  <s_epik_input>  (139) 
W09IXVtDSDJdW0NAQEhdMU9bQ0BIXShbQ0gyXVtDQEhdMVtPSF0pbihbY0hdbjIpYyhjMjMpW05IXVtDSDJdW0NAQEhdKFtPSF0pW05IXTM=

>  <s_epik_cmdline>  (139) 
J2VwaWtfcHl0aG9uJywgJy1waHQnLCAnMi4wJywgJy1waCcsICc3LjAnLCAnLXRuJywgJzgnLCAnLW1hJywgJzIwMCcsICctaW1hZScsICc8aW5maWxlLm1hZT4nLCAnLW9tYWUnLCAnPG91dGZpbGUubWFlPic=

>  <r_epik_Ionization_Penalty>  (139) 
0.360569

>  <r_epik_Ionization_Penalty_Charging>  (139) 
0

>  <r_epik_Ionization_Penalty_Neutral>  (139) 
0.360569

>  <r_epik_State_Penalty>  (139) 
0.357347

>  <r_epik_Charging_Adjusted_Penalty>  (139) 
0.357347

>  <i_epik_Tot_Q>  (139) 
1

>  <i_epik_Tot_abs_Q>  (139) 
1

>  <s_epik_Chemistry_Notes>  (139) 
This compound contains an acetal/aminal-like group ( X-CH(R)-Y where X, Y are N, S, or O) that may be acid/base labile, releasing an aldehyde.

>  <s_lp_Force_Field>  (139) 
OPLS3e

>  <r_lp_Energy>  (139) 
9.91571

>  <b_lp_Chiralities_Consistent>  (139) 
1

>  <s_lp_Variant>  (139) 
52:0-1

>  <s_i_glide_gridfile>  (139) 
pfpi4k_grid

>  <i_i_glide_lignum>  (139) 
30

>  <i_i_glide_rotatable_bonds>  (139) 
5

>  <r_i_docking_score>  (139) 
-4.64127

>  <r_i_glide_ligand_efficiency>  (139) 
-0.257848

>  <r_i_glide_ligand_efficiency_sa>  (139) 
-0.675754

>  <r_i_glide_ligand_efficiency_ln>  (139) 
-1.19301

>  <r_i_glide_gscore>  (139) 
-4.64127

>  <r_i_glide_lipo>  (139) 
-0.24283

>  <r_i_glide_hbond>  (139) 
-0.329017

>  <r_i_glide_metal>  (139) 
-0

>  <r_i_glide_rewards>  (139) 
-1.95514

>  <r_i_glide_evdw>  (139) 
-20.5085

>  <r_i_glide_ecoul>  (139) 
-9.72177

>  <r_i_glide_erotb>  (139) 
0.533115

>  <r_i_glide_esite>  (139) 
-0.163708

>  <r_i_glide_emodel>  (139) 
-38.632

>  <r_i_glide_energy>  (139) 
-30.2302

>  <r_i_glide_einternal>  (139) 
2.17747

>  <r_i_glide_intrahb_reward>  (139) 
-0

>  <i_i_glide_confnum>  (139) 
6

>  <i_i_glide_posenum>  (139) 
12

>  <r_i_glide_eff_state_penalty>  (139) 
0

>  <ligand_id>  (139) 
52

>  <original_smiles>  (139) 
OCC1OC(n2cnc3c2NCC(O)N3)CC1O

>  <smiles>  (139) 
[H]OC([H])([H])C1([H])OC([H])(n2c3c([n+]([H])c2[H])N([H])C([H])(O[H])C([H])([H])N3[H])C([H])([H])C1([H])O[H]

$$$$
52:0:2
     RDKit          3D

 35 37  0  0  1  0  0  0  0  0999 V2000
    0.0124   -6.6596    1.5164 O   0  0  0  0  0  0  0  0  0  0  0  0
    1.2788   -6.9209    0.9539 C   0  0  0  0  0  0  0  0  0  0  0  0
    2.3967   -6.1760    1.7335 C   0  0  2  0  0  0  0  0  0  0  0  0
    2.4210   -4.7980    1.3422 O   0  0  0  0  0  0  0  0  0  0  0  0
    3.0879   -4.7350    0.1200 C   0  0  1  0  0  0  0  0  0  0  0  0
    3.5180   -3.3406   -0.1879 N   0  0  0  0  0  0  0  0  0  0  0  0
    3.7316   -2.3044    0.6591 C   0  0  0  0  0  0  0  0  0  0  0  0
    4.1318   -1.1645    0.0808 N   0  0  0  0  0  0  0  0  0  0  0  0
    4.1782   -1.4744   -1.2507 C   0  0  0  0  0  0  0  0  0  0  0  0
    3.8236   -2.7949   -1.4053 C   0  0  0  0  0  0  0  0  0  0  0  0
    3.7972   -3.4533   -2.6312 N   0  0  0  0  0  0  0  0  0  0  0  0
    4.5368   -2.7600   -3.6732 C   0  0  0  0  0  0  0  0  0  0  0  0
    4.3204   -1.2211   -3.6226 C   0  0  1  0  0  0  0  0  0  0  0  0
    3.0485   -0.9364   -4.1439 O   0  0  0  0  0  0  0  0  0  0  0  0
    4.5808   -0.6491   -2.2995 N   0  0  0  0  0  0  0  0  0  0  0  0
    4.2804   -5.6762    0.2672 C   0  0  0  0  0  0  0  0  0  0  0  0
    3.8046   -6.6682    1.3267 C   0  0  1  0  0  0  0  0  0  0  0  0
    4.6779   -6.6766    2.4395 O   0  0  0  0  0  0  0  0  0  0  0  0
   -0.0845   -7.2399    2.2574 H   0  0  0  0  0  0  0  0  0  0  0  0
    1.4466   -7.9980    0.9926 H   0  0  0  0  0  0  0  0  0  0  0  0
    1.2480   -6.6568   -0.1018 H   0  0  0  0  0  0  0  0  0  0  0  0
    2.2352   -6.2832    2.8148 H   0  0  0  0  0  0  0  0  0  0  0  0
    2.4204   -4.9777   -0.7030 H   0  0  0  0  0  0  0  0  0  0  0  0
    3.5945   -2.4128    1.7165 H   0  0  0  0  0  0  0  0  0  0  0  0
    3.6069   -4.4611   -2.7028 H   0  0  0  0  0  0  0  0  0  0  0  0
    5.5884   -2.9661   -3.4897 H   0  0  0  0  0  0  0  0  0  0  0  0
    4.3049   -3.1799   -4.6473 H   0  0  0  0  0  0  0  0  0  0  0  0
    5.0120   -0.7674   -4.3233 H   0  0  0  0  0  0  0  0  0  0  0  0
    2.5247   -0.5356   -3.4657 H   0  0  0  0  0  0  0  0  0  0  0  0
    4.6368    0.3586   -2.1639 H   0  0  0  0  0  0  0  0  0  0  0  0
    4.4823   -6.1538   -0.6893 H   0  0  0  0  0  0  0  0  0  0  0  0
    5.1666   -5.1227    0.5877 H   0  0  0  0  0  0  0  0  0  0  0  0
    3.7723   -7.6878    0.9367 H   0  0  0  0  0  0  0  0  0  0  0  0
    4.6606   -5.8265    2.8521 H   0  0  0  0  0  0  0  0  0  0  0  0
    4.3637   -0.2980    0.5390 H   0  0  0  0  0  0  0  0  0  0  0  0
  1  2  1  0
  1 19  1  0
  2  3  1  0
  2 20  1  0
  2 21  1  0
  3 17  1  0
  3  4  1  0
  3 22  1  1
  4  5  1  0
  5  6  1  0
  5 16  1  0
  5 23  1  6
  6 10  1  0
  6  7  1  0
  7  8  2  0
  7 24  1  0
  8  9  1  0
  8 35  1  0
  9 15  1  0
  9 10  2  0
 10 11  1  0
 11 12  1  0
 11 25  1  0
 12 13  1  0
 12 26  1  0
 12 27  1  0
 13 14  1  0
 13 15  1  0
 13 28  1  6
 14 29  1  0
 15 30  1  0
 16 17  1  0
 16 31  1  0
 16 32  1  0
 17 18  1  0
 17 33  1  6
 18 34  1  0
M  CHG  1   8   1
M  END
>  <i_m_ct_stereo_status>  (140) 
1

>  <s_m_source_file>  (140) 
/var/tmp/pbs.5076255.sched01/tmp3foza_40/36o9al7bb4.sdf

>  <i_m_source_file_index>  (140) 
30

>  <i_lp_mmshare_version>  (140) 
48012

>  <i_f3d_flags>  (140) 
0

>  <s_epik_input>  (140) 
W09IXVtDSDJdW0NAQEhdMU9bQ0BIXShbQ0gyXVtDQEhdMVtPSF0pbihbY0hdbjIpYyhjMjMpW05IXVtDSDJdW0NAQEhdKFtPSF0pW05IXTM=

>  <s_epik_cmdline>  (140) 
J2VwaWtfcHl0aG9uJywgJy1waHQnLCAnMi4wJywgJy1waCcsICc3LjAnLCAnLXRuJywgJzgnLCAnLW1hJywgJzIwMCcsICctaW1hZScsICc8aW5maWxlLm1hZT4nLCAnLW9tYWUnLCAnPG91dGZpbGUubWFlPic=

>  <r_epik_Ionization_Penalty>  (140) 
0.360569

>  <r_epik_Ionization_Penalty_Charging>  (140) 
0

>  <r_epik_Ionization_Penalty_Neutral>  (140) 
0.360569

>  <r_epik_State_Penalty>  (140) 
0.357347

>  <r_epik_Charging_Adjusted_Penalty>  (140) 
0.357347

>  <i_epik_Tot_Q>  (140) 
1

>  <i_epik_Tot_abs_Q>  (140) 
1

>  <s_epik_Chemistry_Notes>  (140) 
This compound contains an acetal/aminal-like group ( X-CH(R)-Y where X, Y are N, S, or O) that may be acid/base labile, releasing an aldehyde.

>  <s_lp_Force_Field>  (140) 
OPLS3e

>  <r_lp_Energy>  (140) 
9.91571

>  <b_lp_Chiralities_Consistent>  (140) 
1

>  <s_lp_Variant>  (140) 
52:0-1

>  <s_i_glide_gridfile>  (140) 
pfpi4k_grid

>  <i_i_glide_lignum>  (140) 
30

>  <i_i_glide_rotatable_bonds>  (140) 
5

>  <r_i_docking_score>  (140) 
-4.54626

>  <r_i_glide_ligand_efficiency>  (140) 
-0.25257

>  <r_i_glide_ligand_efficiency_sa>  (140) 
-0.66192

>  <r_i_glide_ligand_efficiency_ln>  (140) 
-1.16859

>  <r_i_glide_gscore>  (140) 
-4.54626

>  <r_i_glide_lipo>  (140) 
-0.259352

>  <r_i_glide_hbond>  (140) 
-0.32

>  <r_i_glide_metal>  (140) 
-0

>  <r_i_glide_rewards>  (140) 
-1.9553

>  <r_i_glide_evdw>  (140) 
-20.7354

>  <r_i_glide_ecoul>  (140) 
-9.19734

>  <r_i_glide_erotb>  (140) 
0.533115

>  <r_i_glide_esite>  (140) 
-0.128347

>  <r_i_glide_emodel>  (140) 
-38.7191

>  <r_i_glide_energy>  (140) 
-29.9327

>  <r_i_glide_einternal>  (140) 
1.70788

>  <r_i_glide_intrahb_reward>  (140) 
-0

>  <i_i_glide_confnum>  (140) 
5

>  <i_i_glide_posenum>  (140) 
11

>  <r_i_glide_eff_state_penalty>  (140) 
0

>  <ligand_id>  (140) 
52

>  <original_smiles>  (140) 
OCC1OC(n2cnc3c2NCC(O)N3)CC1O

>  <smiles>  (140) 
[H]OC([H])([H])C1([H])OC([H])(n2c3c([n+]([H])c2[H])N([H])C([H])(O[H])C([H])([H])N3[H])C([H])([H])C1([H])O[H]

$$$$
52:1:0
     RDKit          3D

 34 36  0  0  1  0  0  0  0  0999 V2000
   -0.0340    2.1486    2.4699 O   0  0  0  0  0  0  0  0  0  0  0  0
    0.7574    1.0963    1.9692 C   0  0  0  0  0  0  0  0  0  0  0  0
    2.2532    1.2594    2.3727 C   0  0  2  0  0  0  0  0  0  0  0  0
    3.0606    0.8455    1.2828 O   0  0  0  0  0  0  0  0  0  0  0  0
    3.1347   -0.5364    1.3446 C   0  0  1  0  0  0  0  0  0  0  0  0
    4.2686   -1.0370    0.5135 N   0  0  0  0  0  0  0  0  0  0  0  0
    5.5989   -0.8142    0.6833 C   0  0  0  0  0  0  0  0  0  0  0  0
    6.3955   -1.4317   -0.1969 N   0  0  0  0  0  0  0  0  0  0  0  0
    5.4931   -2.0526   -1.0622 C   0  0  0  0  0  0  0  0  0  0  0  0
    4.2090   -1.8664   -0.5916 C   0  0  0  0  0  0  0  0  0  0  0  0
    3.0531   -2.3702   -1.2054 N   0  0  0  0  0  0  0  0  0  0  0  0
    3.2934   -3.2963   -2.3300 C   0  0  0  0  0  0  0  0  0  0  0  0
    4.6089   -3.0129   -3.1191 C   0  0  1  0  0  0  0  0  0  0  0  0
    4.2759   -1.9589   -3.9825 O   0  0  0  0  0  0  0  0  0  0  0  0
    5.7684   -2.7407   -2.2459 N   0  0  0  0  0  0  0  0  0  0  0  0
    3.3015   -0.8870    2.8243 C   0  0  0  0  0  0  0  0  0  0  0  0
    2.6809    0.3215    3.5291 C   0  0  1  0  0  0  0  0  0  0  0  0
    3.6364    0.9652    4.3510 O   0  0  0  0  0  0  0  0  0  0  0  0
    0.1130    2.9100    1.9094 H   0  0  0  0  0  0  0  0  0  0  0  0
    0.3385    0.1484    2.3069 H   0  0  0  0  0  0  0  0  0  0  0  0
    0.6260    1.0948    0.8854 H   0  0  0  0  0  0  0  0  0  0  0  0
    2.5131    2.3051    2.5596 H   0  0  0  0  0  0  0  0  0  0  0  0
    2.2345   -0.9705    0.9057 H   0  0  0  0  0  0  0  0  0  0  0  0
    5.9608   -0.2276    1.5209 H   0  0  0  0  0  0  0  0  0  0  0  0
    2.1053   -1.9816   -1.0255 H   0  0  0  0  0  0  0  0  0  0  0  0
    3.4302   -4.2582   -1.8586 H   0  0  0  0  0  0  0  0  0  0  0  0
    2.4257   -3.4045   -2.9805 H   0  0  0  0  0  0  0  0  0  0  0  0
    4.8533   -3.8692   -3.7540 H   0  0  0  0  0  0  0  0  0  0  0  0
    3.5912   -1.4615   -3.5529 H   0  0  0  0  0  0  0  0  0  0  0  0
    6.7257   -2.8348   -2.5940 H   0  0  0  0  0  0  0  0  0  0  0  0
    2.7643   -1.8055    3.0262 H   0  0  0  0  0  0  0  0  0  0  0  0
    4.3464   -1.0334    3.0948 H   0  0  0  0  0  0  0  0  0  0  0  0
    1.8395    0.0569    4.1755 H   0  0  0  0  0  0  0  0  0  0  0  0
    4.2551    1.4044    3.7859 H   0  0  0  0  0  0  0  0  0  0  0  0
  1  2  1  0
  1 19  1  0
  2  3  1  0
  2 20  1  0
  2 21  1  0
  3 17  1  0
  3  4  1  0
  3 22  1  1
  4  5  1  0
  5  6  1  0
  5 16  1  0
  5 23  1  6
  6 10  1  0
  6  7  1  0
  7  8  2  0
  7 24  1  0
  8  9  1  0
  9 15  1  0
  9 10  2  0
 10 11  1  0
 11 12  1  0
 11 25  1  0
 12 13  1  0
 12 26  1  0
 12 27  1  0
 13 14  1  0
 13 15  1  0
 13 28  1  6
 14 29  1  0
 15 30  1  0
 16 17  1  0
 16 31  1  0
 16 32  1  0
 17 18  1  0
 17 33  1  1
 18 34  1  0
M  END
>  <i_m_ct_stereo_status>  (141) 
1

>  <s_m_source_file>  (141) 
/var/tmp/pbs.5076255.sched01/tmp3foza_40/36o9al7bb4.sdf

>  <i_m_source_file_index>  (141) 
31

>  <i_lp_mmshare_version>  (141) 
48012

>  <i_f3d_flags>  (141) 
0

>  <s_epik_input>  (141) 
W09IXVtDSDJdW0NAQEhdMU9bQ0BIXShbQ0gyXVtDQEhdMVtPSF0pbihbY0hdbjIpYyhjMjMpW05IXVtDSDJdW0NAQEhdKFtPSF0pW05IXTM=

>  <s_epik_cmdline>  (141) 
J2VwaWtfcHl0aG9uJywgJy1waHQnLCAnMi4wJywgJy1waCcsICc3LjAnLCAnLXRuJywgJzgnLCAnLW1hJywgJzIwMCcsICctaW1hZScsICc8aW5maWxlLm1hZT4nLCAnLW9tYWUnLCAnPG91dGZpbGUubWFlPic=

>  <r_epik_Ionization_Penalty>  (141) 
0.465462

>  <r_epik_Ionization_Penalty_Charging>  (141) 
0.465453

>  <r_epik_Ionization_Penalty_Neutral>  (141) 
9.07506e-06

>  <r_epik_State_Penalty>  (141) 
0.469293

>  <r_epik_Charging_Adjusted_Penalty>  (141) 
0.934746

>  <i_epik_Tot_Q>  (141) 
0

>  <i_epik_Tot_abs_Q>  (141) 
0

>  <s_epik_Chemistry_Notes>  (141) 
This compound contains an acetal/aminal-like group ( X-CH(R)-Y where X, Y are N, S, or O) that may be acid/base labile, releasing an aldehyde.

>  <s_lp_Force_Field>  (141) 
OPLS3e

>  <r_lp_Energy>  (141) 
5.64698

>  <b_lp_Chiralities_Consistent>  (141) 
1

>  <s_lp_Variant>  (141) 
52:0-2

>  <s_i_glide_gridfile>  (141) 
pfpi4k_grid

>  <i_i_glide_lignum>  (141) 
31

>  <i_i_glide_rotatable_bonds>  (141) 
5

>  <r_i_docking_score>  (141) 
-5.32569

>  <r_i_glide_ligand_efficiency>  (141) 
-0.295872

>  <r_i_glide_ligand_efficiency_sa>  (141) 
-0.775404

>  <r_i_glide_ligand_efficiency_ln>  (141) 
-1.36894

>  <r_i_glide_gscore>  (141) 
-5.32569

>  <r_i_glide_lipo>  (141) 
-0.0346284

>  <r_i_glide_hbond>  (141) 
-0.525068

>  <r_i_glide_metal>  (141) 
-0

>  <r_i_glide_rewards>  (141) 
-2.02617

>  <r_i_glide_evdw>  (141) 
-20.5279

>  <r_i_glide_ecoul>  (141) 
-14.2519

>  <r_i_glide_erotb>  (141) 
0.536726

>  <r_i_glide_esite>  (141) 
-0.112369

>  <r_i_glide_emodel>  (141) 
-44.7981

>  <r_i_glide_energy>  (141) 
-34.7798

>  <r_i_glide_einternal>  (141) 
2.03387

>  <r_i_glide_intrahb_reward>  (141) 
-0

>  <i_i_glide_confnum>  (141) 
3

>  <i_i_glide_posenum>  (141) 
9

>  <r_i_glide_eff_state_penalty>  (141) 
0

>  <ligand_id>  (141) 
52

>  <original_smiles>  (141) 
OCC1OC(n2cnc3c2NCC(O)N3)CC1O

>  <smiles>  (141) 
[H]OC([H])([H])C1([H])OC([H])(n2c([H])nc3c2N([H])C([H])([H])C([H])(O[H])N3[H])C([H])([H])C1([H])O[H]

$$$$
52:1:1
     RDKit          3D

 34 36  0  0  1  0  0  0  0  0999 V2000
    3.7641   -0.0155   -3.3755 O   0  0  0  0  0  0  0  0  0  0  0  0
    4.1984   -0.7053   -2.2194 C   0  0  0  0  0  0  0  0  0  0  0  0
    3.7897   -2.1954   -2.2542 C   0  0  2  0  0  0  0  0  0  0  0  0
    4.1336   -2.7815   -0.9991 O   0  0  0  0  0  0  0  0  0  0  0  0
    5.4999   -3.0474   -1.0401 C   0  0  1  0  0  0  0  0  0  0  0  0
    5.8704   -4.0494   -0.0058 N   0  0  0  0  0  0  0  0  0  0  0  0
    7.0729   -4.1607    0.6089 C   0  0  0  0  0  0  0  0  0  0  0  0
    7.1659   -5.1469    1.4985 N   0  0  0  0  0  0  0  0  0  0  0  0
    5.9148   -5.7500    1.4362 C   0  0  0  0  0  0  0  0  0  0  0  0
    5.1172   -5.0653    0.5514 C   0  0  0  0  0  0  0  0  0  0  0  0
    3.8023   -5.3873    0.2632 N   0  0  0  0  0  0  0  0  0  0  0  0
    3.2144   -6.4534    1.0880 C   0  0  0  0  0  0  0  0  0  0  0  0
    4.2670   -7.5141    1.5831 C   0  0  1  0  0  0  0  0  0  0  0  0
    4.5463   -8.3786    0.4956 O   0  0  0  0  0  0  0  0  0  0  0  0
    5.4684   -6.8743    2.1373 N   0  0  0  0  0  0  0  0  0  0  0  0
    5.7704   -3.5768   -2.4474 C   0  0  0  0  0  0  0  0  0  0  0  0
    4.6454   -2.9623   -3.2704 C   0  0  1  0  0  0  0  0  0  0  0  0
    3.9051   -3.9396   -3.9562 O   0  0  0  0  0  0  0  0  0  0  0  0
    2.9049    0.3461   -3.1979 H   0  0  0  0  0  0  0  0  0  0  0  0
    5.2813   -0.5813   -2.1837 H   0  0  0  0  0  0  0  0  0  0  0  0
    3.8157   -0.2591   -1.3115 H   0  0  0  0  0  0  0  0  0  0  0  0
    2.7125   -2.3056   -2.4234 H   0  0  0  0  0  0  0  0  0  0  0  0
    6.0788   -2.1725   -0.7578 H   0  0  0  0  0  0  0  0  0  0  0  0
    7.8662   -3.4535    0.4060 H   0  0  0  0  0  0  0  0  0  0  0  0
    3.2542   -4.8533   -0.4017 H   0  0  0  0  0  0  0  0  0  0  0  0
    2.8535   -5.9261    1.9688 H   0  0  0  0  0  0  0  0  0  0  0  0
    2.3243   -6.8934    0.6284 H   0  0  0  0  0  0  0  0  0  0  0  0
    3.8004   -8.1230    2.3605 H   0  0  0  0  0  0  0  0  0  0  0  0
    4.1858   -9.2394    0.6585 H   0  0  0  0  0  0  0  0  0  0  0  0
    6.1362   -7.4314    2.6619 H   0  0  0  0  0  0  0  0  0  0  0  0
    6.7613   -3.2664   -2.7762 H   0  0  0  0  0  0  0  0  0  0  0  0
    5.6695   -4.6510   -2.4454 H   0  0  0  0  0  0  0  0  0  0  0  0
    4.9971   -2.2759   -4.0345 H   0  0  0  0  0  0  0  0  0  0  0  0
    3.6664   -4.6539   -3.3703 H   0  0  0  0  0  0  0  0  0  0  0  0
  1  2  1  0
  1 19  1  0
  2  3  1  0
  2 20  1  0
  2 21  1  0
  3 17  1  0
  3  4  1  0
  3 22  1  6
  4  5  1  0
  5  6  1  0
  5 16  1  0
  5 23  1  1
  6 10  1  0
  6  7  1  0
  7  8  2  0
  7 24  1  0
  8  9  1  0
  9 15  1  0
  9 10  2  0
 10 11  1  0
 11 12  1  0
 11 25  1  0
 12 13  1  0
 12 26  1  0
 12 27  1  0
 13 14  1  0
 13 15  1  0
 13 28  1  1
 14 29  1  0
 15 30  1  0
 16 17  1  0
 16 31  1  0
 16 32  1  0
 17 18  1  0
 17 33  1  6
 18 34  1  0
M  END
>  <i_m_ct_stereo_status>  (142) 
1

>  <s_m_source_file>  (142) 
/var/tmp/pbs.5076255.sched01/tmp3foza_40/36o9al7bb4.sdf

>  <i_m_source_file_index>  (142) 
31

>  <i_lp_mmshare_version>  (142) 
48012

>  <i_f3d_flags>  (142) 
0

>  <s_epik_input>  (142) 
W09IXVtDSDJdW0NAQEhdMU9bQ0BIXShbQ0gyXVtDQEhdMVtPSF0pbihbY0hdbjIpYyhjMjMpW05IXVtDSDJdW0NAQEhdKFtPSF0pW05IXTM=

>  <s_epik_cmdline>  (142) 
J2VwaWtfcHl0aG9uJywgJy1waHQnLCAnMi4wJywgJy1waCcsICc3LjAnLCAnLXRuJywgJzgnLCAnLW1hJywgJzIwMCcsICctaW1hZScsICc8aW5maWxlLm1hZT4nLCAnLW9tYWUnLCAnPG91dGZpbGUubWFlPic=

>  <r_epik_Ionization_Penalty>  (142) 
0.465462

>  <r_epik_Ionization_Penalty_Charging>  (142) 
0.465453

>  <r_epik_Ionization_Penalty_Neutral>  (142) 
9.07506e-06

>  <r_epik_State_Penalty>  (142) 
0.469293

>  <r_epik_Charging_Adjusted_Penalty>  (142) 
0.934746

>  <i_epik_Tot_Q>  (142) 
0

>  <i_epik_Tot_abs_Q>  (142) 
0

>  <s_epik_Chemistry_Notes>  (142) 
This compound contains an acetal/aminal-like group ( X-CH(R)-Y where X, Y are N, S, or O) that may be acid/base labile, releasing an aldehyde.

>  <s_lp_Force_Field>  (142) 
OPLS3e

>  <r_lp_Energy>  (142) 
5.64698

>  <b_lp_Chiralities_Consistent>  (142) 
1

>  <s_lp_Variant>  (142) 
52:0-2

>  <s_i_glide_gridfile>  (142) 
pfpi4k_grid

>  <i_i_glide_lignum>  (142) 
31

>  <i_i_glide_rotatable_bonds>  (142) 
5

>  <r_i_docking_score>  (142) 
-4.16914

>  <r_i_glide_ligand_efficiency>  (142) 
-0.231619

>  <r_i_glide_ligand_efficiency_sa>  (142) 
-0.607013

>  <r_i_glide_ligand_efficiency_ln>  (142) 
-1.07166

>  <r_i_glide_gscore>  (142) 
-4.16914

>  <r_i_glide_lipo>  (142) 
-0.541191

>  <r_i_glide_hbond>  (142) 
-0.105186

>  <r_i_glide_metal>  (142) 
-0

>  <r_i_glide_rewards>  (142) 
-2.0559

>  <r_i_glide_evdw>  (142) 
-19.205

>  <r_i_glide_ecoul>  (142) 
-6.91332

>  <r_i_glide_erotb>  (142) 
0.536726

>  <r_i_glide_esite>  (142) 
-0.00634604

>  <r_i_glide_emodel>  (142) 
-34.1813

>  <r_i_glide_energy>  (142) 
-26.1183

>  <r_i_glide_einternal>  (142) 
1.34769

>  <r_i_glide_intrahb_reward>  (142) 
-0

>  <i_i_glide_confnum>  (142) 
5

>  <i_i_glide_posenum>  (142) 
8

>  <r_i_glide_eff_state_penalty>  (142) 
0

>  <ligand_id>  (142) 
52

>  <original_smiles>  (142) 
OCC1OC(n2cnc3c2NCC(O)N3)CC1O

>  <smiles>  (142) 
[H]OC([H])([H])C1([H])OC([H])(n2c([H])nc3c2N([H])C([H])([H])C([H])(O[H])N3[H])C([H])([H])C1([H])O[H]

$$$$
52:1:2
     RDKit          3D

 34 36  0  0  1  0  0  0  0  0999 V2000
    0.4391   -6.3008    1.0545 O   0  0  0  0  0  0  0  0  0  0  0  0
    1.7521   -6.3193    1.5780 C   0  0  0  0  0  0  0  0  0  0  0  0
    2.2779   -4.8863    1.8377 C   0  0  2  0  0  0  0  0  0  0  0  0
    2.6229   -4.2770    0.5904 O   0  0  0  0  0  0  0  0  0  0  0  0
    3.8820   -4.7513    0.2360 C   0  0  1  0  0  0  0  0  0  0  0  0
    4.5032   -3.8482   -0.7807 N   0  0  0  0  0  0  0  0  0  0  0  0
    5.8028   -3.4918   -0.8853 C   0  0  0  0  0  0  0  0  0  0  0  0
    6.1103   -2.7228   -1.9337 N   0  0  0  0  0  0  0  0  0  0  0  0
    4.8815   -2.5948   -2.5750 C   0  0  0  0  0  0  0  0  0  0  0  0
    3.9126   -3.2762   -1.8919 C   0  0  0  0  0  0  0  0  0  0  0  0
    2.5751   -3.3642   -2.2814 N   0  0  0  0  0  0  0  0  0  0  0  0
    2.2958   -2.8193   -3.6131 C   0  0  0  0  0  0  0  0  0  0  0  0
    3.1960   -1.5857   -3.9354 C   0  0  1  0  0  0  0  0  0  0  0  0
    2.7928   -0.4964   -3.1539 O   0  0  0  0  0  0  0  0  0  0  0  0
    4.6108   -1.8890   -3.7503 N   0  0  0  0  0  0  0  0  0  0  0  0
    4.6862   -4.7909    1.5374 C   0  0  0  0  0  0  0  0  0  0  0  0
    3.6116   -4.9013    2.6084 C   0  0  1  0  0  0  0  0  0  0  0  0
    3.6900   -3.8072    3.5031 O   0  0  0  0  0  0  0  0  0  0  0  0
    0.1950   -7.2011    0.8759 H   0  0  0  0  0  0  0  0  0  0  0  0
    1.7220   -6.8752    2.5147 H   0  0  0  0  0  0  0  0  0  0  0  0
    2.3945   -6.8909    0.9107 H   0  0  0  0  0  0  0  0  0  0  0  0
    1.5212   -4.2997    2.3621 H   0  0  0  0  0  0  0  0  0  0  0  0
    3.8242   -5.7032   -0.2904 H   0  0  0  0  0  0  0  0  0  0  0  0
    6.5559   -3.8474   -0.1964 H   0  0  0  0  0  0  0  0  0  0  0  0
    1.9291   -4.0340   -1.8802 H   0  0  0  0  0  0  0  0  0  0  0  0
    2.5438   -3.6076   -4.3213 H   0  0  0  0  0  0  0  0  0  0  0  0
    1.2323   -2.6436   -3.7559 H   0  0  0  0  0  0  0  0  0  0  0  0
    3.0487   -1.2861   -4.9710 H   0  0  0  0  0  0  0  0  0  0  0  0
    2.1882   -0.8126   -2.4884 H   0  0  0  0  0  0  0  0  0  0  0  0
    5.2866   -1.2073   -4.0560 H   0  0  0  0  0  0  0  0  0  0  0  0
    5.3646   -5.6391    1.5282 H   0  0  0  0  0  0  0  0  0  0  0  0
    5.2566   -3.8778    1.6728 H   0  0  0  0  0  0  0  0  0  0  0  0
    3.7192   -5.8118    3.1984 H   0  0  0  0  0  0  0  0  0  0  0  0
    3.6526   -3.0045    3.0018 H   0  0  0  0  0  0  0  0  0  0  0  0
  1  2  1  0
  1 19  1  0
  2  3  1  0
  2 20  1  0
  2 21  1  0
  3 17  1  0
  3  4  1  0
  3 22  1  1
  4  5  1  0
  5  6  1  0
  5 16  1  0
  5 23  1  6
  6 10  1  0
  6  7  1  0
  7  8  2  0
  7 24  1  0
  8  9  1  0
  9 15  1  0
  9 10  2  0
 10 11  1  0
 11 12  1  0
 11 25  1  0
 12 13  1  0
 12 26  1  0
 12 27  1  0
 13 14  1  0
 13 15  1  0
 13 28  1  6
 14 29  1  0
 15 30  1  0
 16 17  1  0
 16 31  1  0
 16 32  1  0
 17 18  1  0
 17 33  1  1
 18 34  1  0
M  END
>  <i_m_ct_stereo_status>  (143) 
1

>  <s_m_source_file>  (143) 
/var/tmp/pbs.5076255.sched01/tmp3foza_40/36o9al7bb4.sdf

>  <i_m_source_file_index>  (143) 
31

>  <i_lp_mmshare_version>  (143) 
48012

>  <i_f3d_flags>  (143) 
0

>  <s_epik_input>  (143) 
W09IXVtDSDJdW0NAQEhdMU9bQ0BIXShbQ0gyXVtDQEhdMVtPSF0pbihbY0hdbjIpYyhjMjMpW05IXVtDSDJdW0NAQEhdKFtPSF0pW05IXTM=

>  <s_epik_cmdline>  (143) 
J2VwaWtfcHl0aG9uJywgJy1waHQnLCAnMi4wJywgJy1waCcsICc3LjAnLCAnLXRuJywgJzgnLCAnLW1hJywgJzIwMCcsICctaW1hZScsICc8aW5maWxlLm1hZT4nLCAnLW9tYWUnLCAnPG91dGZpbGUubWFlPic=

>  <r_epik_Ionization_Penalty>  (143) 
0.465462

>  <r_epik_Ionization_Penalty_Charging>  (143) 
0.465453

>  <r_epik_Ionization_Penalty_Neutral>  (143) 
9.07506e-06

>  <r_epik_State_Penalty>  (143) 
0.469293

>  <r_epik_Charging_Adjusted_Penalty>  (143) 
0.934746

>  <i_epik_Tot_Q>  (143) 
0

>  <i_epik_Tot_abs_Q>  (143) 
0

>  <s_epik_Chemistry_Notes>  (143) 
This compound contains an acetal/aminal-like group ( X-CH(R)-Y where X, Y are N, S, or O) that may be acid/base labile, releasing an aldehyde.

>  <s_lp_Force_Field>  (143) 
OPLS3e

>  <r_lp_Energy>  (143) 
5.64698

>  <b_lp_Chiralities_Consistent>  (143) 
1

>  <s_lp_Variant>  (143) 
52:0-2

>  <s_i_glide_gridfile>  (143) 
pfpi4k_grid

>  <i_i_glide_lignum>  (143) 
31

>  <i_i_glide_rotatable_bonds>  (143) 
5

>  <r_i_docking_score>  (143) 
-3.7983

>  <r_i_glide_ligand_efficiency>  (143) 
-0.211017

>  <r_i_glide_ligand_efficiency_sa>  (143) 
-0.55302

>  <r_i_glide_ligand_efficiency_ln>  (143) 
-0.976334

>  <r_i_glide_gscore>  (143) 
-3.7983

>  <r_i_glide_lipo>  (143) 
-0.446323

>  <r_i_glide_hbond>  (143) 
-0.0946984

>  <r_i_glide_metal>  (143) 
-0

>  <r_i_glide_rewards>  (143) 
-1.91347

>  <r_i_glide_evdw>  (143) 
-17.7948

>  <r_i_glide_ecoul>  (143) 
-6.56398

>  <r_i_glide_erotb>  (143) 
0.536726

>  <r_i_glide_esite>  (143) 
-0.0062041

>  <r_i_glide_emodel>  (143) 
-30.3744

>  <r_i_glide_energy>  (143) 
-24.3588

>  <r_i_glide_einternal>  (143) 
2.5553

>  <r_i_glide_intrahb_reward>  (143) 
-0

>  <i_i_glide_confnum>  (143) 
2

>  <i_i_glide_posenum>  (143) 
23

>  <r_i_glide_eff_state_penalty>  (143) 
0

>  <ligand_id>  (143) 
52

>  <original_smiles>  (143) 
OCC1OC(n2cnc3c2NCC(O)N3)CC1O

>  <smiles>  (143) 
[H]OC([H])([H])C1([H])OC([H])(n2c([H])nc3c2N([H])C([H])([H])C([H])(O[H])N3[H])C([H])([H])C1([H])O[H]

$$$$
53:0:0
     RDKit          3D

 50 53  0  0  1  0  0  0  0  0999 V2000
    6.7948   -1.3135    0.8345 C   0  0  0  0  0  0  0  0  0  0  0  0
    5.6998   -2.3651    0.5419 C   0  0  1  0  0  0  0  0  0  0  0  0
    6.2198   -3.7564    0.9608 C   0  0  0  0  0  0  0  0  0  0  0  0
    5.1387   -4.8239    1.0743 C   0  0  0  0  0  0  0  0  0  0  0  0
    4.0780   -4.4188    2.1158 C   0  0  1  0  0  0  0  0  0  0  0  0
    3.4068   -3.0995    1.6705 C   0  0  1  0  0  0  0  0  0  0  0  0
    2.4264   -2.6112    2.7624 C   0  0  0  0  0  0  0  0  0  0  0  0
    1.5567   -3.7117    3.3255 C   0  0  0  0  0  0  0  0  0  0  0  0
    1.8197   -5.0229    3.2011 C   0  0  0  0  0  0  0  0  0  0  0  0
    0.8089   -6.0640    3.6562 C   0  0  0  0  0  0  0  0  0  0  0  0
    0.3569   -6.8478    2.4254 C   0  0  0  0  0  0  0  0  0  0  0  0
   -0.8306   -6.9950    2.1676 O   0  0  0  0  0  0  0  0  0  0  0  0
    1.4580   -7.3929    1.5134 C   0  0  0  0  0  0  0  0  0  0  0  0
    2.5500   -6.3336    1.2211 C   0  0  0  0  0  0  0  0  0  0  0  0
    3.0638   -5.5715    2.4794 C   0  0  1  0  0  0  0  0  0  0  0  0
    3.7993   -6.5626    3.4173 C   0  0  0  0  0  0  0  0  0  0  0  0
    4.3955   -1.9417    1.2937 C   0  0  2  0  0  0  0  0  0  0  0  0
    3.7002   -0.9957    0.2810 C   0  0  0  0  0  0  0  0  0  0  0  0
    4.2163   -1.4717   -1.0521 C   0  0  0  0  0  0  0  0  0  0  0  0
    5.3078   -2.2198   -0.9198 C   0  0  0  0  0  0  0  0  0  0  0  0
    6.0989   -2.8491   -2.0532 C   0  0  0  0  0  0  0  0  0  0  0  0
    7.4850   -2.5832   -1.9187 O   0  0  0  0  0  0  0  0  0  0  0  0
    6.9756   -1.2303    1.9065 H   0  0  0  0  0  0  0  0  0  0  0  0
    6.4992   -0.3232    0.4774 H   0  0  0  0  0  0  0  0  0  0  0  0
    7.7496   -1.5551    0.3629 H   0  0  0  0  0  0  0  0  0  0  0  0
    7.0035   -4.0970    0.2818 H   0  0  0  0  0  0  0  0  0  0  0  0
    6.6890   -3.6588    1.9373 H   0  0  0  0  0  0  0  0  0  0  0  0
    4.6893   -4.9793    0.0939 H   0  0  0  0  0  0  0  0  0  0  0  0
    5.6155   -5.7592    1.3639 H   0  0  0  0  0  0  0  0  0  0  0  0
    4.6020   -4.1800    3.0424 H   0  0  0  0  0  0  0  0  0  0  0  0
    2.8232   -3.3417    0.7820 H   0  0  0  0  0  0  0  0  0  0  0  0
    2.9648   -2.1721    3.6036 H   0  0  0  0  0  0  0  0  0  0  0  0
    1.7688   -1.8438    2.3529 H   0  0  0  0  0  0  0  0  0  0  0  0
    0.6583   -3.3793    3.8262 H   0  0  0  0  0  0  0  0  0  0  0  0
    1.2327   -6.7408    4.3947 H   0  0  0  0  0  0  0  0  0  0  0  0
   -0.0523   -5.5816    4.1203 H   0  0  0  0  0  0  0  0  0  0  0  0
    1.8965   -8.2710    1.9885 H   0  0  0  0  0  0  0  0  0  0  0  0
    1.0152   -7.7446    0.5811 H   0  0  0  0  0  0  0  0  0  0  0  0
    3.3788   -6.8278    0.7077 H   0  0  0  0  0  0  0  0  0  0  0  0
    2.1452   -5.6105    0.5109 H   0  0  0  0  0  0  0  0  0  0  0  0
    4.6953   -6.9715    2.9537 H   0  0  0  0  0  0  0  0  0  0  0  0
    3.1894   -7.4211    3.6996 H   0  0  0  0  0  0  0  0  0  0  0  0
    4.1039   -6.0719    4.3433 H   0  0  0  0  0  0  0  0  0  0  0  0
    4.6658   -1.4003    2.2055 H   0  0  0  0  0  0  0  0  0  0  0  0
    2.6171   -1.0396    0.3251 H   0  0  0  0  0  0  0  0  0  0  0  0
    4.0085    0.0432    0.4188 H   0  0  0  0  0  0  0  0  0  0  0  0
    3.7588   -1.1790   -1.9855 H   0  0  0  0  0  0  0  0  0  0  0  0
    5.9389   -3.9260   -2.0390 H   0  0  0  0  0  0  0  0  0  0  0  0
    5.7386   -2.4839   -3.0153 H   0  0  0  0  0  0  0  0  0  0  0  0
    7.9438   -2.9630   -2.6618 H   0  0  0  0  0  0  0  0  0  0  0  0
  2  1  1  1
  1 23  1  0
  1 24  1  0
  1 25  1  0
  2 17  1  0
  2 20  1  0
  2  3  1  0
  3  4  1  0
  3 26  1  0
  3 27  1  0
  4  5  1  0
  4 28  1  0
  4 29  1  0
  5 15  1  0
  5  6  1  0
  5 30  1  1
  6  7  1  0
  6 17  1  0
  6 31  1  6
  7  8  1  0
  7 32  1  0
  7 33  1  0
  8  9  2  0
  8 34  1  0
  9 15  1  0
  9 10  1  0
 10 11  1  0
 10 35  1  0
 10 36  1  0
 11 12  2  0
 11 13  1  0
 13 14  1  0
 13 37  1  0
 13 38  1  0
 14 15  1  0
 14 39  1  0
 14 40  1  0
 15 16  1  1
 16 41  1  0
 16 42  1  0
 16 43  1  0
 17 18  1  0
 17 44  1  1
 18 19  1  0
 18 45  1  0
 18 46  1  0
 19 20  2  0
 19 47  1  0
 20 21  1  0
 21 22  1  0
 21 48  1  0
 21 49  1  0
 22 50  1  0
M  END
>  <i_m_ct_stereo_status>  (144) 
1

>  <s_m_source_file>  (144) 
/var/tmp/pbs.5076255.sched01/tmp3foza_40/36o9al7bb4.sdf

>  <i_m_source_file_index>  (144) 
32

>  <i_lp_mmshare_version>  (144) 
48012

>  <i_f3d_flags>  (144) 
0

>  <s_epik_input>  (144) 
W09IXVtDSDJdQzE9W0NIXVtDSDJdW0NASF0oW0NAXTEyW0NIM10pW0NASF0zW0NASF0oW0NIMl1bQ0gyXTIpW0NAQF00KFtDSDNdKUMoPVtDSF1bQ0gyXTMpW0NIMl1DKD1PKVtDSDJdW0NIMl00

>  <s_epik_cmdline>  (144) 
J2VwaWtfcHl0aG9uJywgJy1waHQnLCAnMi4wJywgJy1waCcsICc3LjAnLCAnLXRuJywgJzgnLCAnLW1hJywgJzIwMCcsICctaW1hZScsICc8aW5maWxlLm1hZT4nLCAnLW9tYWUnLCAnPG91dGZpbGUubWFlPic=

>  <r_lp_tautomer_probability>  (144) 
1

>  <r_epik_Ionization_Penalty>  (144) 
3.15079e-07

>  <r_epik_Ionization_Penalty_Charging>  (144) 
0

>  <r_epik_Ionization_Penalty_Neutral>  (144) 
3.15079e-07

>  <r_epik_State_Penalty>  (144) 
-0

>  <r_epik_Charging_Adjusted_Penalty>  (144) 
0

>  <i_epik_Tot_Q>  (144) 
0

>  <i_epik_Tot_abs_Q>  (144) 
0

>  <s_lp_Force_Field>  (144) 
OPLS3e

>  <r_lp_Energy>  (144) 
32.03

>  <b_lp_Chiralities_Consistent>  (144) 
1

>  <s_lp_Variant>  (144) 
53:0-1

>  <s_i_glide_gridfile>  (144) 
pfpi4k_grid

>  <i_i_glide_lignum>  (144) 
32

>  <i_i_glide_rotatable_bonds>  (144) 
2

>  <r_i_docking_score>  (144) 
-4.29542

>  <r_i_glide_ligand_efficiency>  (144) 
-0.195246

>  <r_i_glide_ligand_efficiency_sa>  (144) 
-0.547087

>  <r_i_glide_ligand_efficiency_ln>  (144) 
-1.04996

>  <r_i_glide_gscore>  (144) 
-4.29542

>  <r_i_glide_lipo>  (144) 
-0.274988

>  <r_i_glide_hbond>  (144) 
-0.64

>  <r_i_glide_metal>  (144) 
-0

>  <r_i_glide_rewards>  (144) 
-1.36067

>  <r_i_glide_evdw>  (144) 
-20.0408

>  <r_i_glide_ecoul>  (144) 
-7.63761

>  <r_i_glide_erotb>  (144) 
0.203649

>  <r_i_glide_esite>  (144) 
-0.0757259

>  <r_i_glide_emodel>  (144) 
-35.1747

>  <r_i_glide_energy>  (144) 
-27.6784

>  <r_i_glide_einternal>  (144) 
0.560947

>  <r_i_glide_intrahb_reward>  (144) 
-0

>  <i_i_glide_confnum>  (144) 
4

>  <i_i_glide_posenum>  (144) 
31

>  <r_i_glide_eff_state_penalty>  (144) 
0

>  <ligand_id>  (144) 
53

>  <original_smiles>  (144) 
CC12CCC3C(CC=C4CC(=O)CCC43C)C1CC=C2CO

>  <smiles>  (144) 
[H]OC([H])([H])C1=C([H])C([H])([H])C2([H])C3([H])C([H])([H])C([H])=C4C([H])([H])C(=O)C([H])([H])C([H])([H])C4(C([H])([H])[H])C3([H])C([H])([H])C([H])([H])C12C([H])([H])[H]

$$$$
53:0:1
     RDKit          3D

 50 53  0  0  1  0  0  0  0  0999 V2000
    6.0382   -3.4116   -1.9408 C   0  0  0  0  0  0  0  0  0  0  0  0
    4.8181   -3.0886   -1.0522 C   0  0  1  0  0  0  0  0  0  0  0  0
    4.3640   -4.3869   -0.3634 C   0  0  0  0  0  0  0  0  0  0  0  0
    3.4004   -4.1872    0.8035 C   0  0  0  0  0  0  0  0  0  0  0  0
    4.0498   -3.3270    1.9051 C   0  0  1  0  0  0  0  0  0  0  0  0
    4.4024   -1.9410    1.3212 C   0  0  1  0  0  0  0  0  0  0  0  0
    5.1700   -1.1083    2.3736 C   0  0  0  0  0  0  0  0  0  0  0  0
    4.5573   -1.1796    3.7539 C   0  0  0  0  0  0  0  0  0  0  0  0
    3.6891   -2.1239    4.1525 C   0  0  0  0  0  0  0  0  0  0  0  0
    2.9965   -2.0161    5.5055 C   0  0  0  0  0  0  0  0  0  0  0  0
    1.4985   -1.8691    5.2577 C   0  0  0  0  0  0  0  0  0  0  0  0
    0.8204   -1.0230    5.8404 O   0  0  0  0  0  0  0  0  0  0  0  0
    0.8624   -2.8690    4.2970 C   0  0  0  0  0  0  0  0  0  0  0  0
    1.7045   -3.0604    3.0127 C   0  0  0  0  0  0  0  0  0  0  0  0
    3.2275   -3.2777    3.2511 C   0  0  1  0  0  0  0  0  0  0  0  0
    3.4449   -4.6306    3.9833 C   0  0  0  0  0  0  0  0  0  0  0  0
    5.2061   -1.9683   -0.0245 C   0  0  2  0  0  0  0  0  0  0  0  0
    4.8966   -0.6599   -0.7991 C   0  0  0  0  0  0  0  0  0  0  0  0
    3.8531   -1.0771   -1.7949 C   0  0  0  0  0  0  0  0  0  0  0  0
    3.7920   -2.3990   -1.9382 C   0  0  0  0  0  0  0  0  0  0  0  0
    2.8378   -3.1319   -2.8773 C   0  0  0  0  0  0  0  0  0  0  0  0
    3.5303   -3.8495   -3.8800 O   0  0  0  0  0  0  0  0  0  0  0  0
    6.8760   -3.7823   -1.3534 H   0  0  0  0  0  0  0  0  0  0  0  0
    6.3792   -2.5322   -2.4884 H   0  0  0  0  0  0  0  0  0  0  0  0
    5.7980   -4.1711   -2.6860 H   0  0  0  0  0  0  0  0  0  0  0  0
    3.9269   -5.0510   -1.0983 H   0  0  0  0  0  0  0  0  0  0  0  0
    5.2434   -4.9060    0.0181 H   0  0  0  0  0  0  0  0  0  0  0  0
    2.4823   -3.7219    0.4371 H   0  0  0  0  0  0  0  0  0  0  0  0
    3.1277   -5.1674    1.1911 H   0  0  0  0  0  0  0  0  0  0  0  0
    5.0073   -3.7919    2.1504 H   0  0  0  0  0  0  0  0  0  0  0  0
    3.4457   -1.4474    1.1375 H   0  0  0  0  0  0  0  0  0  0  0  0
    6.2077   -1.4390    2.4553 H   0  0  0  0  0  0  0  0  0  0  0  0
    5.1914   -0.0601    2.0702 H   0  0  0  0  0  0  0  0  0  0  0  0
    4.8342   -0.3793    4.4265 H   0  0  0  0  0  0  0  0  0  0  0  0
    3.1817   -2.9009    6.1095 H   0  0  0  0  0  0  0  0  0  0  0  0
    3.3667   -1.1573    6.0596 H   0  0  0  0  0  0  0  0  0  0  0  0
    0.7580   -3.8197    4.8212 H   0  0  0  0  0  0  0  0  0  0  0  0
   -0.1470   -2.5432    4.0410 H   0  0  0  0  0  0  0  0  0  0  0  0
    1.2884   -3.9098    2.4812 H   0  0  0  0  0  0  0  0  0  0  0  0
    1.5603   -2.1811    2.3817 H   0  0  0  0  0  0  0  0  0  0  0  0
    3.1354   -5.4805    3.3765 H   0  0  0  0  0  0  0  0  0  0  0  0
    2.8845   -4.7074    4.9142 H   0  0  0  0  0  0  0  0  0  0  0  0
    4.4973   -4.7778    4.2327 H   0  0  0  0  0  0  0  0  0  0  0  0
    6.2688   -2.0446    0.2087 H   0  0  0  0  0  0  0  0  0  0  0  0
    4.5468    0.1464   -0.1588 H   0  0  0  0  0  0  0  0  0  0  0  0
    5.7639   -0.3191   -1.3584 H   0  0  0  0  0  0  0  0  0  0  0  0
    3.2598   -0.3692   -2.3531 H   0  0  0  0  0  0  0  0  0  0  0  0
    2.2209   -3.8247   -2.3031 H   0  0  0  0  0  0  0  0  0  0  0  0
    2.1576   -2.4224   -3.3560 H   0  0  0  0  0  0  0  0  0  0  0  0
    3.6044   -4.7462   -3.5492 H   0  0  0  0  0  0  0  0  0  0  0  0
  2  1  1  6
  1 23  1  0
  1 24  1  0
  1 25  1  0
  2 17  1  0
  2 20  1  0
  2  3  1  0
  3  4  1  0
  3 26  1  0
  3 27  1  0
  4  5  1  0
  4 28  1  0
  4 29  1  0
  5 15  1  0
  5  6  1  0
  5 30  1  1
  6  7  1  0
  6 17  1  0
  6 31  1  6
  7  8  1  0
  7 32  1  0
  7 33  1  0
  8  9  2  0
  8 34  1  0
  9 15  1  0
  9 10  1  0
 10 11  1  0
 10 35  1  0
 10 36  1  0
 11 12  2  0
 11 13  1  0
 13 14  1  0
 13 37  1  0
 13 38  1  0
 14 15  1  0
 14 39  1  0
 14 40  1  0
 15 16  1  1
 16 41  1  0
 16 42  1  0
 16 43  1  0
 17 18  1  0
 17 44  1  1
 18 19  1  0
 18 45  1  0
 18 46  1  0
 19 20  2  0
 19 47  1  0
 20 21  1  0
 21 22  1  0
 21 48  1  0
 21 49  1  0
 22 50  1  0
M  END
>  <i_m_ct_stereo_status>  (145) 
1

>  <s_m_source_file>  (145) 
/var/tmp/pbs.5076255.sched01/tmp3foza_40/36o9al7bb4.sdf

>  <i_m_source_file_index>  (145) 
32

>  <i_lp_mmshare_version>  (145) 
48012

>  <i_f3d_flags>  (145) 
0

>  <s_epik_input>  (145) 
W09IXVtDSDJdQzE9W0NIXVtDSDJdW0NASF0oW0NAXTEyW0NIM10pW0NASF0zW0NASF0oW0NIMl1bQ0gyXTIpW0NAQF00KFtDSDNdKUMoPVtDSF1bQ0gyXTMpW0NIMl1DKD1PKVtDSDJdW0NIMl00

>  <s_epik_cmdline>  (145) 
J2VwaWtfcHl0aG9uJywgJy1waHQnLCAnMi4wJywgJy1waCcsICc3LjAnLCAnLXRuJywgJzgnLCAnLW1hJywgJzIwMCcsICctaW1hZScsICc8aW5maWxlLm1hZT4nLCAnLW9tYWUnLCAnPG91dGZpbGUubWFlPic=

>  <r_lp_tautomer_probability>  (145) 
1

>  <r_epik_Ionization_Penalty>  (145) 
3.15079e-07

>  <r_epik_Ionization_Penalty_Charging>  (145) 
0

>  <r_epik_Ionization_Penalty_Neutral>  (145) 
3.15079e-07

>  <r_epik_State_Penalty>  (145) 
-0

>  <r_epik_Charging_Adjusted_Penalty>  (145) 
0

>  <i_epik_Tot_Q>  (145) 
0

>  <i_epik_Tot_abs_Q>  (145) 
0

>  <s_lp_Force_Field>  (145) 
OPLS3e

>  <r_lp_Energy>  (145) 
32.03

>  <b_lp_Chiralities_Consistent>  (145) 
1

>  <s_lp_Variant>  (145) 
53:0-1

>  <s_i_glide_gridfile>  (145) 
pfpi4k_grid

>  <i_i_glide_lignum>  (145) 
32

>  <i_i_glide_rotatable_bonds>  (145) 
2

>  <r_i_docking_score>  (145) 
-3.82315

>  <r_i_glide_ligand_efficiency>  (145) 
-0.17378

>  <r_i_glide_ligand_efficiency_sa>  (145) 
-0.486937

>  <r_i_glide_ligand_efficiency_ln>  (145) 
-0.934517

>  <r_i_glide_gscore>  (145) 
-3.82315

>  <r_i_glide_lipo>  (145) 
-0.458005

>  <r_i_glide_hbond>  (145) 
-0.32

>  <r_i_glide_metal>  (145) 
-0

>  <r_i_glide_rewards>  (145) 
-1.36067

>  <r_i_glide_evdw>  (145) 
-17.535

>  <r_i_glide_ecoul>  (145) 
-6.7425

>  <r_i_glide_erotb>  (145) 
0.203649

>  <r_i_glide_esite>  (145) 
0

>  <r_i_glide_emodel>  (145) 
-30.7923

>  <r_i_glide_energy>  (145) 
-24.2775

>  <r_i_glide_einternal>  (145) 
0.593046

>  <r_i_glide_intrahb_reward>  (145) 
-0

>  <i_i_glide_confnum>  (145) 
1

>  <i_i_glide_posenum>  (145) 
2

>  <r_i_glide_eff_state_penalty>  (145) 
0

>  <ligand_id>  (145) 
53

>  <original_smiles>  (145) 
CC12CCC3C(CC=C4CC(=O)CCC43C)C1CC=C2CO

>  <smiles>  (145) 
[H]OC([H])([H])C1=C([H])C([H])([H])C2([H])C3([H])C([H])([H])C([H])=C4C([H])([H])C(=O)C([H])([H])C([H])([H])C4(C([H])([H])[H])C3([H])C([H])([H])C([H])([H])C12C([H])([H])[H]

$$$$
53:0:2
     RDKit          3D

 50 53  0  0  1  0  0  0  0  0999 V2000
    6.4696   -1.7279    0.4745 C   0  0  0  0  0  0  0  0  0  0  0  0
    5.1066   -2.4528    0.5010 C   0  0  1  0  0  0  0  0  0  0  0  0
    5.2623   -3.7962   -0.2433 C   0  0  0  0  0  0  0  0  0  0  0  0
    4.1168   -4.7764   -0.0140 C   0  0  0  0  0  0  0  0  0  0  0  0
    3.9777   -5.1190    1.4834 C   0  0  1  0  0  0  0  0  0  0  0  0
    3.6625   -3.8247    2.2689 C   0  0  1  0  0  0  0  0  0  0  0  0
    3.6413   -4.1214    3.7869 C   0  0  0  0  0  0  0  0  0  0  0  0
    2.8828   -5.3784    4.1375 C   0  0  0  0  0  0  0  0  0  0  0  0
    2.5787   -6.3535    3.2629 C   0  0  0  0  0  0  0  0  0  0  0  0
    1.6643   -7.5011    3.6690 C   0  0  0  0  0  0  0  0  0  0  0  0
    0.3999   -7.4201    2.8175 C   0  0  0  0  0  0  0  0  0  0  0  0
   -0.7307   -7.4296    3.3076 O   0  0  0  0  0  0  0  0  0  0  0  0
    0.6083   -7.2841    1.3087 C   0  0  0  0  0  0  0  0  0  0  0  0
    1.6746   -6.2120    0.9625 C   0  0  0  0  0  0  0  0  0  0  0  0
    2.9926   -6.3156    1.7773 C   0  0  1  0  0  0  0  0  0  0  0  0
    3.7217   -7.6332    1.4121 C   0  0  0  0  0  0  0  0  0  0  0  0
    4.6250   -2.6180    1.9826 C   0  0  2  0  0  0  0  0  0  0  0  0
    3.8585   -1.2933    2.2613 C   0  0  0  0  0  0  0  0  0  0  0  0
    3.4092   -0.8678    0.8917 C   0  0  0  0  0  0  0  0  0  0  0  0
    4.0714   -1.4969   -0.0790 C   0  0  0  0  0  0  0  0  0  0  0  0
    3.8700   -1.2878   -1.5718 C   0  0  0  0  0  0  0  0  0  0  0  0
    4.9943   -0.6610   -2.1455 O   0  0  0  0  0  0  0  0  0  0  0  0
    7.2381   -2.2981    0.9949 H   0  0  0  0  0  0  0  0  0  0  0  0
    6.4080   -0.7441    0.9442 H   0  0  0  0  0  0  0  0  0  0  0  0
    6.8158   -1.5785   -0.5486 H   0  0  0  0  0  0  0  0  0  0  0  0
    5.3981   -3.6317   -1.3130 H   0  0  0  0  0  0  0  0  0  0  0  0
    6.1771   -4.2739    0.1005 H   0  0  0  0  0  0  0  0  0  0  0  0
    3.1925   -4.3499   -0.4114 H   0  0  0  0  0  0  0  0  0  0  0  0
    4.3190   -5.6779   -0.5922 H   0  0  0  0  0  0  0  0  0  0  0  0
    4.9578   -5.4432    1.8353 H   0  0  0  0  0  0  0  0  0  0  0  0
    2.6569   -3.5244    1.9710 H   0  0  0  0  0  0  0  0  0  0  0  0
    4.6545   -4.2375    4.1763 H   0  0  0  0  0  0  0  0  0  0  0  0
    3.1801   -3.2891    4.3217 H   0  0  0  0  0  0  0  0  0  0  0  0
    2.5559   -5.4519    5.1666 H   0  0  0  0  0  0  0  0  0  0  0  0
    2.1530   -8.4627    3.5272 H   0  0  0  0  0  0  0  0  0  0  0  0
    1.4071   -7.4328    4.7250 H   0  0  0  0  0  0  0  0  0  0  0  0
    0.9097   -8.2571    0.9200 H   0  0  0  0  0  0  0  0  0  0  0  0
   -0.3458   -7.0405    0.8382 H   0  0  0  0  0  0  0  0  0  0  0  0
    1.8674   -6.2474   -0.1109 H   0  0  0  0  0  0  0  0  0  0  0  0
    1.2657   -5.2278    1.1705 H   0  0  0  0  0  0  0  0  0  0  0  0
    4.0422   -7.6404    0.3716 H   0  0  0  0  0  0  0  0  0  0  0  0
    3.0976   -8.5173    1.5464 H   0  0  0  0  0  0  0  0  0  0  0  0
    4.6124   -7.7687    2.0287 H   0  0  0  0  0  0  0  0  0  0  0  0
    5.4994   -2.7048    2.6334 H   0  0  0  0  0  0  0  0  0  0  0  0
    3.0108   -1.4012    2.9403 H   0  0  0  0  0  0  0  0  0  0  0  0
    4.5204   -0.5227    2.6589 H   0  0  0  0  0  0  0  0  0  0  0  0
    2.6549   -0.1104    0.7351 H   0  0  0  0  0  0  0  0  0  0  0  0
    3.6844   -2.2476   -2.0555 H   0  0  0  0  0  0  0  0  0  0  0  0
    2.9953   -0.6636   -1.7562 H   0  0  0  0  0  0  0  0  0  0  0  0
    5.0177    0.2376   -1.8314 H   0  0  0  0  0  0  0  0  0  0  0  0
  2  1  1  1
  1 23  1  0
  1 24  1  0
  1 25  1  0
  2 17  1  0
  2 20  1  0
  2  3  1  0
  3  4  1  0
  3 26  1  0
  3 27  1  0
  4  5  1  0
  4 28  1  0
  4 29  1  0
  5 15  1  0
  5  6  1  0
  5 30  1  1
  6  7  1  0
  6 17  1  0
  6 31  1  6
  7  8  1  0
  7 32  1  0
  7 33  1  0
  8  9  2  0
  8 34  1  0
  9 15  1  0
  9 10  1  0
 10 11  1  0
 10 35  1  0
 10 36  1  0
 11 12  2  0
 11 13  1  0
 13 14  1  0
 13 37  1  0
 13 38  1  0
 14 15  1  0
 14 39  1  0
 14 40  1  0
 15 16  1  6
 16 41  1  0
 16 42  1  0
 16 43  1  0
 17 18  1  0
 17 44  1  1
 18 19  1  0
 18 45  1  0
 18 46  1  0
 19 20  2  0
 19 47  1  0
 20 21  1  0
 21 22  1  0
 21 48  1  0
 21 49  1  0
 22 50  1  0
M  END
>  <i_m_ct_stereo_status>  (146) 
1

>  <s_m_source_file>  (146) 
/var/tmp/pbs.5076255.sched01/tmp3foza_40/36o9al7bb4.sdf

>  <i_m_source_file_index>  (146) 
32

>  <i_lp_mmshare_version>  (146) 
48012

>  <i_f3d_flags>  (146) 
0

>  <s_epik_input>  (146) 
W09IXVtDSDJdQzE9W0NIXVtDSDJdW0NASF0oW0NAXTEyW0NIM10pW0NASF0zW0NASF0oW0NIMl1bQ0gyXTIpW0NAQF00KFtDSDNdKUMoPVtDSF1bQ0gyXTMpW0NIMl1DKD1PKVtDSDJdW0NIMl00

>  <s_epik_cmdline>  (146) 
J2VwaWtfcHl0aG9uJywgJy1waHQnLCAnMi4wJywgJy1waCcsICc3LjAnLCAnLXRuJywgJzgnLCAnLW1hJywgJzIwMCcsICctaW1hZScsICc8aW5maWxlLm1hZT4nLCAnLW9tYWUnLCAnPG91dGZpbGUubWFlPic=

>  <r_lp_tautomer_probability>  (146) 
1

>  <r_epik_Ionization_Penalty>  (146) 
3.15079e-07

>  <r_epik_Ionization_Penalty_Charging>  (146) 
0

>  <r_epik_Ionization_Penalty_Neutral>  (146) 
3.15079e-07

>  <r_epik_State_Penalty>  (146) 
-0

>  <r_epik_Charging_Adjusted_Penalty>  (146) 
0

>  <i_epik_Tot_Q>  (146) 
0

>  <i_epik_Tot_abs_Q>  (146) 
0

>  <s_lp_Force_Field>  (146) 
OPLS3e

>  <r_lp_Energy>  (146) 
32.03

>  <b_lp_Chiralities_Consistent>  (146) 
1

>  <s_lp_Variant>  (146) 
53:0-1

>  <s_i_glide_gridfile>  (146) 
pfpi4k_grid

>  <i_i_glide_lignum>  (146) 
32

>  <i_i_glide_rotatable_bonds>  (146) 
2

>  <r_i_docking_score>  (146) 
-3.32202

>  <r_i_glide_ligand_efficiency>  (146) 
-0.151001

>  <r_i_glide_ligand_efficiency_sa>  (146) 
-0.423111

>  <r_i_glide_ligand_efficiency_ln>  (146) 
-0.812024

>  <r_i_glide_gscore>  (146) 
-3.32202

>  <r_i_glide_lipo>  (146) 
-0.232292

>  <r_i_glide_hbond>  (146) 
-0.32

>  <r_i_glide_metal>  (146) 
-0

>  <r_i_glide_rewards>  (146) 
-1.36067

>  <r_i_glide_evdw>  (146) 
-19.9094

>  <r_i_glide_ecoul>  (146) 
-3.82248

>  <r_i_glide_erotb>  (146) 
0.203649

>  <r_i_glide_esite>  (146) 
-0.0438733

>  <r_i_glide_emodel>  (146) 
-29.5849

>  <r_i_glide_energy>  (146) 
-23.7318

>  <r_i_glide_einternal>  (146) 
0.304565

>  <r_i_glide_intrahb_reward>  (146) 
-0

>  <i_i_glide_confnum>  (146) 
1

>  <i_i_glide_posenum>  (146) 
24

>  <r_i_glide_eff_state_penalty>  (146) 
0

>  <ligand_id>  (146) 
53

>  <original_smiles>  (146) 
CC12CCC3C(CC=C4CC(=O)CCC43C)C1CC=C2CO

>  <smiles>  (146) 
[H]OC([H])([H])C1=C([H])C([H])([H])C2([H])C3([H])C([H])([H])C([H])=C4C([H])([H])C(=O)C([H])([H])C([H])([H])C4(C([H])([H])[H])C3([H])C([H])([H])C([H])([H])C12C([H])([H])[H]

$$$$
54:0:0
     RDKit          3D

 65 71  0  0  1  0  0  0  0  0999 V2000
    6.4882    0.0499    5.8670 C   0  0  0  0  0  0  0  0  0  0  0  0
    5.2518   -0.4319    5.3583 O   0  0  0  0  0  0  0  0  0  0  0  0
    4.5860    0.4265    4.4347 C   0  0  2  0  0  0  0  0  0  0  0  0
    3.9850    1.7664    5.3859 C   0  0  0  0  0  0  0  0  0  0  0  0
    2.6133    2.8052    5.0731 C   0  0  2  0  0  0  0  0  0  0  0  0
    1.3217    3.1280    5.9571 C   0  0  0  0  0  0  0  0  0  0  0  0
    0.0564    2.7394    5.1640 N   0  0  2  0  0  0  0  0  0  0  0  0
   -1.2707    2.5631    5.7890 C   0  0  0  0  0  0  0  0  0  0  0  0
   -2.3102    3.1958    4.8332 C   0  0  0  0  0  0  0  0  0  0  0  0
   -2.1155    2.7725    3.3495 C   0  0  0  0  0  0  0  0  0  0  0  0
   -0.6347    2.8725    2.8816 C   0  0  0  0  0  0  0  0  0  0  0  0
    0.2687    2.0627    3.8217 C   0  0  2  0  0  0  0  0  0  0  0  0
   -0.0048    0.3552    3.5051 C   0  0  2  0  0  0  0  0  0  0  0  0
    0.1298    0.0621    4.8322 O   0  0  0  0  0  0  0  0  0  0  0  0
    1.4794    0.1869    5.0487 C   0  0  1  0  0  0  0  0  0  0  0  0
    1.6695    0.5355    6.3967 O   0  0  0  0  0  0  0  0  0  0  0  0
    1.8953   -1.2696    5.1601 C   0  0  1  0  0  0  0  0  0  0  0  0
    0.9960   -2.0001    6.0140 O   0  0  0  0  0  0  0  0  0  0  0  0
    1.2911   -2.4044    7.2743 C   0  0  0  0  0  0  0  0  0  0  0  0
    2.7096   -2.1219    7.7892 C   0  0  0  0  0  0  0  0  0  0  0  0
    0.4550   -2.9727    7.9860 O   0  0  0  0  0  0  0  0  0  0  0  0
    1.7950   -1.8672    3.7795 C   0  0  1  0  0  0  0  0  0  0  0  0
    1.1189   -0.8171    2.7922 C   0  0  2  0  0  0  0  0  0  0  0  0
    2.5964   -0.3449    2.3270 C   0  0  1  0  0  0  0  0  0  0  0  0
    2.8155   -0.7015    0.9661 O   0  0  0  0  0  0  0  0  0  0  0  0
    2.4471    1.0020    2.4804 C   0  0  0  0  0  0  0  0  0  0  0  0
    2.1871    1.1785    3.9081 N   0  0  0  0  0  0  0  0  0  0  0  0
    1.7765    2.4300    3.8629 C   0  0  2  0  0  0  0  0  0  0  0  0
    3.8996   -0.6548    3.2453 C   0  0  1  0  0  0  0  0  0  0  0  0
    4.9840   -0.8510    2.3490 O   0  0  0  0  0  0  0  0  0  0  0  0
    3.3152   -2.0808    3.4737 C   0  0  1  0  0  0  0  0  0  0  0  0
    4.0195   -2.8956    4.3911 O   0  0  0  0  0  0  0  0  0  0  0  0
    6.9509   -0.7369    6.4621 H   0  0  0  0  0  0  0  0  0  0  0  0
    6.3505    0.9129    6.5172 H   0  0  0  0  0  0  0  0  0  0  0  0
    7.1904    0.3125    5.0738 H   0  0  0  0  0  0  0  0  0  0  0  0
    5.3523    0.9392    3.8479 H   0  0  0  0  0  0  0  0  0  0  0  0
    3.9067    1.4218    6.4232 H   0  0  0  0  0  0  0  0  0  0  0  0
    4.8272    2.4631    5.4265 H   0  0  0  0  0  0  0  0  0  0  0  0
    3.0407    3.7827    4.8495 H   0  0  0  0  0  0  0  0  0  0  0  0
    1.3412    2.7532    6.9842 H   0  0  0  0  0  0  0  0  0  0  0  0
    1.2658    4.2114    6.0911 H   0  0  0  0  0  0  0  0  0  0  0  0
   -1.4849    1.5077    5.9648 H   0  0  0  0  0  0  0  0  0  0  0  0
   -1.2973    3.0848    6.7451 H   0  0  0  0  0  0  0  0  0  0  0  0
   -3.3224    2.9456    5.1633 H   0  0  0  0  0  0  0  0  0  0  0  0
   -2.2288    4.2876    4.8784 H   0  0  0  0  0  0  0  0  0  0  0  0
   -2.4828    1.7533    3.2193 H   0  0  0  0  0  0  0  0  0  0  0  0
   -2.7428    3.3978    2.7040 H   0  0  0  0  0  0  0  0  0  0  0  0
   -0.5440    2.4873    1.8692 H   0  0  0  0  0  0  0  0  0  0  0  0
   -0.3378    3.9267    2.9084 H   0  0  0  0  0  0  0  0  0  0  0  0
   -1.0501    0.1379    3.2242 H   0  0  0  0  0  0  0  0  0  0  0  0
    1.9372   -0.2465    6.8554 H   0  0  0  0  0  0  0  0  0  0  0  0
    2.9019   -1.2760    5.5668 H   0  0  0  0  0  0  0  0  0  0  0  0
    3.4566   -2.6081    7.1557 H   0  0  0  0  0  0  0  0  0  0  0  0
    2.8504   -2.4899    8.8048 H   0  0  0  0  0  0  0  0  0  0  0  0
    2.9241   -1.0529    7.8167 H   0  0  0  0  0  0  0  0  0  0  0  0
    1.2541   -2.8164    3.7641 H   0  0  0  0  0  0  0  0  0  0  0  0
    0.6195   -1.3344    1.9629 H   0  0  0  0  0  0  0  0  0  0  0  0
    1.9963   -0.6040    0.4850 H   0  0  0  0  0  0  0  0  0  0  0  0
    3.3698    1.5234    2.2004 H   0  0  0  0  0  0  0  0  0  0  0  0
    1.6486    1.3740    1.8236 H   0  0  0  0  0  0  0  0  0  0  0  0
    2.0930    3.0576    3.0152 H   0  0  0  0  0  0  0  0  0  0  0  0
    4.6186   -1.3056    1.6054 H   0  0  0  0  0  0  0  0  0  0  0  0
    3.3710   -2.6487    2.5401 H   0  0  0  0  0  0  0  0  0  0  0  0
    4.9017   -2.9939    4.0698 H   0  0  0  0  0  0  0  0  0  0  0  0
   -0.1011    3.6594    4.7762 H   0  0  0  0  0  0  0  0  0  0  0  0
  1  2  1  0
  1 33  1  0
  1 34  1  0
  1 35  1  0
  2  3  1  0
  3 29  1  0
  3  4  1  0
  3 36  1  6
  4  5  1  0
  4 37  1  0
  4 38  1  0
  5 28  1  0
  5  6  1  0
  5 39  1  6
  6  7  1  0
  6 40  1  0
  6 41  1  0
  7 12  1  0
  7  8  1  0
  7 65  1  6
  8  9  1  0
  8 42  1  0
  8 43  1  0
  9 10  1  0
  9 44  1  0
  9 45  1  0
 10 11  1  0
 10 46  1  0
 10 47  1  0
 12 11  1  6
 11 48  1  0
 11 49  1  0
 12 28  1  0
 12 13  1  0
 13 23  1  0
 13 14  1  0
 13 50  1  6
 14 15  1  0
 15 27  1  0
 15 16  1  1
 15 17  1  0
 16 51  1  0
 17 18  1  0
 17 22  1  0
 17 52  1  1
 18 19  1  0
 19 20  1  0
 19 21  2  0
 20 53  1  0
 20 54  1  0
 20 55  1  0
 22 31  1  0
 22 23  1  0
 22 56  1  1
 23 24  1  0
 23 57  1  6
 24 25  1  6
 24 26  1  0
 24 29  1  0
 25 58  1  0
 26 27  1  0
 26 59  1  0
 26 60  1  0
 27 28  1  0
 28 61  1  6
 29 30  1  6
 29 31  1  0
 30 62  1  0
 31 32  1  0
 31 63  1  6
 32 64  1  0
M  CHG  1   7   1
M  END
>  <i_m_ct_stereo_status>  (147) 
1

>  <s_m_source_file>  (147) 
/var/tmp/pbs.5076255.sched01/tmp3foza_40/36o9al7bb4.sdf

>  <i_m_source_file_index>  (147) 
33

>  <i_lp_mmshare_version>  (147) 
48012

>  <i_f3d_flags>  (147) 
0

>  <s_epik_input>  (147) 
W0NIM11PW0NASF0oW0NIMl0xKVtDQF0oW09IXSkoW0NAXTIoW09IXSlbQ0gyXTMpW0NAQEhdKFtPSF0pW0NAQEhdKFtDQEBIXTRPQyg9TylbQ0gzXSlbQ0BIXTJbQ0BIXTVPW0NAXTQoW09IXSlOM1tDQEBIXTZbQ0BIXTFbQ0gyXU4oW0NAXTU2NylbQ0gyXVtDSDJdW0NIMl1bQ0gyXTc=

>  <s_epik_cmdline>  (147) 
J2VwaWtfcHl0aG9uJywgJy1waHQnLCAnMi4wJywgJy1waCcsICc3LjAnLCAnLXRuJywgJzgnLCAnLW1hJywgJzIwMCcsICctaW1hZScsICc8aW5maWxlLm1hZT4nLCAnLW9tYWUnLCAnPG91dGZpbGUubWFlPic=

>  <r_lp_tautomer_probability>  (147) 
1

>  <r_epik_Ionization_Penalty>  (147) 
0.0029167

>  <r_epik_Ionization_Penalty_Charging>  (147) 
0.00278984

>  <r_epik_Ionization_Penalty_Neutral>  (147) 
0.000126859

>  <r_epik_State_Penalty>  (147) 
-0

>  <r_epik_Charging_Adjusted_Penalty>  (147) 
0.00278984

>  <i_epik_Tot_Q>  (147) 
1

>  <i_epik_Tot_abs_Q>  (147) 
1

>  <s_epik_Chemistry_Notes>  (147) 
This compound has an ester and may undergo hydrolysis at high or low pH.

>  <s_lp_Force_Field>  (147) 
OPLS3e

>  <r_lp_Energy>  (147) 
417.31

>  <b_lp_Chiralities_Consistent>  (147) 
1

>  <s_lp_Variant>  (147) 
54:0-1

>  <s_i_glide_gridfile>  (147) 
pfpi4k_grid

>  <i_i_glide_lignum>  (147) 
33

>  <i_i_glide_rotatable_bonds>  (147) 
7

>  <r_i_docking_score>  (147) 
-2.50411

>  <r_i_glide_ligand_efficiency>  (147) 
-0.0782534

>  <r_i_glide_ligand_efficiency_sa>  (147) 
-0.248439

>  <r_i_glide_ligand_efficiency_ln>  (147) 
-0.560738

>  <r_i_glide_gscore>  (147) 
-2.50411

>  <r_i_glide_lipo>  (147) 
-0.188572

>  <r_i_glide_hbond>  (147) 
0

>  <r_i_glide_metal>  (147) 
-0

>  <r_i_glide_rewards>  (147) 
-0.317004

>  <r_i_glide_evdw>  (147) 
-18.8277

>  <r_i_glide_ecoul>  (147) 
-7.61767

>  <r_i_glide_erotb>  (147) 
0.0976024

>  <r_i_glide_esite>  (147) 
-0.0120948

>  <r_i_glide_emodel>  (147) 
-27.2507

>  <r_i_glide_energy>  (147) 
-26.4454

>  <r_i_glide_einternal>  (147) 
6.56219

>  <r_i_glide_intrahb_reward>  (147) 
-0

>  <i_i_glide_confnum>  (147) 
1

>  <i_i_glide_posenum>  (147) 
25

>  <r_i_glide_eff_state_penalty>  (147) 
0

>  <ligand_id>  (147) 
54

>  <original_smiles>  (147) 
COC1CC2CN3CCCCC34C3OC5(O)C(OC(C)=O)C6C3C(O)(CN5C24)C1(O)C6O

>  <smiles>  (147) 
[H]OC12OC3([H])C4([H])C([H])(C1([H])OC(=O)C([H])([H])[H])C([H])(O[H])C1(O[H])C([H])(OC([H])([H])[H])C([H])([H])C5([H])C([H])(N2C([H])([H])C41O[H])C31C([H])([H])C([H])([H])C([H])([H])C([H])([H])[N+]1([H])C5([H])[H]

$$$$
54:0:1
     RDKit          3D

 65 71  0  0  1  0  0  0  0  0999 V2000
   -0.0714    6.5542    7.6541 C   0  0  0  0  0  0  0  0  0  0  0  0
   -0.4918    5.2492    7.2779 O   0  0  0  0  0  0  0  0  0  0  0  0
    0.5074    4.2357    7.3287 C   0  0  2  0  0  0  0  0  0  0  0  0
    1.6345    4.5661    6.0375 C   0  0  0  0  0  0  0  0  0  0  0  0
    2.6696    3.4613    5.1570 C   0  0  2  0  0  0  0  0  0  0  0  0
    2.7752    3.1370    3.6000 C   0  0  0  0  0  0  0  0  0  0  0  0
    2.5012    1.6420    3.3709 N   0  0  2  0  0  0  0  0  0  0  0  0
    2.1601    1.0747    2.0605 C   0  0  0  0  0  0  0  0  0  0  0  0
    2.9184   -0.2615    1.9295 C   0  0  0  0  0  0  0  0  0  0  0  0
    2.7934   -1.1684    3.1834 C   0  0  0  0  0  0  0  0  0  0  0  0
    3.0229   -0.3822    4.5089 C   0  0  0  0  0  0  0  0  0  0  0  0
    2.0937    0.8380    4.5725 C   0  0  2  0  0  0  0  0  0  0  0  0
    0.4630    0.2652    4.8652 C   0  0  2  0  0  0  0  0  0  0  0  0
   -0.0615    1.2404    4.0616 O   0  0  0  0  0  0  0  0  0  0  0  0
    0.0475    2.3743    4.8201 C   0  0  1  0  0  0  0  0  0  0  0  0
    0.1889    3.4767    3.9539 O   0  0  0  0  0  0  0  0  0  0  0  0
   -1.4133    2.5975    5.2016 C   0  0  1  0  0  0  0  0  0  0  0  0
   -2.3024    2.3577    4.0901 O   0  0  0  0  0  0  0  0  0  0  0  0
   -2.7016    3.3719    3.2730 C   0  0  0  0  0  0  0  0  0  0  0  0
   -3.6513    2.9129    2.1727 C   0  0  0  0  0  0  0  0  0  0  0  0
   -2.3731    4.5523    3.3331 O   0  0  0  0  0  0  0  0  0  0  0  0
   -1.7026    1.5520    6.2495 C   0  0  1  0  0  0  0  0  0  0  0  0
   -0.5151    0.5039    6.3226 C   0  0  2  0  0  0  0  0  0  0  0  0
    0.0742    1.2923    7.5792 C   0  0  1  0  0  0  0  0  0  0  0  0
    0.0205    0.4473    8.7199 O   0  0  0  0  0  0  0  0  0  0  0  0
    1.3544    1.4193    7.1723 C   0  0  0  0  0  0  0  0  0  0  0  0
    1.2654    2.2224    5.9457 N   0  0  0  0  0  0  0  0  0  0  0  0
    2.4817    2.0057    5.5053 C   0  0  2  0  0  0  0  0  0  0  0  0
   -0.3618    2.8181    7.8672 C   0  0  1  0  0  0  0  0  0  0  0  0
   -0.3576    2.9689    9.2700 O   0  0  0  0  0  0  0  0  0  0  0  0
   -1.8170    2.4257    7.5311 C   0  0  1  0  0  0  0  0  0  0  0  0
   -2.7616    3.4758    7.4818 O   0  0  0  0  0  0  0  0  0  0  0  0
   -0.9375    7.2145    7.6675 H   0  0  0  0  0  0  0  0  0  0  0  0
    0.6412    6.9666    6.9413 H   0  0  0  0  0  0  0  0  0  0  0  0
    0.3707    6.5761    8.6516 H   0  0  0  0  0  0  0  0  0  0  0  0
    1.1336    4.4381    8.2006 H   0  0  0  0  0  0  0  0  0  0  0  0
    1.1085    5.1818    5.3111 H   0  0  0  0  0  0  0  0  0  0  0  0
    2.3226    5.2807    6.4760 H   0  0  0  0  0  0  0  0  0  0  0  0
    3.6795    3.7274    5.4653 H   0  0  0  0  0  0  0  0  0  0  0  0
    2.2526    3.8119    2.9378 H   0  0  0  0  0  0  0  0  0  0  0  0
    3.8100    3.3247    3.3134 H   0  0  0  0  0  0  0  0  0  0  0  0
    1.0946    0.9332    1.9271 H   0  0  0  0  0  0  0  0  0  0  0  0
    2.4993    1.7482    1.2933 H   0  0  0  0  0  0  0  0  0  0  0  0
    2.5678   -0.8041    1.0430 H   0  0  0  0  0  0  0  0  0  0  0  0
    3.9817   -0.0752    1.7523 H   0  0  0  0  0  0  0  0  0  0  0  0
    1.8070   -1.6421    3.1827 H   0  0  0  0  0  0  0  0  0  0  0  0
    3.5052   -1.9951    3.1108 H   0  0  0  0  0  0  0  0  0  0  0  0
    2.8541   -1.0421    5.3621 H   0  0  0  0  0  0  0  0  0  0  0  0
    4.0714   -0.0768    4.5560 H   0  0  0  0  0  0  0  0  0  0  0  0
    0.2523   -0.6816    4.4095 H   0  0  0  0  0  0  0  0  0  0  0  0
    0.0960    3.1794    3.0584 H   0  0  0  0  0  0  0  0  0  0  0  0
   -1.5284    3.6222    5.5543 H   0  0  0  0  0  0  0  0  0  0  0  0
   -3.1819    2.1045    1.6097 H   0  0  0  0  0  0  0  0  0  0  0  0
   -3.8824    3.7296    1.4830 H   0  0  0  0  0  0  0  0  0  0  0  0
   -4.5819    2.5488    2.5883 H   0  0  0  0  0  0  0  0  0  0  0  0
   -2.6226    1.0252    6.0762 H   0  0  0  0  0  0  0  0  0  0  0  0
   -0.9000   -0.4614    6.6475 H   0  0  0  0  0  0  0  0  0  0  0  0
    0.5009    0.8963    9.4077 H   0  0  0  0  0  0  0  0  0  0  0  0
    1.9410    1.9511    7.9193 H   0  0  0  0  0  0  0  0  0  0  0  0
    1.8093    0.4355    7.0462 H   0  0  0  0  0  0  0  0  0  0  0  0
    3.2434    1.7233    6.2310 H   0  0  0  0  0  0  0  0  0  0  0  0
   -0.8529    3.7545    9.4488 H   0  0  0  0  0  0  0  0  0  0  0  0
   -2.2016    1.7655    8.3214 H   0  0  0  0  0  0  0  0  0  0  0  0
   -3.6317    3.1088    7.5054 H   0  0  0  0  0  0  0  0  0  0  0  0
    3.4674    1.3817    3.3596 H   0  0  0  0  0  0  0  0  0  0  0  0
  1  2  1  0
  1 33  1  0
  1 34  1  0
  1 35  1  0
  2  3  1  0
  3 29  1  0
  3  4  1  0
  3 36  1  1
  4  5  1  0
  4 37  1  0
  4 38  1  0
  5 28  1  0
  5  6  1  0
  5 39  1  1
  6  7  1  0
  6 40  1  0
  6 41  1  0
  7 12  1  0
  7  8  1  0
  7 65  1  6
  8  9  1  0
  8 42  1  0
  8 43  1  0
  9 10  1  0
  9 44  1  0
  9 45  1  0
 10 11  1  0
 10 46  1  0
 10 47  1  0
 12 11  1  1
 11 48  1  0
 11 49  1  0
 12 28  1  0
 12 13  1  0
 13 23  1  0
 13 14  1  0
 13 50  1  6
 14 15  1  0
 15 27  1  0
 15 16  1  6
 15 17  1  0
 16 51  1  0
 17 18  1  0
 17 22  1  0
 17 52  1  1
 18 19  1  0
 19 20  1  0
 19 21  2  0
 20 53  1  0
 20 54  1  0
 20 55  1  0
 22 31  1  0
 22 23  1  0
 22 56  1  6
 23 24  1  0
 23 57  1  1
 24 25  1  1
 24 26  1  0
 24 29  1  0
 25 58  1  0
 26 27  1  0
 26 59  1  0
 26 60  1  0
 27 28  1  0
 28 61  1  1
 29 30  1  1
 29 31  1  0
 30 62  1  0
 31 32  1  0
 31 63  1  1
 32 64  1  0
M  CHG  1   7   1
M  END
>  <i_m_ct_stereo_status>  (148) 
1

>  <s_m_source_file>  (148) 
/var/tmp/pbs.5076255.sched01/tmp3foza_40/36o9al7bb4.sdf

>  <i_m_source_file_index>  (148) 
33

>  <i_lp_mmshare_version>  (148) 
48012

>  <i_f3d_flags>  (148) 
0

>  <s_epik_input>  (148) 
W0NIM11PW0NASF0oW0NIMl0xKVtDQF0oW09IXSkoW0NAXTIoW09IXSlbQ0gyXTMpW0NAQEhdKFtPSF0pW0NAQEhdKFtDQEBIXTRPQyg9TylbQ0gzXSlbQ0BIXTJbQ0BIXTVPW0NAXTQoW09IXSlOM1tDQEBIXTZbQ0BIXTFbQ0gyXU4oW0NAXTU2NylbQ0gyXVtDSDJdW0NIMl1bQ0gyXTc=

>  <s_epik_cmdline>  (148) 
J2VwaWtfcHl0aG9uJywgJy1waHQnLCAnMi4wJywgJy1waCcsICc3LjAnLCAnLXRuJywgJzgnLCAnLW1hJywgJzIwMCcsICctaW1hZScsICc8aW5maWxlLm1hZT4nLCAnLW9tYWUnLCAnPG91dGZpbGUubWFlPic=

>  <r_lp_tautomer_probability>  (148) 
1

>  <r_epik_Ionization_Penalty>  (148) 
0.0029167

>  <r_epik_Ionization_Penalty_Charging>  (148) 
0.00278984

>  <r_epik_Ionization_Penalty_Neutral>  (148) 
0.000126859

>  <r_epik_State_Penalty>  (148) 
-0

>  <r_epik_Charging_Adjusted_Penalty>  (148) 
0.00278984

>  <i_epik_Tot_Q>  (148) 
1

>  <i_epik_Tot_abs_Q>  (148) 
1

>  <s_epik_Chemistry_Notes>  (148) 
This compound has an ester and may undergo hydrolysis at high or low pH.

>  <s_lp_Force_Field>  (148) 
OPLS3e

>  <r_lp_Energy>  (148) 
417.31

>  <b_lp_Chiralities_Consistent>  (148) 
1

>  <s_lp_Variant>  (148) 
54:0-1

>  <s_i_glide_gridfile>  (148) 
pfpi4k_grid

>  <i_i_glide_lignum>  (148) 
33

>  <i_i_glide_rotatable_bonds>  (148) 
7

>  <r_i_docking_score>  (148) 
-2.41171

>  <r_i_glide_ligand_efficiency>  (148) 
-0.075366

>  <r_i_glide_ligand_efficiency_sa>  (148) 
-0.239272

>  <r_i_glide_ligand_efficiency_ln>  (148) 
-0.540048

>  <r_i_glide_gscore>  (148) 
-2.41171

>  <r_i_glide_lipo>  (148) 
-0.00310239

>  <r_i_glide_hbond>  (148) 
-0.16

>  <r_i_glide_metal>  (148) 
-0

>  <r_i_glide_rewards>  (148) 
-0.317004

>  <r_i_glide_evdw>  (148) 
-19.6019

>  <r_i_glide_ecoul>  (148) 
-6.46252

>  <r_i_glide_erotb>  (148) 
0.0976024

>  <r_i_glide_esite>  (148) 
-0.0797363

>  <r_i_glide_emodel>  (148) 
-28.06

>  <r_i_glide_energy>  (148) 
-26.0644

>  <r_i_glide_einternal>  (148) 
3.2371

>  <r_i_glide_intrahb_reward>  (148) 
-0

>  <i_i_glide_confnum>  (148) 
1

>  <i_i_glide_posenum>  (148) 
1

>  <r_i_glide_eff_state_penalty>  (148) 
0

>  <ligand_id>  (148) 
54

>  <original_smiles>  (148) 
COC1CC2CN3CCCCC34C3OC5(O)C(OC(C)=O)C6C3C(O)(CN5C24)C1(O)C6O

>  <smiles>  (148) 
[H]OC12OC3([H])C4([H])C([H])(C1([H])OC(=O)C([H])([H])[H])C([H])(O[H])C1(O[H])C([H])(OC([H])([H])[H])C([H])([H])C5([H])C([H])(N2C([H])([H])C41O[H])C31C([H])([H])C([H])([H])C([H])([H])C([H])([H])[N+]1([H])C5([H])[H]

$$$$
54:0:2
     RDKit          3D

 65 71  0  0  1  0  0  0  0  0999 V2000
    5.6707   -1.0772    6.3081 C   0  0  0  0  0  0  0  0  0  0  0  0
    4.5508   -1.3289    5.4686 O   0  0  0  0  0  0  0  0  0  0  0  0
    4.0797   -0.2237    4.7007 C   0  0  2  0  0  0  0  0  0  0  0  0
    3.4770    0.9539    5.8453 C   0  0  0  0  0  0  0  0  0  0  0  0
    2.2457    2.1711    5.6280 C   0  0  2  0  0  0  0  0  0  0  0  0
    0.8793    2.4294    6.4080 C   0  0  0  0  0  0  0  0  0  0  0  0
   -0.2991    2.3665    5.4236 N   0  0  2  0  0  0  0  0  0  0  0  0
   -1.7037    2.2177    5.8429 C   0  0  0  0  0  0  0  0  0  0  0  0
   -2.5598    3.1387    4.9404 C   0  0  0  0  0  0  0  0  0  0  0  0
   -2.2088    3.0312    3.4317 C   0  0  0  0  0  0  0  0  0  0  0  0
   -0.6772    3.0407    3.1717 C   0  0  0  0  0  0  0  0  0  0  0  0
    0.0265    1.9610    4.0128 C   0  0  2  0  0  0  0  0  0  0  0  0
   -0.3436    0.3907    3.3221 C   0  0  2  0  0  0  0  0  0  0  0  0
   -0.4036   -0.1872    4.5626 O   0  0  0  0  0  0  0  0  0  0  0  0
    0.9161   -0.2701    4.9291 C   0  0  1  0  0  0  0  0  0  0  0  0
    0.9873   -0.2409    6.3395 O   0  0  0  0  0  0  0  0  0  0  0  0
    1.1574   -1.7696    4.7585 C   0  0  1  0  0  0  0  0  0  0  0  0
    0.0690   -2.5715    5.2567 O   0  0  0  0  0  0  0  0  0  0  0  0
    0.1619   -3.1959    6.4494 C   0  0  0  0  0  0  0  0  0  0  0  0
   -1.0142   -4.1291    6.7296 C   0  0  0  0  0  0  0  0  0  0  0  0
    1.0591   -3.0337    7.2694 O   0  0  0  0  0  0  0  0  0  0  0  0
    1.2178   -2.0204    3.2829 C   0  0  1  0  0  0  0  0  0  0  0  0
    0.7676   -0.7162    2.4925 C   0  0  2  0  0  0  0  0  0  0  0  0
    2.3079   -0.3224    2.2793 C   0  0  1  0  0  0  0  0  0  0  0  0
    2.6424   -0.3311    0.8901 O   0  0  0  0  0  0  0  0  0  0  0  0
    2.2581    0.9641    2.7159 C   0  0  0  0  0  0  0  0  0  0  0  0
    1.8383    0.8670    4.1184 N   0  0  0  0  0  0  0  0  0  0  0  0
    1.5389    2.1377    4.2916 C   0  0  2  0  0  0  0  0  0  0  0  0
    3.4565   -0.9609    3.2399 C   0  0  1  0  0  0  0  0  0  0  0  0
    4.6310   -1.1166    2.4575 O   0  0  0  0  0  0  0  0  0  0  0  0
    2.7367   -2.3283    3.1058 C   0  0  1  0  0  0  0  0  0  0  0  0
    3.2534   -3.3900    3.8847 O   0  0  0  0  0  0  0  0  0  0  0  0
    5.9985   -2.0192    6.7475 H   0  0  0  0  0  0  0  0  0  0  0  0
    5.4202   -0.4109    7.1321 H   0  0  0  0  0  0  0  0  0  0  0  0
    6.5135   -0.6536    5.7604 H   0  0  0  0  0  0  0  0  0  0  0  0
    4.9580    0.3054    4.3215 H   0  0  0  0  0  0  0  0  0  0  0  0
    3.2455    0.4226    6.7696 H   0  0  0  0  0  0  0  0  0  0  0  0
    4.3642    1.5225    6.1316 H   0  0  0  0  0  0  0  0  0  0  0  0
    2.7876    3.1165    5.6664 H   0  0  0  0  0  0  0  0  0  0  0  0
    0.7461    1.8559    7.3226 H   0  0  0  0  0  0  0  0  0  0  0  0
    0.9071    3.4583    6.7704 H   0  0  0  0  0  0  0  0  0  0  0  0
   -2.0313    1.1827    5.7646 H   0  0  0  0  0  0  0  0  0  0  0  0
   -1.8220    2.5282    6.8792 H   0  0  0  0  0  0  0  0  0  0  0  0
   -3.6253    2.9505    5.0837 H   0  0  0  0  0  0  0  0  0  0  0  0
   -2.4051    4.1735    5.2427 H   0  0  0  0  0  0  0  0  0  0  0  0
   -2.6467    2.1237    3.0178 H   0  0  0  0  0  0  0  0  0  0  0  0
   -2.6875    3.8440    2.8758 H   0  0  0  0  0  0  0  0  0  0  0  0
   -0.5076    2.8522    2.1139 H   0  0  0  0  0  0  0  0  0  0  0  0
   -0.2864    4.0364    3.3917 H   0  0  0  0  0  0  0  0  0  0  0  0
   -1.3388    0.3486    2.8842 H   0  0  0  0  0  0  0  0  0  0  0  0
    1.2072   -1.1142    6.6372 H   0  0  0  0  0  0  0  0  0  0  0  0
    2.0771   -2.0227    5.2892 H   0  0  0  0  0  0  0  0  0  0  0  0
   -1.9579   -3.5891    6.6692 H   0  0  0  0  0  0  0  0  0  0  0  0
   -0.9330   -4.5718    7.7227 H   0  0  0  0  0  0  0  0  0  0  0  0
   -1.0243   -4.9432    6.0058 H   0  0  0  0  0  0  0  0  0  0  0  0
    0.6188   -2.8839    2.9988 H   0  0  0  0  0  0  0  0  0  0  0  0
    0.3478   -0.9897    1.5259 H   0  0  0  0  0  0  0  0  0  0  0  0
    1.8793   -0.5334    0.3445 H   0  0  0  0  0  0  0  0  0  0  0  0
    3.2470    1.4287    2.6482 H   0  0  0  0  0  0  0  0  0  0  0  0
    1.5975    1.5516    2.0697 H   0  0  0  0  0  0  0  0  0  0  0  0
    2.0071    2.8859    3.6375 H   0  0  0  0  0  0  0  0  0  0  0  0
    4.9260   -0.2570    2.2097 H   0  0  0  0  0  0  0  0  0  0  0  0
    2.8495   -2.6908    2.0803 H   0  0  0  0  0  0  0  0  0  0  0  0
    4.1521   -3.5152    3.6206 H   0  0  0  0  0  0  0  0  0  0  0  0
   -0.3240    3.3557    5.2445 H   0  0  0  0  0  0  0  0  0  0  0  0
  1  2  1  0
  1 33  1  0
  1 34  1  0
  1 35  1  0
  2  3  1  0
  3 29  1  0
  3  4  1  0
  3 36  1  6
  4  5  1  0
  4 37  1  0
  4 38  1  0
  5 28  1  0
  5  6  1  0
  5 39  1  6
  6  7  1  0
  6 40  1  0
  6 41  1  0
  7 12  1  0
  7  8  1  0
  7 65  1  6
  8  9  1  0
  8 42  1  0
  8 43  1  0
  9 10  1  0
  9 44  1  0
  9 45  1  0
 10 11  1  0
 10 46  1  0
 10 47  1  0
 12 11  1  6
 11 48  1  0
 11 49  1  0
 12 28  1  0
 12 13  1  0
 13 23  1  0
 13 14  1  0
 13 50  1  6
 14 15  1  0
 15 27  1  0
 15 16  1  1
 15 17  1  0
 16 51  1  0
 17 18  1  0
 17 22  1  0
 17 52  1  1
 18 19  1  0
 19 20  1  0
 19 21  2  0
 20 53  1  0
 20 54  1  0
 20 55  1  0
 22 31  1  0
 22 23  1  0
 22 56  1  1
 23 24  1  0
 23 57  1  6
 24 25  1  6
 24 26  1  0
 24 29  1  0
 25 58  1  0
 26 27  1  0
 26 59  1  0
 26 60  1  0
 27 28  1  0
 28 61  1  6
 29 30  1  6
 29 31  1  0
 30 62  1  0
 31 32  1  0
 31 63  1  6
 32 64  1  0
M  CHG  1   7   1
M  END
>  <i_m_ct_stereo_status>  (149) 
1

>  <s_m_source_file>  (149) 
/var/tmp/pbs.5076255.sched01/tmp3foza_40/36o9al7bb4.sdf

>  <i_m_source_file_index>  (149) 
33

>  <i_lp_mmshare_version>  (149) 
48012

>  <i_f3d_flags>  (149) 
0

>  <s_epik_input>  (149) 
W0NIM11PW0NASF0oW0NIMl0xKVtDQF0oW09IXSkoW0NAXTIoW09IXSlbQ0gyXTMpW0NAQEhdKFtPSF0pW0NAQEhdKFtDQEBIXTRPQyg9TylbQ0gzXSlbQ0BIXTJbQ0BIXTVPW0NAXTQoW09IXSlOM1tDQEBIXTZbQ0BIXTFbQ0gyXU4oW0NAXTU2NylbQ0gyXVtDSDJdW0NIMl1bQ0gyXTc=

>  <s_epik_cmdline>  (149) 
J2VwaWtfcHl0aG9uJywgJy1waHQnLCAnMi4wJywgJy1waCcsICc3LjAnLCAnLXRuJywgJzgnLCAnLW1hJywgJzIwMCcsICctaW1hZScsICc8aW5maWxlLm1hZT4nLCAnLW9tYWUnLCAnPG91dGZpbGUubWFlPic=

>  <r_lp_tautomer_probability>  (149) 
1

>  <r_epik_Ionization_Penalty>  (149) 
0.0029167

>  <r_epik_Ionization_Penalty_Charging>  (149) 
0.00278984

>  <r_epik_Ionization_Penalty_Neutral>  (149) 
0.000126859

>  <r_epik_State_Penalty>  (149) 
-0

>  <r_epik_Charging_Adjusted_Penalty>  (149) 
0.00278984

>  <i_epik_Tot_Q>  (149) 
1

>  <i_epik_Tot_abs_Q>  (149) 
1

>  <s_epik_Chemistry_Notes>  (149) 
This compound has an ester and may undergo hydrolysis at high or low pH.

>  <s_lp_Force_Field>  (149) 
OPLS3e

>  <r_lp_Energy>  (149) 
417.31

>  <b_lp_Chiralities_Consistent>  (149) 
1

>  <s_lp_Variant>  (149) 
54:0-1

>  <s_i_glide_gridfile>  (149) 
pfpi4k_grid

>  <i_i_glide_lignum>  (149) 
33

>  <i_i_glide_rotatable_bonds>  (149) 
7

>  <r_i_docking_score>  (149) 
-2.28622

>  <r_i_glide_ligand_efficiency>  (149) 
-0.0714443

>  <r_i_glide_ligand_efficiency_sa>  (149) 
-0.226822

>  <r_i_glide_ligand_efficiency_ln>  (149) 
-0.511947

>  <r_i_glide_gscore>  (149) 
-2.28622

>  <r_i_glide_lipo>  (149) 
-0.0555037

>  <r_i_glide_hbond>  (149) 
0

>  <r_i_glide_metal>  (149) 
-0

>  <r_i_glide_rewards>  (149) 
-0.317004

>  <r_i_glide_evdw>  (149) 
-18.5253

>  <r_i_glide_ecoul>  (149) 
-7.09605

>  <r_i_glide_erotb>  (149) 
0.0976024

>  <r_i_glide_esite>  (149) 
-0.0206405

>  <r_i_glide_emodel>  (149) 
-27.9801

>  <r_i_glide_energy>  (149) 
-25.6213

>  <r_i_glide_einternal>  (149) 
2.38162

>  <r_i_glide_intrahb_reward>  (149) 
-0

>  <i_i_glide_confnum>  (149) 
1

>  <i_i_glide_posenum>  (149) 
18

>  <r_i_glide_eff_state_penalty>  (149) 
0

>  <ligand_id>  (149) 
54

>  <original_smiles>  (149) 
COC1CC2CN3CCCCC34C3OC5(O)C(OC(C)=O)C6C3C(O)(CN5C24)C1(O)C6O

>  <smiles>  (149) 
[H]OC12OC3([H])C4([H])C([H])(C1([H])OC(=O)C([H])([H])[H])C([H])(O[H])C1(O[H])C([H])(OC([H])([H])[H])C([H])([H])C5([H])C([H])(N2C([H])([H])C41O[H])C31C([H])([H])C([H])([H])C([H])([H])C([H])([H])[N+]1([H])C5([H])[H]

$$$$
55:0:0
     RDKit          3D

 75 78  0  0  1  0  0  0  0  0999 V2000
    5.6710   -3.8403    1.8559 C   0  0  0  0  0  0  0  0  0  0  0  0
    4.1329   -3.6929    2.0633 C   0  0  0  0  0  0  0  0  0  0  0  0
    3.3993   -2.5472    1.3323 C   0  0  2  0  0  0  0  0  0  0  0  0
    3.3321   -2.6745   -0.1955 C   0  0  0  0  0  0  0  0  0  0  0  0
    4.6583   -2.4775   -0.9562 C   0  0  0  0  0  0  0  0  0  0  0  0
    4.6726   -3.2172   -2.2749 C   0  0  0  0  0  0  0  0  0  0  0  0
    3.8129   -2.5125   -3.3270 C   0  0  0  0  0  0  0  0  0  0  0  0
    2.6488   -3.0689   -3.6417 N   0  0  0  0  0  0  0  0  0  0  0  0
    4.1887   -1.4440   -3.8537 O   0  0  0  0  0  0  0  0  0  0  0  0
    3.7386   -1.1038    1.8492 C   0  0  2  0  0  0  0  0  0  0  0  0
    4.9350   -1.0260    2.8535 C   0  0  0  0  0  0  0  0  0  0  0  0
    4.5455   -0.1482    4.0156 C   0  0  0  0  0  0  0  0  0  0  0  0
    3.3384    0.6282    3.4788 C   0  0  2  0  0  0  0  0  0  0  0  0
    2.4193    1.3734    4.4815 C   0  0  2  0  0  0  0  0  0  0  0  0
    2.4721    0.8657    5.9363 C   0  0  0  0  0  0  0  0  0  0  0  0
    1.4977    1.6456    6.7919 C   0  0  0  0  0  0  0  0  0  0  0  0
    0.4846    2.3856    6.2994 C   0  0  0  0  0  0  0  0  0  0  0  0
   -0.4144    3.1985    7.2196 C   0  0  0  0  0  0  0  0  0  0  0  0
   -1.8994    2.9049    6.9602 C   0  0  1  0  0  0  0  0  0  0  0  0
   -2.2673    1.4833    7.4161 C   0  0  0  0  0  0  0  0  0  0  0  0
   -2.6635    3.7952    7.7388 O   0  0  0  0  0  0  0  0  0  0  0  0
   -2.2587    3.1203    5.4785 C   0  0  0  0  0  0  0  0  0  0  0  0
   -1.3846    2.2325    4.5780 C   0  0  0  0  0  0  0  0  0  0  0  0
    0.1405    2.4780    4.7969 C   0  0  1  0  0  0  0  0  0  0  0  0
    0.5067    3.8932    4.3175 C   0  0  0  0  0  0  0  0  0  0  0  0
    0.9544    1.4721    3.9844 C   0  0  1  0  0  0  0  0  0  0  0  0
    0.9007    1.5770    2.4436 C   0  0  0  0  0  0  0  0  0  0  0  0
    1.5930    0.4000    1.7104 C   0  0  0  0  0  0  0  0  0  0  0  0
    2.5772   -0.3898    2.6180 C   0  0  1  0  0  0  0  0  0  0  0  0
    1.8509   -1.4492    3.4968 C   0  0  0  0  0  0  0  0  0  0  0  0
    6.0929   -4.5592    2.5363 H   0  0  0  0  0  0  0  0  0  0  0  0
    6.2187   -2.8939    1.9795 H   0  0  0  0  0  0  0  0  0  0  0  0
    5.8966   -4.1993    0.8398 H   0  0  0  0  0  0  0  0  0  0  0  0
    3.6481   -4.6313    1.8222 H   0  0  0  0  0  0  0  0  0  0  0  0
    3.9213   -3.5932    3.1404 H   0  0  0  0  0  0  0  0  0  0  0  0
    2.3405   -2.7300    1.5341 H   0  0  0  0  0  0  0  0  0  0  0  0
    2.8684   -3.6628   -0.4136 H   0  0  0  0  0  0  0  0  0  0  0  0
    2.5560   -1.9448   -0.5888 H   0  0  0  0  0  0  0  0  0  0  0  0
    4.8929   -1.4295   -1.0253 H   0  0  0  0  0  0  0  0  0  0  0  0
    5.4935   -2.9209   -0.3972 H   0  0  0  0  0  0  0  0  0  0  0  0
    5.6912   -3.2688   -2.6427 H   0  0  0  0  0  0  0  0  0  0  0  0
    4.3289   -4.2646   -2.1703 H   0  0  0  0  0  0  0  0  0  0  0  0
    2.3609   -3.9253   -3.1629 H   0  0  0  0  0  0  0  0  0  0  0  0
    2.0380   -2.6109   -4.3047 H   0  0  0  0  0  0  0  0  0  0  0  0
    4.0231   -0.4862    0.9715 H   0  0  0  0  0  0  0  0  0  0  0  0
    5.1425   -1.9591    3.3585 H   0  0  0  0  0  0  0  0  0  0  0  0
    5.8451   -0.6913    2.3513 H   0  0  0  0  0  0  0  0  0  0  0  0
    4.2348   -0.7938    4.8404 H   0  0  0  0  0  0  0  0  0  0  0  0
    5.3857    0.4527    4.3773 H   0  0  0  0  0  0  0  0  0  0  0  0
    3.7886    1.3852    2.8249 H   0  0  0  0  0  0  0  0  0  0  0  0
    2.8491    2.3782    4.5100 H   0  0  0  0  0  0  0  0  0  0  0  0
    2.2407   -0.1967    6.0122 H   0  0  0  0  0  0  0  0  0  0  0  0
    3.4811    0.9899    6.3453 H   0  0  0  0  0  0  0  0  0  0  0  0
    1.6833    1.6062    7.8545 H   0  0  0  0  0  0  0  0  0  0  0  0
   -0.1602    3.0107    8.2642 H   0  0  0  0  0  0  0  0  0  0  0  0
   -0.1974    4.2452    7.0398 H   0  0  0  0  0  0  0  0  0  0  0  0
   -1.6694    0.7343    6.8946 H   0  0  0  0  0  0  0  0  0  0  0  0
   -3.3165    1.2769    7.2085 H   0  0  0  0  0  0  0  0  0  0  0  0
   -2.0824    1.3524    8.4811 H   0  0  0  0  0  0  0  0  0  0  0  0
   -2.4533    3.6640    8.6517 H   0  0  0  0  0  0  0  0  0  0  0  0
   -3.3141    2.9258    5.2976 H   0  0  0  0  0  0  0  0  0  0  0  0
   -2.1164    4.1571    5.2000 H   0  0  0  0  0  0  0  0  0  0  0  0
   -1.6351    1.1931    4.7580 H   0  0  0  0  0  0  0  0  0  0  0  0
   -1.6537    2.3949    3.5378 H   0  0  0  0  0  0  0  0  0  0  0  0
    0.2743    4.0152    3.2572 H   0  0  0  0  0  0  0  0  0  0  0  0
    1.5732    4.0965    4.4702 H   0  0  0  0  0  0  0  0  0  0  0  0
   -0.0444    4.6704    4.8576 H   0  0  0  0  0  0  0  0  0  0  0  0
    0.3984    0.5612    4.2196 H   0  0  0  0  0  0  0  0  0  0  0  0
   -0.1266    1.6541    2.0831 H   0  0  0  0  0  0  0  0  0  0  0  0
    1.4035    2.5035    2.1353 H   0  0  0  0  0  0  0  0  0  0  0  0
    0.8488   -0.2851    1.3115 H   0  0  0  0  0  0  0  0  0  0  0  0
    2.0930    0.8111    0.8312 H   0  0  0  0  0  0  0  0  0  0  0  0
    1.2404   -1.0609    4.3075 H   0  0  0  0  0  0  0  0  0  0  0  0
    2.5669   -2.0690    3.9962 H   0  0  0  0  0  0  0  0  0  0  0  0
    1.1659   -2.0418    2.9021 H   0  0  0  0  0  0  0  0  0  0  0  0
  1  2  1  0
  1 31  1  0
  1 32  1  0
  1 33  1  0
  2  3  1  0
  2 34  1  0
  2 35  1  0
  3  4  1  0
  3 10  1  0
  3 36  1  1
  4  5  1  0
  4 37  1  0
  4 38  1  0
  5  6  1  0
  5 39  1  0
  5 40  1  0
  6  7  1  0
  6 41  1  0
  6 42  1  0
  7  8  1  0
  7  9  2  0
  8 43  1  0
  8 44  1  0
 10 29  1  0
 10 11  1  0
 10 45  1  6
 11 12  1  0
 11 46  1  0
 11 47  1  0
 12 13  1  0
 12 48  1  0
 12 49  1  0
 13 29  1  0
 13 14  1  0
 13 50  1  6
 14 26  1  0
 14 15  1  0
 14 51  1  1
 15 16  1  0
 15 52  1  0
 15 53  1  0
 16 17  2  0
 16 54  1  0
 17 24  1  0
 17 18  1  0
 18 19  1  0
 18 55  1  0
 18 56  1  0
 19 20  1  0
 19 21  1  1
 19 22  1  0
 20 57  1  0
 20 58  1  0
 20 59  1  0
 21 60  1  0
 22 23  1  0
 22 61  1  0
 22 62  1  0
 23 24  1  0
 23 63  1  0
 23 64  1  0
 24 25  1  6
 24 26  1  0
 25 65  1  0
 25 66  1  0
 25 67  1  0
 26 27  1  0
 26 68  1  6
 27 28  1  0
 27 69  1  0
 27 70  1  0
 28 29  1  0
 28 71  1  0
 28 72  1  0
 29 30  1  1
 30 73  1  0
 30 74  1  0
 30 75  1  0
M  END
>  <i_m_ct_stereo_status>  (150) 
1

>  <s_m_source_file>  (150) 
/var/tmp/pbs.5076255.sched01/tmp3foza_40/36o9al7bb4.sdf

>  <i_m_source_file_index>  (150) 
34

>  <i_lp_mmshare_version>  (150) 
48012

>  <i_f3d_flags>  (150) 
0

>  <s_epik_input>  (150) 
W05IMl1DKD1PKVtDSDJdW0NIMl1bQ0gyXVtDQEBIXShbQ0gyXVtDSDNdKVtDQEhdKFtDSDJdW0NIMl0xKVtDQF0oW0NIM10pKFtDSDJdW0NIMl1bQ0BASF0yMylbQ0BIXTFbQ0BASF0yW0NIMl1bQ0hdPUMoW0NAQF0zNFtDSDNdKVtDSDJdW0NAQF0oW0NIM10pKFtPSF0pW0NIMl1bQ0gyXTQ=

>  <s_epik_cmdline>  (150) 
J2VwaWtfcHl0aG9uJywgJy1waHQnLCAnMi4wJywgJy1waCcsICc3LjAnLCAnLXRuJywgJzgnLCAnLW1hJywgJzIwMCcsICctaW1hZScsICc8aW5maWxlLm1hZT4nLCAnLW9tYWUnLCAnPG91dGZpbGUubWFlPic=

>  <r_lp_tautomer_probability>  (150) 
1

>  <r_epik_Ionization_Penalty>  (150) 
1.27867e-06

>  <r_epik_Ionization_Penalty_Charging>  (150) 
0

>  <r_epik_Ionization_Penalty_Neutral>  (150) 
1.27867e-06

>  <r_epik_State_Penalty>  (150) 
-0

>  <r_epik_Charging_Adjusted_Penalty>  (150) 
0

>  <i_epik_Tot_Q>  (150) 
0

>  <i_epik_Tot_abs_Q>  (150) 
0

>  <s_lp_Force_Field>  (150) 
OPLS3e

>  <r_lp_Energy>  (150) 
44.5847

>  <b_lp_Chiralities_Consistent>  (150) 
1

>  <s_lp_Variant>  (150) 
55:0-1

>  <s_i_glide_gridfile>  (150) 
pfpi4k_grid

>  <i_i_glide_lignum>  (150) 
34

>  <i_i_glide_rotatable_bonds>  (150) 
7

>  <r_i_docking_score>  (150) 
-3.12307

>  <r_i_glide_ligand_efficiency>  (150) 
-0.104102

>  <r_i_glide_ligand_efficiency_sa>  (150) 
-0.32347

>  <r_i_glide_ligand_efficiency_ln>  (150) 
-0.709595

>  <r_i_glide_gscore>  (150) 
-3.12307

>  <r_i_glide_lipo>  (150) 
-0.298288

>  <r_i_glide_hbond>  (150) 
-0.142061

>  <r_i_glide_metal>  (150) 
-0

>  <r_i_glide_rewards>  (150) 
-0.79734

>  <r_i_glide_evdw>  (150) 
-27.5202

>  <r_i_glide_ecoul>  (150) 
-6.44403

>  <r_i_glide_erotb>  (150) 
0.457236

>  <r_i_glide_esite>  (150) 
0

>  <r_i_glide_emodel>  (150) 
-25.8154

>  <r_i_glide_energy>  (150) 
-33.9642

>  <r_i_glide_einternal>  (150) 
23.596

>  <r_i_glide_intrahb_reward>  (150) 
-0

>  <i_i_glide_confnum>  (150) 
4

>  <i_i_glide_posenum>  (150) 
17

>  <r_i_glide_eff_state_penalty>  (150) 
0

>  <ligand_id>  (150) 
55

>  <original_smiles>  (150) 
CCC(CCCC(N)=O)C1CCC2C3CC=C4CC(C)(O)CCC4(C)C3CCC12C

>  <smiles>  (150) 
[H]OC1(C([H])([H])[H])C([H])([H])C2=C([H])C([H])([H])C3([H])C([H])(C([H])([H])C([H])([H])C4(C([H])([H])[H])C([H])(C([H])(C([H])([H])C([H])([H])[H])C([H])([H])C([H])([H])C([H])([H])C(=O)N([H])[H])C([H])([H])C([H])([H])C34[H])C2(C([H])([H])[H])C([H])([H])C1([H])[H]

$$$$
55:0:1
     RDKit          3D

 75 78  0  0  1  0  0  0  0  0999 V2000
    3.9480   -4.1133    3.7107 C   0  0  0  0  0  0  0  0  0  0  0  0
    4.1506   -3.9884    2.1577 C   0  0  0  0  0  0  0  0  0  0  0  0
    3.4978   -2.7936    1.4092 C   0  0  2  0  0  0  0  0  0  0  0  0
    3.5112   -2.9055   -0.1195 C   0  0  0  0  0  0  0  0  0  0  0  0
    4.9019   -2.8095   -0.7783 C   0  0  0  0  0  0  0  0  0  0  0  0
    4.9351   -3.4313   -2.1836 C   0  0  0  0  0  0  0  0  0  0  0  0
    3.9750   -2.7577   -3.1767 C   0  0  0  0  0  0  0  0  0  0  0  0
    2.8864   -3.4823   -3.5320 N   0  0  0  0  0  0  0  0  0  0  0  0
    4.2323   -1.6470   -3.6442 O   0  0  0  0  0  0  0  0  0  0  0  0
    3.9547   -1.3833    1.9214 C   0  0  2  0  0  0  0  0  0  0  0  0
    5.1588   -1.3502    2.9132 C   0  0  0  0  0  0  0  0  0  0  0  0
    4.7043   -0.5473    4.1358 C   0  0  0  0  0  0  0  0  0  0  0  0
    3.5656    0.3307    3.5769 C   0  0  2  0  0  0  0  0  0  0  0  0
    2.6260    1.1079    4.5459 C   0  0  2  0  0  0  0  0  0  0  0  0
    2.5677    0.5831    5.9923 C   0  0  0  0  0  0  0  0  0  0  0  0
    1.5892    1.4011    6.8103 C   0  0  0  0  0  0  0  0  0  0  0  0
    0.6410    2.2037    6.2809 C   0  0  0  0  0  0  0  0  0  0  0  0
   -0.2584    3.0532    7.1645 C   0  0  0  0  0  0  0  0  0  0  0  0
   -1.7430    2.8463    6.8245 C   0  0  1  0  0  0  0  0  0  0  0  0
   -2.2071    1.4413    7.2342 C   0  0  0  0  0  0  0  0  0  0  0  0
   -2.5076    3.7592    7.5795 O   0  0  0  0  0  0  0  0  0  0  0  0
   -2.0078    3.1014    5.3297 C   0  0  0  0  0  0  0  0  0  0  0  0
   -1.1368    2.1800    4.4633 C   0  0  0  0  0  0  0  0  0  0  0  0
    0.3857    2.3400    4.7657 C   0  0  1  0  0  0  0  0  0  0  0  0
    0.8525    3.7356    4.3284 C   0  0  0  0  0  0  0  0  0  0  0  0
    1.1898    1.3042    3.9774 C   0  0  1  0  0  0  0  0  0  0  0  0
    1.2195    1.4401    2.4403 C   0  0  0  0  0  0  0  0  0  0  0  0
    1.8935    0.2516    1.7155 C   0  0  0  0  0  0  0  0  0  0  0  0
    2.7947   -0.6021    2.6476 C   0  0  1  0  0  0  0  0  0  0  0  0
    1.9169   -1.6001    3.4648 C   0  0  0  0  0  0  0  0  0  0  0  0
    4.5418   -4.9097    4.1202 H   0  0  0  0  0  0  0  0  0  0  0  0
    2.9065   -4.2453    3.9671 H   0  0  0  0  0  0  0  0  0  0  0  0
    4.2757   -3.2609    4.3284 H   0  0  0  0  0  0  0  0  0  0  0  0
    5.2328   -3.9821    1.9255 H   0  0  0  0  0  0  0  0  0  0  0  0
    3.7801   -4.9077    1.7260 H   0  0  0  0  0  0  0  0  0  0  0  0
    2.4444   -2.9512    1.5389 H   0  0  0  0  0  0  0  0  0  0  0  0
    3.0504   -3.8600   -0.3890 H   0  0  0  0  0  0  0  0  0  0  0  0
    2.8592   -2.1434   -0.5544 H   0  0  0  0  0  0  0  0  0  0  0  0
    5.2274   -1.7700   -0.8041 H   0  0  0  0  0  0  0  0  0  0  0  0
    5.6159   -3.3353   -0.1493 H   0  0  0  0  0  0  0  0  0  0  0  0
    5.9466   -3.3679   -2.5699 H   0  0  0  0  0  0  0  0  0  0  0  0
    4.6960   -4.4930   -2.1085 H   0  0  0  0  0  0  0  0  0  0  0  0
    2.7339   -4.3651   -3.1229 H   0  0  0  0  0  0  0  0  0  0  0  0
    2.2333   -3.0500   -4.1834 H   0  0  0  0  0  0  0  0  0  0  0  0
    4.2876   -0.7830    1.0549 H   0  0  0  0  0  0  0  0  0  0  0  0
    5.5505   -2.3195    3.2188 H   0  0  0  0  0  0  0  0  0  0  0  0
    6.0474   -0.9611    2.4448 H   0  0  0  0  0  0  0  0  0  0  0  0
    4.3089   -1.1801    4.9350 H   0  0  0  0  0  0  0  0  0  0  0  0
    5.5308    0.0118    4.5721 H   0  0  0  0  0  0  0  0  0  0  0  0
    4.0760    1.0791    2.9676 H   0  0  0  0  0  0  0  0  0  0  0  0
    3.0925    2.0954    4.6128 H   0  0  0  0  0  0  0  0  0  0  0  0
    2.2702   -0.4646    6.0351 H   0  0  0  0  0  0  0  0  0  0  0  0
    3.5556    0.6467    6.4553 H   0  0  0  0  0  0  0  0  0  0  0  0
    1.7175    1.3417    7.8814 H   0  0  0  0  0  0  0  0  0  0  0  0
   -0.0705    2.8379    8.2171 H   0  0  0  0  0  0  0  0  0  0  0  0
    0.0268    4.0902    7.0143 H   0  0  0  0  0  0  0  0  0  0  0  0
   -1.6222    0.6706    6.7301 H   0  0  0  0  0  0  0  0  0  0  0  0
   -3.2531    1.2916    6.9688 H   0  0  0  0  0  0  0  0  0  0  0  0
   -2.0831    1.2919    8.3051 H   0  0  0  0  0  0  0  0  0  0  0  0
   -2.3268    3.6233    8.4990 H   0  0  0  0  0  0  0  0  0  0  0  0
   -3.0595    2.9520    5.0913 H   0  0  0  0  0  0  0  0  0  0  0  0
   -1.7976    4.1368    5.0769 H   0  0  0  0  0  0  0  0  0  0  0  0
   -1.4568    1.1503    4.6121 H   0  0  0  0  0  0  0  0  0  0  0  0
   -1.3416    2.3717    3.4126 H   0  0  0  0  0  0  0  0  0  0  0  0
    0.6819    3.8813    3.2618 H   0  0  0  0  0  0  0  0  0  0  0  0
    1.9142    3.8740    4.5431 H   0  0  0  0  0  0  0  0  0  0  0  0
    0.3143    4.5244    4.8524 H   0  0  0  0  0  0  0  0  0  0  0  0
    0.5551    0.4493    4.1698 H   0  0  0  0  0  0  0  0  0  0  0  0
    0.2175    1.5716    2.0272 H   0  0  0  0  0  0  0  0  0  0  0  0
    1.7846    2.3402    2.1785 H   0  0  0  0  0  0  0  0  0  0  0  0
    1.1241   -0.4085    1.2561 H   0  0  0  0  0  0  0  0  0  0  0  0
    2.4482    0.6350    0.8593 H   0  0  0  0  0  0  0  0  0  0  0  0
    1.2842   -1.2249    4.2430 H   0  0  0  0  0  0  0  0  0  0  0  0
    2.5508   -2.1826    4.0710 H   0  0  0  0  0  0  0  0  0  0  0  0
    1.2372   -2.1853    2.8442 H   0  0  0  0  0  0  0  0  0  0  0  0
  1  2  1  0
  1 31  1  0
  1 32  1  0
  1 33  1  0
  2  3  1  0
  2 34  1  0
  2 35  1  0
  3  4  1  0
  3 10  1  0
  3 36  1  1
  4  5  1  0
  4 37  1  0
  4 38  1  0
  5  6  1  0
  5 39  1  0
  5 40  1  0
  6  7  1  0
  6 41  1  0
  6 42  1  0
  7  8  1  0
  7  9  2  0
  8 43  1  0
  8 44  1  0
 10 29  1  0
 10 11  1  0
 10 45  1  6
 11 12  1  0
 11 46  1  0
 11 47  1  0
 12 13  1  0
 12 48  1  0
 12 49  1  0
 13 29  1  0
 13 14  1  0
 13 50  1  6
 14 26  1  0
 14 15  1  0
 14 51  1  1
 15 16  1  0
 15 52  1  0
 15 53  1  0
 16 17  2  0
 16 54  1  0
 17 24  1  0
 17 18  1  0
 18 19  1  0
 18 55  1  0
 18 56  1  0
 19 20  1  0
 19 21  1  1
 19 22  1  0
 20 57  1  0
 20 58  1  0
 20 59  1  0
 21 60  1  0
 22 23  1  0
 22 61  1  0
 22 62  1  0
 23 24  1  0
 23 63  1  0
 23 64  1  0
 24 25  1  6
 24 26  1  0
 25 65  1  0
 25 66  1  0
 25 67  1  0
 26 27  1  0
 26 68  1  6
 27 28  1  0
 27 69  1  0
 27 70  1  0
 28 29  1  0
 28 71  1  0
 28 72  1  0
 29 30  1  1
 30 73  1  0
 30 74  1  0
 30 75  1  0
M  END
>  <i_m_ct_stereo_status>  (151) 
1

>  <s_m_source_file>  (151) 
/var/tmp/pbs.5076255.sched01/tmp3foza_40/36o9al7bb4.sdf

>  <i_m_source_file_index>  (151) 
34

>  <i_lp_mmshare_version>  (151) 
48012

>  <i_f3d_flags>  (151) 
0

>  <s_epik_input>  (151) 
W05IMl1DKD1PKVtDSDJdW0NIMl1bQ0gyXVtDQEBIXShbQ0gyXVtDSDNdKVtDQEhdKFtDSDJdW0NIMl0xKVtDQF0oW0NIM10pKFtDSDJdW0NIMl1bQ0BASF0yMylbQ0BIXTFbQ0BASF0yW0NIMl1bQ0hdPUMoW0NAQF0zNFtDSDNdKVtDSDJdW0NAQF0oW0NIM10pKFtPSF0pW0NIMl1bQ0gyXTQ=

>  <s_epik_cmdline>  (151) 
J2VwaWtfcHl0aG9uJywgJy1waHQnLCAnMi4wJywgJy1waCcsICc3LjAnLCAnLXRuJywgJzgnLCAnLW1hJywgJzIwMCcsICctaW1hZScsICc8aW5maWxlLm1hZT4nLCAnLW9tYWUnLCAnPG91dGZpbGUubWFlPic=

>  <r_lp_tautomer_probability>  (151) 
1

>  <r_epik_Ionization_Penalty>  (151) 
1.27867e-06

>  <r_epik_Ionization_Penalty_Charging>  (151) 
0

>  <r_epik_Ionization_Penalty_Neutral>  (151) 
1.27867e-06

>  <r_epik_State_Penalty>  (151) 
-0

>  <r_epik_Charging_Adjusted_Penalty>  (151) 
0

>  <i_epik_Tot_Q>  (151) 
0

>  <i_epik_Tot_abs_Q>  (151) 
0

>  <s_lp_Force_Field>  (151) 
OPLS3e

>  <r_lp_Energy>  (151) 
44.5847

>  <b_lp_Chiralities_Consistent>  (151) 
1

>  <s_lp_Variant>  (151) 
55:0-1

>  <s_i_glide_gridfile>  (151) 
pfpi4k_grid

>  <i_i_glide_lignum>  (151) 
34

>  <i_i_glide_rotatable_bonds>  (151) 
7

>  <r_i_docking_score>  (151) 
-3.08188

>  <r_i_glide_ligand_efficiency>  (151) 
-0.102729

>  <r_i_glide_ligand_efficiency_sa>  (151) 
-0.319204

>  <r_i_glide_ligand_efficiency_ln>  (151) 
-0.700237

>  <r_i_glide_gscore>  (151) 
-3.08188

>  <r_i_glide_lipo>  (151) 
-0.299817

>  <r_i_glide_hbond>  (151) 
-0.32

>  <r_i_glide_metal>  (151) 
-0

>  <r_i_glide_rewards>  (151) 
-0.738256

>  <r_i_glide_evdw>  (151) 
-25.8837

>  <r_i_glide_ecoul>  (151) 
-7.41565

>  <r_i_glide_erotb>  (151) 
0.457236

>  <r_i_glide_esite>  (151) 
0

>  <r_i_glide_emodel>  (151) 
-24.1729

>  <r_i_glide_energy>  (151) 
-33.2994

>  <r_i_glide_einternal>  (151) 
22.7639

>  <r_i_glide_intrahb_reward>  (151) 
-0

>  <i_i_glide_confnum>  (151) 
4

>  <i_i_glide_posenum>  (151) 
1

>  <r_i_glide_eff_state_penalty>  (151) 
0

>  <ligand_id>  (151) 
55

>  <original_smiles>  (151) 
CCC(CCCC(N)=O)C1CCC2C3CC=C4CC(C)(O)CCC4(C)C3CCC12C

>  <smiles>  (151) 
[H]OC1(C([H])([H])[H])C([H])([H])C2=C([H])C([H])([H])C3([H])C([H])(C([H])([H])C([H])([H])C4(C([H])([H])[H])C([H])(C([H])(C([H])([H])C([H])([H])[H])C([H])([H])C([H])([H])C([H])([H])C(=O)N([H])[H])C([H])([H])C([H])([H])C34[H])C2(C([H])([H])[H])C([H])([H])C1([H])[H]

$$$$
55:0:2
     RDKit          3D

 75 78  0  0  1  0  0  0  0  0999 V2000
   -0.4261   -8.6351    4.6526 C   0  0  0  0  0  0  0  0  0  0  0  0
    0.5783   -7.7013    5.3110 C   0  0  0  0  0  0  0  0  0  0  0  0
    1.5350   -6.9606    4.3434 C   0  0  2  0  0  0  0  0  0  0  0  0
    2.3904   -7.8805    3.4601 C   0  0  0  0  0  0  0  0  0  0  0  0
    3.3060   -8.8483    4.2209 C   0  0  0  0  0  0  0  0  0  0  0  0
    3.9983   -9.8450    3.2820 C   0  0  0  0  0  0  0  0  0  0  0  0
    5.0123   -9.1860    2.3410 C   0  0  0  0  0  0  0  0  0  0  0  0
    5.2669   -9.8520    1.2063 N   0  0  0  0  0  0  0  0  0  0  0  0
    5.5429   -8.1291    2.5882 O   0  0  0  0  0  0  0  0  0  0  0  0
    2.3516   -5.8187    5.0678 C   0  0  2  0  0  0  0  0  0  0  0  0
    2.2497   -5.7568    6.6429 C   0  0  0  0  0  0  0  0  0  0  0  0
    1.9780   -4.2800    6.9932 C   0  0  0  0  0  0  0  0  0  0  0  0
    2.4051   -3.4983    5.7418 C   0  0  2  0  0  0  0  0  0  0  0  0
    1.9686   -2.0147    5.5785 C   0  0  2  0  0  0  0  0  0  0  0  0
    0.7261   -1.5877    6.3843 C   0  0  0  0  0  0  0  0  0  0  0  0
    0.3842   -0.1402    6.0909 C   0  0  0  0  0  0  0  0  0  0  0  0
    0.8490    0.5545    5.0287 C   0  0  0  0  0  0  0  0  0  0  0  0
    0.4967    2.0204    4.8400 C   0  0  0  0  0  0  0  0  0  0  0  0
   -0.0784    2.2888    3.4334 C   0  0  1  0  0  0  0  0  0  0  0  0
   -1.4845    1.6863    3.2909 C   0  0  0  0  0  0  0  0  0  0  0  0
   -0.2166    3.6839    3.2509 O   0  0  0  0  0  0  0  0  0  0  0  0
    0.8700    1.7796    2.3381 C   0  0  0  0  0  0  0  0  0  0  0  0
    1.1529    0.2849    2.5177 C   0  0  0  0  0  0  0  0  0  0  0  0
    1.7406   -0.0560    3.9228 C   0  0  1  0  0  0  0  0  0  0  0  0
    3.1582    0.5423    4.0544 C   0  0  0  0  0  0  0  0  0  0  0  0
    1.8104   -1.5950    4.0778 C   0  0  1  0  0  0  0  0  0  0  0  0
    2.8440   -2.3502    3.1976 C   0  0  0  0  0  0  0  0  0  0  0  0
    2.7213   -3.8983    3.3008 C   0  0  0  0  0  0  0  0  0  0  0  0
    1.9523   -4.3858    4.5754 C   0  0  1  0  0  0  0  0  0  0  0  0
    0.3976   -4.3123    4.3799 C   0  0  0  0  0  0  0  0  0  0  0  0
   -1.0433   -9.0690    5.4432 H   0  0  0  0  0  0  0  0  0  0  0  0
    0.0733   -9.4456    4.1063 H   0  0  0  0  0  0  0  0  0  0  0  0
   -1.0903   -8.0831    3.9794 H   0  0  0  0  0  0  0  0  0  0  0  0
   -0.0273   -6.9542    5.8379 H   0  0  0  0  0  0  0  0  0  0  0  0
    1.1320   -8.2528    6.0869 H   0  0  0  0  0  0  0  0  0  0  0  0
    0.9003   -6.5836    3.5542 H   0  0  0  0  0  0  0  0  0  0  0  0
    1.7157   -8.4394    2.8020 H   0  0  0  0  0  0  0  0  0  0  0  0
    2.9698   -7.2432    2.7893 H   0  0  0  0  0  0  0  0  0  0  0  0
    4.0212   -8.2869    4.8252 H   0  0  0  0  0  0  0  0  0  0  0  0
    2.6965   -9.4171    4.9209 H   0  0  0  0  0  0  0  0  0  0  0  0
    4.5125  -10.5805    3.8891 H   0  0  0  0  0  0  0  0  0  0  0  0
    3.2386  -10.3701    2.7049 H   0  0  0  0  0  0  0  0  0  0  0  0
    4.8075  -10.7413    0.9972 H   0  0  0  0  0  0  0  0  0  0  0  0
    5.9313   -9.4678    0.5679 H   0  0  0  0  0  0  0  0  0  0  0  0
    3.4218   -5.9583    4.8536 H   0  0  0  0  0  0  0  0  0  0  0  0
    1.4232   -6.3029    7.0930 H   0  0  0  0  0  0  0  0  0  0  0  0
    3.1953   -6.1091    7.0915 H   0  0  0  0  0  0  0  0  0  0  0  0
    0.9026   -4.1666    7.1472 H   0  0  0  0  0  0  0  0  0  0  0  0
    2.4606   -3.9804    7.9298 H   0  0  0  0  0  0  0  0  0  0  0  0
    3.5031   -3.4972    5.7949 H   0  0  0  0  0  0  0  0  0  0  0  0
    2.7961   -1.4622    6.0301 H   0  0  0  0  0  0  0  0  0  0  0  0
   -0.1454   -2.2061    6.1685 H   0  0  0  0  0  0  0  0  0  0  0  0
    0.9195   -1.6964    7.4553 H   0  0  0  0  0  0  0  0  0  0  0  0
   -0.2448    0.3433    6.8256 H   0  0  0  0  0  0  0  0  0  0  0  0
   -0.1927    2.3565    5.6178 H   0  0  0  0  0  0  0  0  0  0  0  0
    1.4118    2.5863    4.9917 H   0  0  0  0  0  0  0  0  0  0  0  0
   -1.4756    0.6084    3.4559 H   0  0  0  0  0  0  0  0  0  0  0  0
   -1.8833    1.8573    2.2879 H   0  0  0  0  0  0  0  0  0  0  0  0
   -2.1783    2.1040    4.0242 H   0  0  0  0  0  0  0  0  0  0  0  0
   -0.1761    3.9244    2.3338 H   0  0  0  0  0  0  0  0  0  0  0  0
    0.4588    1.9617    1.3455 H   0  0  0  0  0  0  0  0  0  0  0  0
    1.8104    2.3249    2.3572 H   0  0  0  0  0  0  0  0  0  0  0  0
    0.2305   -0.2645    2.3365 H   0  0  0  0  0  0  0  0  0  0  0  0
    1.8062   -0.0658    1.7220 H   0  0  0  0  0  0  0  0  0  0  0  0
    3.8154    0.1405    3.2762 H   0  0  0  0  0  0  0  0  0  0  0  0
    3.5813    0.3149    5.0397 H   0  0  0  0  0  0  0  0  0  0  0  0
    3.1598    1.6323    3.9469 H   0  0  0  0  0  0  0  0  0  0  0  0
    0.8495   -1.8672    3.6847 H   0  0  0  0  0  0  0  0  0  0  0  0
    2.7462   -2.0556    2.1494 H   0  0  0  0  0  0  0  0  0  0  0  0
    3.8626   -2.0820    3.5036 H   0  0  0  0  0  0  0  0  0  0  0  0
    2.2369   -4.2902    2.4088 H   0  0  0  0  0  0  0  0  0  0  0  0
    3.7403   -4.3011    3.2482 H   0  0  0  0  0  0  0  0  0  0  0  0
   -0.0680   -3.3309    4.3698 H   0  0  0  0  0  0  0  0  0  0  0  0
   -0.0917   -4.8611    5.1975 H   0  0  0  0  0  0  0  0  0  0  0  0
    0.2170   -4.8061    3.4204 H   0  0  0  0  0  0  0  0  0  0  0  0
  1  2  1  0
  1 31  1  0
  1 32  1  0
  1 33  1  0
  2  3  1  0
  2 34  1  0
  2 35  1  0
  3  4  1  0
  3 10  1  0
  3 36  1  6
  4  5  1  0
  4 37  1  0
  4 38  1  0
  5  6  1  0
  5 39  1  0
  5 40  1  0
  6  7  1  0
  6 41  1  0
  6 42  1  0
  7  8  1  0
  7  9  2  0
  8 43  1  0
  8 44  1  0
 10 29  1  0
 10 11  1  0
 10 45  1  1
 11 12  1  0
 11 46  1  0
 11 47  1  0
 12 13  1  0
 12 48  1  0
 12 49  1  0
 13 29  1  0
 13 14  1  0
 13 50  1  1
 14 26  1  0
 14 15  1  0
 14 51  1  1
 15 16  1  0
 15 52  1  0
 15 53  1  0
 16 17  2  0
 16 54  1  0
 17 24  1  0
 17 18  1  0
 18 19  1  0
 18 55  1  0
 18 56  1  0
 19 20  1  0
 19 21  1  6
 19 22  1  0
 20 57  1  0
 20 58  1  0
 20 59  1  0
 21 60  1  0
 22 23  1  0
 22 61  1  0
 22 62  1  0
 23 24  1  0
 23 63  1  0
 23 64  1  0
 24 25  1  6
 24 26  1  0
 25 65  1  0
 25 66  1  0
 25 67  1  0
 26 27  1  0
 26 68  1  6
 27 28  1  0
 27 69  1  0
 27 70  1  0
 28 29  1  0
 28 71  1  0
 28 72  1  0
 29 30  1  6
 30 73  1  0
 30 74  1  0
 30 75  1  0
M  END
>  <i_m_ct_stereo_status>  (152) 
1

>  <s_m_source_file>  (152) 
/var/tmp/pbs.5076255.sched01/tmp3foza_40/36o9al7bb4.sdf

>  <i_m_source_file_index>  (152) 
34

>  <i_lp_mmshare_version>  (152) 
48012

>  <i_f3d_flags>  (152) 
0

>  <s_epik_input>  (152) 
W05IMl1DKD1PKVtDSDJdW0NIMl1bQ0gyXVtDQEBIXShbQ0gyXVtDSDNdKVtDQEhdKFtDSDJdW0NIMl0xKVtDQF0oW0NIM10pKFtDSDJdW0NIMl1bQ0BASF0yMylbQ0BIXTFbQ0BASF0yW0NIMl1bQ0hdPUMoW0NAQF0zNFtDSDNdKVtDSDJdW0NAQF0oW0NIM10pKFtPSF0pW0NIMl1bQ0gyXTQ=

>  <s_epik_cmdline>  (152) 
J2VwaWtfcHl0aG9uJywgJy1waHQnLCAnMi4wJywgJy1waCcsICc3LjAnLCAnLXRuJywgJzgnLCAnLW1hJywgJzIwMCcsICctaW1hZScsICc8aW5maWxlLm1hZT4nLCAnLW9tYWUnLCAnPG91dGZpbGUubWFlPic=

>  <r_lp_tautomer_probability>  (152) 
1

>  <r_epik_Ionization_Penalty>  (152) 
1.27867e-06

>  <r_epik_Ionization_Penalty_Charging>  (152) 
0

>  <r_epik_Ionization_Penalty_Neutral>  (152) 
1.27867e-06

>  <r_epik_State_Penalty>  (152) 
-0

>  <r_epik_Charging_Adjusted_Penalty>  (152) 
0

>  <i_epik_Tot_Q>  (152) 
0

>  <i_epik_Tot_abs_Q>  (152) 
0

>  <s_lp_Force_Field>  (152) 
OPLS3e

>  <r_lp_Energy>  (152) 
44.5847

>  <b_lp_Chiralities_Consistent>  (152) 
1

>  <s_lp_Variant>  (152) 
55:0-1

>  <s_i_glide_gridfile>  (152) 
pfpi4k_grid

>  <i_i_glide_lignum>  (152) 
34

>  <i_i_glide_rotatable_bonds>  (152) 
7

>  <r_i_docking_score>  (152) 
-2.56538

>  <r_i_glide_ligand_efficiency>  (152) 
-0.0855126

>  <r_i_glide_ligand_efficiency_sa>  (152) 
-0.265708

>  <r_i_glide_ligand_efficiency_ln>  (152) 
-0.582882

>  <r_i_glide_gscore>  (152) 
-2.56538

>  <r_i_glide_lipo>  (152) 
-0.000682031

>  <r_i_glide_hbond>  (152) 
-0.304

>  <r_i_glide_metal>  (152) 
-0

>  <r_i_glide_rewards>  (152) 
-0.575102

>  <r_i_glide_evdw>  (152) 
-15.9451

>  <r_i_glide_ecoul>  (152) 
-8.21961

>  <r_i_glide_erotb>  (152) 
0.457236

>  <r_i_glide_esite>  (152) 
-0.112633

>  <r_i_glide_emodel>  (152) 
-16.1981

>  <r_i_glide_energy>  (152) 
-24.1647

>  <r_i_glide_einternal>  (152) 
21.8149

>  <r_i_glide_intrahb_reward>  (152) 
-0

>  <i_i_glide_confnum>  (152) 
4

>  <i_i_glide_posenum>  (152) 
2

>  <r_i_glide_eff_state_penalty>  (152) 
0

>  <ligand_id>  (152) 
55

>  <original_smiles>  (152) 
CCC(CCCC(N)=O)C1CCC2C3CC=C4CC(C)(O)CCC4(C)C3CCC12C

>  <smiles>  (152) 
[H]OC1(C([H])([H])[H])C([H])([H])C2=C([H])C([H])([H])C3([H])C([H])(C([H])([H])C([H])([H])C4(C([H])([H])[H])C([H])(C([H])(C([H])([H])C([H])([H])[H])C([H])([H])C([H])([H])C([H])([H])C(=O)N([H])[H])C([H])([H])C([H])([H])C34[H])C2(C([H])([H])[H])C([H])([H])C1([H])[H]

$$$$
56:0:0
     RDKit          3D

 49 53  0  0  1  0  0  0  0  0999 V2000
    2.9211   -1.3060   -3.5315 C   0  0  0  0  0  0  0  0  0  0  0  0
    3.6332   -2.2960   -2.6072 C   0  0  2  0  0  0  0  0  0  0  0  0
    2.7362   -3.3106   -1.8938 C   0  0  0  0  0  0  0  0  0  0  0  0
    3.5717   -3.7677   -0.7028 C   0  0  1  0  0  0  0  0  0  0  0  0
    2.6804   -4.2267    0.3381 O   0  0  0  0  0  0  0  0  0  0  0  0
    2.5546   -5.6131    0.5444 C   0  0  0  0  0  0  0  0  0  0  0  0
    3.6674   -5.9335    1.4686 C   0  0  0  0  0  0  0  0  0  0  0  0
    4.8509   -6.0884    0.8766 C   0  0  0  0  0  0  0  0  0  0  0  0
    5.8052   -4.9168    0.8437 C   0  0  2  0  0  0  0  0  0  0  0  0
    5.8524   -4.1509    2.1645 C   0  0  0  0  0  0  0  0  0  0  0  0
    5.0027   -3.0064    2.1060 O   0  0  0  0  0  0  0  0  0  0  0  0
    5.1650   -2.0971    0.9924 C   0  0  1  0  0  0  0  0  0  0  0  0
    4.5215   -0.7784    1.4878 C   0  0  0  0  0  0  0  0  0  0  0  0
    5.1749   -0.2819    2.7834 C   0  0  0  0  0  0  0  0  0  0  0  0
    3.0056   -0.9343    1.6940 C   0  0  0  0  0  0  0  0  0  0  0  0
    6.6790   -1.9988    0.5163 C   0  0  0  0  0  0  0  0  0  0  0  0
    6.8571   -3.1397   -0.5679 C   0  0  1  0  0  0  0  0  0  0  0  0
    8.1123   -3.7680   -0.3541 O   0  0  0  0  0  0  0  0  0  0  0  0
    5.5542   -3.9212   -0.3541 C   0  0  1  0  0  0  0  0  0  0  0  0
    4.6731   -4.5818   -1.2437 O   0  0  0  0  0  0  0  0  0  0  0  0
    4.5696   -2.7063   -0.2819 C   0  0  1  0  0  0  0  0  0  0  0  0
    4.3465   -1.6343   -1.4025 C   0  0  1  0  0  0  0  0  0  0  0  0
    5.4143   -0.8595   -1.8762 O   0  0  0  0  0  0  0  0  0  0  0  0
    2.2526   -0.6714   -2.9448 H   0  0  0  0  0  0  0  0  0  0  0  0
    2.3357   -1.8237   -4.2892 H   0  0  0  0  0  0  0  0  0  0  0  0
    3.6261   -0.6570   -4.0442 H   0  0  0  0  0  0  0  0  0  0  0  0
    4.3669   -2.8605   -3.1926 H   0  0  0  0  0  0  0  0  0  0  0  0
    1.8509   -2.7958   -1.5188 H   0  0  0  0  0  0  0  0  0  0  0  0
    2.3510   -4.0848   -2.5612 H   0  0  0  0  0  0  0  0  0  0  0  0
    1.5992   -5.8765    0.9959 H   0  0  0  0  0  0  0  0  0  0  0  0
    2.6544   -6.1304   -0.3851 H   0  0  0  0  0  0  0  0  0  0  0  0
    3.5747   -5.2502    2.3019 H   0  0  0  0  0  0  0  0  0  0  0  0
    4.8948   -6.6334   -0.0470 H   0  0  0  0  0  0  0  0  0  0  0  0
    6.7596   -5.4382    0.7396 H   0  0  0  0  0  0  0  0  0  0  0  0
    5.5900   -4.7739    3.0274 H   0  0  0  0  0  0  0  0  0  0  0  0
    6.8782   -3.8754    2.3052 H   0  0  0  0  0  0  0  0  0  0  0  0
    4.6908   -0.0095    0.7415 H   0  0  0  0  0  0  0  0  0  0  0  0
    5.0390   -0.9870    3.6092 H   0  0  0  0  0  0  0  0  0  0  0  0
    4.7295    0.6535    3.1065 H   0  0  0  0  0  0  0  0  0  0  0  0
    6.2466   -0.1344    2.6638 H   0  0  0  0  0  0  0  0  0  0  0  0
    2.7843   -1.6545    2.4767 H   0  0  0  0  0  0  0  0  0  0  0  0
    2.4956   -1.2802    0.8023 H   0  0  0  0  0  0  0  0  0  0  0  0
    2.5581    0.0178    1.9725 H   0  0  0  0  0  0  0  0  0  0  0  0
    6.8958   -1.0182    0.0857 H   0  0  0  0  0  0  0  0  0  0  0  0
    7.3988   -2.0844    1.3301 H   0  0  0  0  0  0  0  0  0  0  0  0
    6.9127   -2.7433   -1.5760 H   0  0  0  0  0  0  0  0  0  0  0  0
    8.7793   -3.2734   -0.8192 H   0  0  0  0  0  0  0  0  0  0  0  0
    3.6416   -0.8867   -1.0340 H   0  0  0  0  0  0  0  0  0  0  0  0
    5.2418    0.0303   -1.6104 H   0  0  0  0  0  0  0  0  0  0  0  0
  1  2  1  0
  1 24  1  0
  1 25  1  0
  1 26  1  0
  2 22  1  0
  2  3  1  0
  2 27  1  6
  3  4  1  0
  3 28  1  0
  3 29  1  0
  4 20  1  0
  4 21  1  0
  4  5  1  1
  5  6  1  0
  6  7  1  0
  6 30  1  0
  6 31  1  0
  7  8  2  3
  7 32  1  0
  8  9  1  0
  8 33  1  0
  9 19  1  0
  9 10  1  0
  9 34  1  6
 10 11  1  0
 10 35  1  0
 10 36  1  0
 11 12  1  0
 21 12  1  1
 12 13  1  1
 12 16  1  0
 13 14  1  0
 13 15  1  0
 13 37  1  0
 14 38  1  0
 14 39  1  0
 14 40  1  0
 15 41  1  0
 15 42  1  0
 15 43  1  0
 16 17  1  0
 16 44  1  0
 16 45  1  0
 17 18  1  0
 17 19  1  0
 17 46  1  6
 18 47  1  0
 19 20  1  6
 19 21  1  0
 21 22  1  0
 22 23  1  0
 22 48  1  1
 23 49  1  0
M  END
>  <i_m_ct_stereo_status>  (153) 
1

>  <s_m_source_file>  (153) 
/var/tmp/pbs.5076255.sched01/tmp3foza_40/36o9al7bb4.sdf

>  <i_m_source_file_index>  (153) 
35

>  <i_lp_mmshare_version>  (153) 
48012

>  <i_f3d_flags>  (153) 
2

>  <s_epik_input>  (153) 
W0NIM11bQ0BIXShbQ0gyXTEpW0NASF0oW09IXSlbQ0BAXTIoW0NAXTEzNClbQ0BdNShPNClbQ0BASF0oL1tDSF09W0NIXVxbQ0gyXU8zKVtDSDJdT1tDQEBdMihbQ0hdKFtDSDNdKVtDSDNdKVtDSDJdW0NASF01W09IXQ==

>  <s_epik_cmdline>  (153) 
J2VwaWtfcHl0aG9uJywgJy1waHQnLCAnMi4wJywgJy1waCcsICc3LjAnLCAnLXRuJywgJzgnLCAnLW1hJywgJzIwMCcsICctaW1hZScsICc8aW5maWxlLm1hZT4nLCAnLW9tYWUnLCAnPG91dGZpbGUubWFlPic=

>  <r_lp_tautomer_probability>  (153) 
1

>  <r_epik_Ionization_Penalty>  (153) 
1.56575e-07

>  <r_epik_Ionization_Penalty_Charging>  (153) 
0

>  <r_epik_Ionization_Penalty_Neutral>  (153) 
1.56575e-07

>  <r_epik_State_Penalty>  (153) 
-0

>  <r_epik_Charging_Adjusted_Penalty>  (153) 
0

>  <i_epik_Tot_Q>  (153) 
0

>  <i_epik_Tot_abs_Q>  (153) 
0

>  <s_lp_Force_Field>  (153) 
OPLS3e

>  <r_lp_Energy>  (153) 
122.374

>  <b_lp_Chiralities_Consistent>  (153) 
0

>  <s_lp_Variant>  (153) 
56:0-1

>  <s_i_glide_gridfile>  (153) 
pfpi4k_grid

>  <i_i_glide_lignum>  (153) 
35

>  <i_i_glide_rotatable_bonds>  (153) 
3

>  <r_i_docking_score>  (153) 
-3.84992

>  <r_i_glide_ligand_efficiency>  (153) 
-0.167388

>  <r_i_glide_ligand_efficiency_sa>  (153) 
-0.476029

>  <r_i_glide_ligand_efficiency_ln>  (153) 
-0.930947

>  <r_i_glide_gscore>  (153) 
-3.84992

>  <r_i_glide_lipo>  (153) 
-0.984101

>  <r_i_glide_hbond>  (153) 
-0.32862

>  <r_i_glide_metal>  (153) 
-0

>  <r_i_glide_rewards>  (153) 
-1.21094

>  <r_i_glide_evdw>  (153) 
-17.4093

>  <r_i_glide_ecoul>  (153) 
-3.00081

>  <r_i_glide_erotb>  (153) 
0

>  <r_i_glide_esite>  (153) 
-0.00568106

>  <r_i_glide_emodel>  (153) 
-24.196

>  <r_i_glide_energy>  (153) 
-20.4101

>  <r_i_glide_einternal>  (153) 
1.98704

>  <r_i_glide_intrahb_reward>  (153) 
-0

>  <i_i_glide_confnum>  (153) 
2

>  <i_i_glide_posenum>  (153) 
17

>  <r_i_glide_eff_state_penalty>  (153) 
0

>  <ligand_id>  (153) 
56

>  <original_smiles>  (153) 
CC1CC23OCC=CC4COC5(C(C)C)CC(O)C4(O2)C35C1O

>  <smiles>  (153) 
[H]OC1([H])C([H])([H])C2(C([H])(C([H])([H])[H])C([H])([H])[H])OC([H])([H])C3([H])C([H])=C([H])C([H])([H])OC45OC13C42C([H])(O[H])C([H])(C([H])([H])[H])C5([H])[H]

$$$$
56:0:1
     RDKit          3D

 49 53  0  0  1  0  0  0  0  0999 V2000
    3.1519   -1.3591   -3.4777 C   0  0  0  0  0  0  0  0  0  0  0  0
    3.7560   -2.3034   -2.4221 C   0  0  2  0  0  0  0  0  0  0  0  0
    2.7519   -3.2772   -1.8291 C   0  0  0  0  0  0  0  0  0  0  0  0
    3.4059   -3.7349   -0.5366 C   0  0  1  0  0  0  0  0  0  0  0  0
    2.3705   -4.2436    0.3205 O   0  0  0  0  0  0  0  0  0  0  0  0
    2.2828   -5.6353    0.5631 C   0  0  0  0  0  0  0  0  0  0  0  0
    3.2218   -5.8419    1.6974 C   0  0  0  0  0  0  0  0  0  0  0  0
    4.4977   -5.9627    1.3358 C   0  0  0  0  0  0  0  0  0  0  0  0
    5.4144   -4.7624    1.4364 C   0  0  2  0  0  0  0  0  0  0  0  0
    5.2301   -3.9540    2.7265 C   0  0  0  0  0  0  0  0  0  0  0  0
    4.3606   -2.8505    2.4874 O   0  0  0  0  0  0  0  0  0  0  0  0
    4.6708   -1.9787    1.3748 C   0  0  1  0  0  0  0  0  0  0  0  0
    3.9189   -0.6639    1.7230 C   0  0  0  0  0  0  0  0  0  0  0  0
    4.4340   -0.0351    3.0258 C   0  0  0  0  0  0  0  0  0  0  0  0
    2.4009   -0.8936    1.8024 C   0  0  0  0  0  0  0  0  0  0  0  0
    6.2339   -1.8360    1.1455 C   0  0  0  0  0  0  0  0  0  0  0  0
    6.6334   -2.9942    0.1451 C   0  0  1  0  0  0  0  0  0  0  0  0
    7.8495   -3.6263    0.5070 O   0  0  0  0  0  0  0  0  0  0  0  0
    5.3451   -3.8203    0.1662 C   0  0  1  0  0  0  0  0  0  0  0  0
    4.6159   -4.5275   -0.8653 O   0  0  0  0  0  0  0  0  0  0  0  0
    4.3265   -2.6448    0.0290 C   0  0  1  0  0  0  0  0  0  0  0  0
    4.2643   -1.5947   -1.1582 C   0  0  1  0  0  0  0  0  0  0  0  0
    5.3992   -0.8191   -1.4927 O   0  0  0  0  0  0  0  0  0  0  0  0
    2.3810   -0.7275   -3.0347 H   0  0  0  0  0  0  0  0  0  0  0  0
    2.7056   -1.9218   -4.2993 H   0  0  0  0  0  0  0  0  0  0  0  0
    3.9120   -0.7003   -3.9021 H   0  0  0  0  0  0  0  0  0  0  0  0
    4.5648   -2.8752   -2.8832 H   0  0  0  0  0  0  0  0  0  0  0  0
    1.8430   -2.7248   -1.5841 H   0  0  0  0  0  0  0  0  0  0  0  0
    2.4604   -4.0660   -2.5154 H   0  0  0  0  0  0  0  0  0  0  0  0
    1.2758   -5.8971    0.8834 H   0  0  0  0  0  0  0  0  0  0  0  0
    2.5334   -6.2323   -0.3136 H   0  0  0  0  0  0  0  0  0  0  0  0
    2.9624   -5.1300    2.4676 H   0  0  0  0  0  0  0  0  0  0  0  0
    4.7127   -6.5336    0.4471 H   0  0  0  0  0  0  0  0  0  0  0  0
    6.3761   -5.2674    1.4929 H   0  0  0  0  0  0  0  0  0  0  0  0
    4.8407   -4.5655    3.5409 H   0  0  0  0  0  0  0  0  0  0  0  0
    6.1950   -3.6108    3.0860 H   0  0  0  0  0  0  0  0  0  0  0  0
    4.1110    0.0757    0.9474 H   0  0  0  0  0  0  0  0  0  0  0  0
    4.2560   -0.6811    3.8858 H   0  0  0  0  0  0  0  0  0  0  0  0
    3.9284    0.9102    3.2168 H   0  0  0  0  0  0  0  0  0  0  0  0
    5.5042    0.1634    2.9777 H   0  0  0  0  0  0  0  0  0  0  0  0
    2.1364   -1.5699    2.6152 H   0  0  0  0  0  0  0  0  0  0  0  0
    2.0253   -1.3398    0.8851 H   0  0  0  0  0  0  0  0  0  0  0  0
    1.8702    0.0427    1.9629 H   0  0  0  0  0  0  0  0  0  0  0  0
    6.4853   -0.8647    0.7194 H   0  0  0  0  0  0  0  0  0  0  0  0
    6.7774   -1.8631    2.0812 H   0  0  0  0  0  0  0  0  0  0  0  0
    6.8191   -2.6203   -0.8588 H   0  0  0  0  0  0  0  0  0  0  0  0
    7.7643   -3.9829    1.3795 H   0  0  0  0  0  0  0  0  0  0  0  0
    3.4976   -0.8602   -0.9162 H   0  0  0  0  0  0  0  0  0  0  0  0
    5.2056    0.0832   -1.2717 H   0  0  0  0  0  0  0  0  0  0  0  0
  1  2  1  0
  1 24  1  0
  1 25  1  0
  1 26  1  0
  2 22  1  0
  2  3  1  0
  2 27  1  6
  3  4  1  0
  3 28  1  0
  3 29  1  0
  4 20  1  0
  4 21  1  0
  4  5  1  1
  5  6  1  0
  6  7  1  0
  6 30  1  0
  6 31  1  0
  7  8  2  3
  7 32  1  0
  8  9  1  0
  8 33  1  0
  9 19  1  0
  9 10  1  0
  9 34  1  1
 10 11  1  0
 10 35  1  0
 10 36  1  0
 11 12  1  0
 21 12  1  1
 12 13  1  1
 12 16  1  0
 13 14  1  0
 13 15  1  0
 13 37  1  0
 14 38  1  0
 14 39  1  0
 14 40  1  0
 15 41  1  0
 15 42  1  0
 15 43  1  0
 16 17  1  0
 16 44  1  0
 16 45  1  0
 17 18  1  0
 17 19  1  0
 17 46  1  6
 18 47  1  0
 19 20  1  6
 19 21  1  0
 21 22  1  0
 22 23  1  0
 22 48  1  1
 23 49  1  0
M  END
>  <i_m_ct_stereo_status>  (154) 
1

>  <s_m_source_file>  (154) 
/var/tmp/pbs.5076255.sched01/tmp3foza_40/36o9al7bb4.sdf

>  <i_m_source_file_index>  (154) 
35

>  <i_lp_mmshare_version>  (154) 
48012

>  <i_f3d_flags>  (154) 
2

>  <s_epik_input>  (154) 
W0NIM11bQ0BIXShbQ0gyXTEpW0NASF0oW09IXSlbQ0BAXTIoW0NAXTEzNClbQ0BdNShPNClbQ0BASF0oL1tDSF09W0NIXVxbQ0gyXU8zKVtDSDJdT1tDQEBdMihbQ0hdKFtDSDNdKVtDSDNdKVtDSDJdW0NASF01W09IXQ==

>  <s_epik_cmdline>  (154) 
J2VwaWtfcHl0aG9uJywgJy1waHQnLCAnMi4wJywgJy1waCcsICc3LjAnLCAnLXRuJywgJzgnLCAnLW1hJywgJzIwMCcsICctaW1hZScsICc8aW5maWxlLm1hZT4nLCAnLW9tYWUnLCAnPG91dGZpbGUubWFlPic=

>  <r_lp_tautomer_probability>  (154) 
1

>  <r_epik_Ionization_Penalty>  (154) 
1.56575e-07

>  <r_epik_Ionization_Penalty_Charging>  (154) 
0

>  <r_epik_Ionization_Penalty_Neutral>  (154) 
1.56575e-07

>  <r_epik_State_Penalty>  (154) 
-0

>  <r_epik_Charging_Adjusted_Penalty>  (154) 
0

>  <i_epik_Tot_Q>  (154) 
0

>  <i_epik_Tot_abs_Q>  (154) 
0

>  <s_lp_Force_Field>  (154) 
OPLS3e

>  <r_lp_Energy>  (154) 
122.374

>  <b_lp_Chiralities_Consistent>  (154) 
0

>  <s_lp_Variant>  (154) 
56:0-1

>  <s_i_glide_gridfile>  (154) 
pfpi4k_grid

>  <i_i_glide_lignum>  (154) 
35

>  <i_i_glide_rotatable_bonds>  (154) 
3

>  <r_i_docking_score>  (154) 
-3.71645

>  <r_i_glide_ligand_efficiency>  (154) 
-0.161585

>  <r_i_glide_ligand_efficiency_sa>  (154) 
-0.459526

>  <r_i_glide_ligand_efficiency_ln>  (154) 
-0.898671

>  <r_i_glide_gscore>  (154) 
-3.71645

>  <r_i_glide_lipo>  (154) 
-0.798796

>  <r_i_glide_hbond>  (154) 
-0.328004

>  <r_i_glide_metal>  (154) 
-0

>  <r_i_glide_rewards>  (154) 
-1.21094

>  <r_i_glide_evdw>  (154) 
-17.3832

>  <r_i_glide_ecoul>  (154) 
-3.3735

>  <r_i_glide_erotb>  (154) 
0

>  <r_i_glide_esite>  (154) 
-0.00352701

>  <r_i_glide_emodel>  (154) 
-24.7758

>  <r_i_glide_energy>  (154) 
-20.7567

>  <r_i_glide_einternal>  (154) 
1.4745

>  <r_i_glide_intrahb_reward>  (154) 
-0

>  <i_i_glide_confnum>  (154) 
2

>  <i_i_glide_posenum>  (154) 
38

>  <r_i_glide_eff_state_penalty>  (154) 
0

>  <ligand_id>  (154) 
56

>  <original_smiles>  (154) 
CC1CC23OCC=CC4COC5(C(C)C)CC(O)C4(O2)C35C1O

>  <smiles>  (154) 
[H]OC1([H])C([H])([H])C2(C([H])(C([H])([H])[H])C([H])([H])[H])OC([H])([H])C3([H])C([H])=C([H])C([H])([H])OC45OC13C42C([H])(O[H])C([H])(C([H])([H])[H])C5([H])[H]

$$$$
56:0:2
     RDKit          3D

 49 53  0  0  1  0  0  0  0  0999 V2000
    2.5706   -2.8377   -2.8668 C   0  0  0  0  0  0  0  0  0  0  0  0
    3.2352   -3.4658   -1.6191 C   0  0  2  0  0  0  0  0  0  0  0  0
    2.2757   -4.2234   -0.7090 C   0  0  0  0  0  0  0  0  0  0  0  0
    2.9961   -4.3289    0.6268 C   0  0  1  0  0  0  0  0  0  0  0  0
    2.0257   -4.5496    1.6706 O   0  0  0  0  0  0  0  0  0  0  0  0
    1.8826   -5.8204    2.2634 C   0  0  0  0  0  0  0  0  0  0  0  0
    2.8910   -5.7542    3.3470 C   0  0  0  0  0  0  0  0  0  0  0  0
    4.1322   -6.0230    2.9409 C   0  0  0  0  0  0  0  0  0  0  0  0
    5.0733   -4.8808    2.6434 C   0  0  2  0  0  0  0  0  0  0  0  0
    4.9941   -3.7456    3.6753 C   0  0  0  0  0  0  0  0  0  0  0  0
    4.1424   -2.7160    3.1840 O   0  0  0  0  0  0  0  0  0  0  0  0
    4.4231   -2.1781    1.8711 C   0  0  1  0  0  0  0  0  0  0  0  0
    3.7402   -0.7897    1.8923 C   0  0  0  0  0  0  0  0  0  0  0  0
    4.3037    0.1036    3.0036 C   0  0  0  0  0  0  0  0  0  0  0  0
    2.2152   -0.9123    2.0441 C   0  0  0  0  0  0  0  0  0  0  0  0
    5.9729   -2.2037    1.5317 C   0  0  0  0  0  0  0  0  0  0  0  0
    6.2311   -3.6150    0.8511 C   0  0  1  0  0  0  0  0  0  0  0  0
    7.4567   -4.1766    1.2712 O   0  0  0  0  0  0  0  0  0  0  0  0
    4.9215   -4.3189    1.1736 C   0  0  1  0  0  0  0  0  0  0  0  0
    4.1331   -5.2411    0.4283 O   0  0  0  0  0  0  0  0  0  0  0  0
    3.9515   -3.1520    0.7896 C   0  0  1  0  0  0  0  0  0  0  0  0
    3.8667   -2.4559   -0.6337 C   0  0  1  0  0  0  0  0  0  0  0  0
    5.0150   -1.8951   -1.2556 O   0  0  0  0  0  0  0  0  0  0  0  0
    1.8183   -2.1016   -2.5930 H   0  0  0  0  0  0  0  0  0  0  0  0
    2.0721   -3.5960   -3.4691 H   0  0  0  0  0  0  0  0  0  0  0  0
    3.3101   -2.3399   -3.4967 H   0  0  0  0  0  0  0  0  0  0  0  0
    3.9946   -4.1773   -1.9510 H   0  0  0  0  0  0  0  0  0  0  0  0
    1.4313   -3.5388   -0.6622 H   0  0  0  0  0  0  0  0  0  0  0  0
    1.8378   -5.1368   -1.1027 H   0  0  0  0  0  0  0  0  0  0  0  0
    0.8870   -5.9128    2.6980 H   0  0  0  0  0  0  0  0  0  0  0  0
    2.0355   -6.6469    1.5710 H   0  0  0  0  0  0  0  0  0  0  0  0
    2.7016   -4.8505    3.9059 H   0  0  0  0  0  0  0  0  0  0  0  0
    4.2597   -6.8258    2.2381 H   0  0  0  0  0  0  0  0  0  0  0  0
    6.0261   -5.3910    2.7888 H   0  0  0  0  0  0  0  0  0  0  0  0
    4.6525   -4.0998    4.6513 H   0  0  0  0  0  0  0  0  0  0  0  0
    5.9677   -3.3305    3.8995 H   0  0  0  0  0  0  0  0  0  0  0  0
    3.9569   -0.2869    0.9523 H   0  0  0  0  0  0  0  0  0  0  0  0
    4.1073   -0.3020    3.9959 H   0  0  0  0  0  0  0  0  0  0  0  0
    3.8343    1.0852    2.9645 H   0  0  0  0  0  0  0  0  0  0  0  0
    5.3818    0.2288    2.9116 H   0  0  0  0  0  0  0  0  0  0  0  0
    1.9379   -1.3538    3.0003 H   0  0  0  0  0  0  0  0  0  0  0  0
    1.7746   -1.5433    1.2797 H   0  0  0  0  0  0  0  0  0  0  0  0
    1.7413    0.0633    1.9705 H   0  0  0  0  0  0  0  0  0  0  0  0
    6.2247   -1.3972    0.8433 H   0  0  0  0  0  0  0  0  0  0  0  0
    6.5996   -1.9978    2.4013 H   0  0  0  0  0  0  0  0  0  0  0  0
    6.3845   -3.5298   -0.2202 H   0  0  0  0  0  0  0  0  0  0  0  0
    7.5320   -5.0428    0.9204 H   0  0  0  0  0  0  0  0  0  0  0  0
    3.1604   -1.6351   -0.5722 H   0  0  0  0  0  0  0  0  0  0  0  0
    5.5659   -2.6080   -1.5197 H   0  0  0  0  0  0  0  0  0  0  0  0
  1  2  1  0
  1 24  1  0
  1 25  1  0
  1 26  1  0
  2 22  1  0
  2  3  1  0
  2 27  1  6
  3  4  1  0
  3 28  1  0
  3 29  1  0
  4 20  1  0
  4 21  1  0
  4  5  1  1
  5  6  1  0
  6  7  1  0
  6 30  1  0
  6 31  1  0
  7  8  2  3
  7 32  1  0
  8  9  1  0
  8 33  1  0
  9 19  1  0
  9 10  1  0
  9 34  1  6
 10 11  1  0
 10 35  1  0
 10 36  1  0
 11 12  1  0
 21 12  1  1
 12 13  1  6
 12 16  1  0
 13 14  1  0
 13 15  1  0
 13 37  1  0
 14 38  1  0
 14 39  1  0
 14 40  1  0
 15 41  1  0
 15 42  1  0
 15 43  1  0
 16 17  1  0
 16 44  1  0
 16 45  1  0
 17 18  1  0
 17 19  1  0
 17 46  1  6
 18 47  1  0
 19 20  1  6
 19 21  1  0
 21 22  1  0
 22 23  1  0
 22 48  1  1
 23 49  1  0
M  END
>  <i_m_ct_stereo_status>  (155) 
1

>  <s_m_source_file>  (155) 
/var/tmp/pbs.5076255.sched01/tmp3foza_40/36o9al7bb4.sdf

>  <i_m_source_file_index>  (155) 
35

>  <i_lp_mmshare_version>  (155) 
48012

>  <i_f3d_flags>  (155) 
2

>  <s_epik_input>  (155) 
W0NIM11bQ0BIXShbQ0gyXTEpW0NASF0oW09IXSlbQ0BAXTIoW0NAXTEzNClbQ0BdNShPNClbQ0BASF0oL1tDSF09W0NIXVxbQ0gyXU8zKVtDSDJdT1tDQEBdMihbQ0hdKFtDSDNdKVtDSDNdKVtDSDJdW0NASF01W09IXQ==

>  <s_epik_cmdline>  (155) 
J2VwaWtfcHl0aG9uJywgJy1waHQnLCAnMi4wJywgJy1waCcsICc3LjAnLCAnLXRuJywgJzgnLCAnLW1hJywgJzIwMCcsICctaW1hZScsICc8aW5maWxlLm1hZT4nLCAnLW9tYWUnLCAnPG91dGZpbGUubWFlPic=

>  <r_lp_tautomer_probability>  (155) 
1

>  <r_epik_Ionization_Penalty>  (155) 
1.56575e-07

>  <r_epik_Ionization_Penalty_Charging>  (155) 
0

>  <r_epik_Ionization_Penalty_Neutral>  (155) 
1.56575e-07

>  <r_epik_State_Penalty>  (155) 
-0

>  <r_epik_Charging_Adjusted_Penalty>  (155) 
0

>  <i_epik_Tot_Q>  (155) 
0

>  <i_epik_Tot_abs_Q>  (155) 
0

>  <s_lp_Force_Field>  (155) 
OPLS3e

>  <r_lp_Energy>  (155) 
122.374

>  <b_lp_Chiralities_Consistent>  (155) 
0

>  <s_lp_Variant>  (155) 
56:0-1

>  <s_i_glide_gridfile>  (155) 
pfpi4k_grid

>  <i_i_glide_lignum>  (155) 
35

>  <i_i_glide_rotatable_bonds>  (155) 
3

>  <r_i_docking_score>  (155) 
-2.44675

>  <r_i_glide_ligand_efficiency>  (155) 
-0.106381

>  <r_i_glide_ligand_efficiency_sa>  (155) 
-0.302532

>  <r_i_glide_ligand_efficiency_ln>  (155) 
-0.591647

>  <r_i_glide_gscore>  (155) 
-2.44675

>  <r_i_glide_lipo>  (155) 
-0.416547

>  <r_i_glide_hbond>  (155) 
-0.00722214

>  <r_i_glide_metal>  (155) 
-0

>  <r_i_glide_rewards>  (155) 
-1.21094

>  <r_i_glide_evdw>  (155) 
-14.7289

>  <r_i_glide_ecoul>  (155) 
-0.406579

>  <r_i_glide_erotb>  (155) 
0

>  <r_i_glide_esite>  (155) 
-0.0146151

>  <r_i_glide_emodel>  (155) 
-17.6367

>  <r_i_glide_energy>  (155) 
-15.1355

>  <r_i_glide_einternal>  (155) 
0.377576

>  <r_i_glide_intrahb_reward>  (155) 
-0

>  <i_i_glide_confnum>  (155) 
1

>  <i_i_glide_posenum>  (155) 
20

>  <r_i_glide_eff_state_penalty>  (155) 
0

>  <ligand_id>  (155) 
56

>  <original_smiles>  (155) 
CC1CC23OCC=CC4COC5(C(C)C)CC(O)C4(O2)C35C1O

>  <smiles>  (155) 
[H]OC1([H])C([H])([H])C2(C([H])(C([H])([H])[H])C([H])([H])[H])OC([H])([H])C3([H])C([H])=C([H])C([H])([H])OC45OC13C42C([H])(O[H])C([H])(C([H])([H])[H])C5([H])[H]

$$$$
57:0:0
     RDKit          3D

 17 19  0  0  1  0  0  0  0  0999 V2000
   -1.1478    2.4714    3.1905 C   0  0  0  0  0  0  0  0  0  0  0  0
   -0.1561    1.6956    2.5269 C   0  0  0  0  0  0  0  0  0  0  0  0
    0.2626    0.4480    2.8907 N   0  0  0  0  0  0  0  0  0  0  0  0
   -0.3446   -0.0479    3.9664 C   0  0  0  0  0  0  0  0  0  0  0  0
   -1.3729    0.6811    4.6970 C   0  0  0  0  0  0  0  0  0  0  0  0
   -1.8014    1.9627    4.3324 C   0  0  0  0  0  0  0  0  0  0  0  0
   -1.8249   -0.0934    5.7668 O   0  0  0  0  0  0  0  0  0  0  0  0
   -1.0529   -1.2215    5.6222 C   0  0  0  0  0  0  0  0  0  0  0  0
   -0.9849   -2.3276    6.3044 N   0  0  0  0  0  0  0  0  0  0  0  0
    0.0211   -3.0319    5.5789 C   0  0  0  0  0  0  0  0  0  0  0  0
    0.5244   -2.3322    4.4881 C   0  0  0  0  0  0  0  0  0  0  0  0
   -0.2173   -1.1863    4.5924 N   0  0  0  0  0  0  0  0  0  0  0  0
   -1.3967    3.4490    2.8071 H   0  0  0  0  0  0  0  0  0  0  0  0
    0.3301    2.1131    1.6591 H   0  0  0  0  0  0  0  0  0  0  0  0
   -2.5710    2.5043    4.8656 H   0  0  0  0  0  0  0  0  0  0  0  0
    0.3042   -4.0193    5.9153 H   0  0  0  0  0  0  0  0  0  0  0  0
    1.2673   -2.5185    3.7234 H   0  0  0  0  0  0  0  0  0  0  0  0
  1  6  2  0
  1  2  1  0
  1 13  1  0
  2  3  2  0
  2 14  1  0
  3  4  1  0
  4 12  1  0
  4  5  2  0
  5  6  1  0
  5  7  1  0
  6 15  1  0
  7  8  1  0
  8 12  1  0
  8  9  2  0
  9 10  1  0
 10 11  2  0
 10 16  1  0
 11 12  1  0
 11 17  1  0
M  END
>  <i_m_ct_stereo_status>  (156) 
1

>  <s_m_source_file>  (156) 
/var/tmp/pbs.5076255.sched01/tmp3foza_40/36o9al7bb4.sdf

>  <i_m_source_file_index>  (156) 
36

>  <i_lp_mmshare_version>  (156) 
48012

>  <i_f3d_flags>  (156) 
0

>  <s_epik_input>  (156) 
bjFbY0hdW2NIXVtjSF1jKGMxMilvYzNuMltjSF1bY0hdbjM=

>  <s_epik_cmdline>  (156) 
J2VwaWtfcHl0aG9uJywgJy1waHQnLCAnMi4wJywgJy1waCcsICc3LjAnLCAnLXRuJywgJzgnLCAnLW1hJywgJzIwMCcsICctaW1hZScsICc8aW5maWxlLm1hZT4nLCAnLW9tYWUnLCAnPG91dGZpbGUubWFlPic=

>  <r_epik_Ionization_Penalty>  (156) 
0.000604585

>  <r_epik_Ionization_Penalty_Charging>  (156) 
0.000604584

>  <r_epik_Ionization_Penalty_Neutral>  (156) 
1.01998e-09

>  <r_epik_State_Penalty>  (156) 
0.000380979

>  <r_epik_Charging_Adjusted_Penalty>  (156) 
0.000985563

>  <i_epik_Tot_Q>  (156) 
0

>  <i_epik_Tot_abs_Q>  (156) 
0

>  <s_lp_Force_Field>  (156) 
OPLS3e

>  <r_lp_Energy>  (156) 
23.5201

>  <b_lp_Chiralities_Consistent>  (156) 
1

>  <s_lp_Variant>  (156) 
57:0-1

>  <s_i_glide_gridfile>  (156) 
pfpi4k_grid

>  <i_i_glide_lignum>  (156) 
36

>  <i_i_glide_rotatable_bonds>  (156) 
0

>  <r_i_docking_score>  (156) 
-3.70578

>  <r_i_glide_ligand_efficiency>  (156) 
-0.308815

>  <r_i_glide_ligand_efficiency_sa>  (156) 
-0.70701

>  <r_i_glide_ligand_efficiency_ln>  (156) 
-1.06338

>  <r_i_glide_gscore>  (156) 
-3.70578

>  <r_i_glide_lipo>  (156) 
-0.0435704

>  <r_i_glide_hbond>  (156) 
-0.0716982

>  <r_i_glide_metal>  (156) 
-0

>  <r_i_glide_rewards>  (156) 
-2.25

>  <r_i_glide_evdw>  (156) 
-14.3547

>  <r_i_glide_ecoul>  (156) 
-3.58067

>  <r_i_glide_erotb>  (156) 
0

>  <r_i_glide_esite>  (156) 
-0.0856727

>  <r_i_glide_emodel>  (156) 
-22.8184

>  <r_i_glide_energy>  (156) 
-17.9354

>  <r_i_glide_einternal>  (156) 
0

>  <r_i_glide_intrahb_reward>  (156) 
-0

>  <i_i_glide_confnum>  (156) 
2

>  <i_i_glide_posenum>  (156) 
40

>  <r_i_glide_eff_state_penalty>  (156) 
0

>  <ligand_id>  (156) 
57

>  <original_smiles>  (156) 
c1cnc2c(c1)oc1nccn12

>  <smiles>  (156) 
[H]c1nc2c(oc3nc([H])c([H])n32)c([H])c1[H]

$$$$
57:0:1
     RDKit          3D

 17 19  0  0  1  0  0  0  0  0999 V2000
    3.2010   -1.8934   -3.6783 C   0  0  0  0  0  0  0  0  0  0  0  0
    4.1100   -1.0644   -2.9669 C   0  0  0  0  0  0  0  0  0  0  0  0
    4.4476   -1.1769   -1.6519 N   0  0  0  0  0  0  0  0  0  0  0  0
    3.8048   -2.1506   -1.0053 C   0  0  0  0  0  0  0  0  0  0  0  0
    2.8517   -3.0381   -1.6598 C   0  0  0  0  0  0  0  0  0  0  0  0
    2.5266   -2.9416   -3.0162 C   0  0  0  0  0  0  0  0  0  0  0  0
    2.3350   -3.9376   -0.7290 O   0  0  0  0  0  0  0  0  0  0  0  0
    3.0153   -3.5712    0.4033 C   0  0  0  0  0  0  0  0  0  0  0  0
    3.0003   -4.0285    1.6206 N   0  0  0  0  0  0  0  0  0  0  0  0
    3.9422   -3.1577    2.2451 C   0  0  0  0  0  0  0  0  0  0  0  0
    4.4904   -2.2059    1.3947 C   0  0  0  0  0  0  0  0  0  0  0  0
    3.8450   -2.5465    0.2370 N   0  0  0  0  0  0  0  0  0  0  0  0
    3.0060   -1.7120   -4.7205 H   0  0  0  0  0  0  0  0  0  0  0  0
    4.6051   -0.2745   -3.5063 H   0  0  0  0  0  0  0  0  0  0  0  0
    1.8193   -3.5943   -3.5076 H   0  0  0  0  0  0  0  0  0  0  0  0
    4.1516   -3.2943    3.2971 H   0  0  0  0  0  0  0  0  0  0  0  0
    5.2045   -1.3974    1.4865 H   0  0  0  0  0  0  0  0  0  0  0  0
  1  6  2  0
  1  2  1  0
  1 13  1  0
  2  3  2  0
  2 14  1  0
  3  4  1  0
  4 12  1  0
  4  5  2  0
  5  6  1  0
  5  7  1  0
  6 15  1  0
  7  8  1  0
  8 12  1  0
  8  9  2  0
  9 10  1  0
 10 11  2  0
 10 16  1  0
 11 12  1  0
 11 17  1  0
M  END
>  <i_m_ct_stereo_status>  (157) 
1

>  <s_m_source_file>  (157) 
/var/tmp/pbs.5076255.sched01/tmp3foza_40/36o9al7bb4.sdf

>  <i_m_source_file_index>  (157) 
36

>  <i_lp_mmshare_version>  (157) 
48012

>  <i_f3d_flags>  (157) 
0

>  <s_epik_input>  (157) 
bjFbY0hdW2NIXVtjSF1jKGMxMilvYzNuMltjSF1bY0hdbjM=

>  <s_epik_cmdline>  (157) 
J2VwaWtfcHl0aG9uJywgJy1waHQnLCAnMi4wJywgJy1waCcsICc3LjAnLCAnLXRuJywgJzgnLCAnLW1hJywgJzIwMCcsICctaW1hZScsICc8aW5maWxlLm1hZT4nLCAnLW9tYWUnLCAnPG91dGZpbGUubWFlPic=

>  <r_epik_Ionization_Penalty>  (157) 
0.000604585

>  <r_epik_Ionization_Penalty_Charging>  (157) 
0.000604584

>  <r_epik_Ionization_Penalty_Neutral>  (157) 
1.01998e-09

>  <r_epik_State_Penalty>  (157) 
0.000380979

>  <r_epik_Charging_Adjusted_Penalty>  (157) 
0.000985563

>  <i_epik_Tot_Q>  (157) 
0

>  <i_epik_Tot_abs_Q>  (157) 
0

>  <s_lp_Force_Field>  (157) 
OPLS3e

>  <r_lp_Energy>  (157) 
23.5201

>  <b_lp_Chiralities_Consistent>  (157) 
1

>  <s_lp_Variant>  (157) 
57:0-1

>  <s_i_glide_gridfile>  (157) 
pfpi4k_grid

>  <i_i_glide_lignum>  (157) 
36

>  <i_i_glide_rotatable_bonds>  (157) 
0

>  <r_i_docking_score>  (157) 
-3.70311

>  <r_i_glide_ligand_efficiency>  (157) 
-0.308592

>  <r_i_glide_ligand_efficiency_sa>  (157) 
-0.7065

>  <r_i_glide_ligand_efficiency_ln>  (157) 
-1.06261

>  <r_i_glide_gscore>  (157) 
-3.70311

>  <r_i_glide_lipo>  (157) 
-0.405822

>  <r_i_glide_hbond>  (157) 
0

>  <r_i_glide_metal>  (157) 
-0

>  <r_i_glide_rewards>  (157) 
-2.25

>  <r_i_glide_evdw>  (157) 
-17.562

>  <r_i_glide_ecoul>  (157) 
-0.593627

>  <r_i_glide_erotb>  (157) 
0

>  <r_i_glide_esite>  (157) 
-0.0801396

>  <r_i_glide_emodel>  (157) 
-23.0308

>  <r_i_glide_energy>  (157) 
-18.1556

>  <r_i_glide_einternal>  (157) 
0

>  <r_i_glide_intrahb_reward>  (157) 
-0

>  <i_i_glide_confnum>  (157) 
1

>  <i_i_glide_posenum>  (157) 
3

>  <r_i_glide_eff_state_penalty>  (157) 
0

>  <ligand_id>  (157) 
57

>  <original_smiles>  (157) 
c1cnc2c(c1)oc1nccn12

>  <smiles>  (157) 
[H]c1nc2c(oc3nc([H])c([H])n32)c([H])c1[H]

$$$$
57:0:2
     RDKit          3D

 17 19  0  0  1  0  0  0  0  0999 V2000
   -0.0532    1.2836    2.3415 C   0  0  0  0  0  0  0  0  0  0  0  0
    1.0102    0.3570    2.1566 C   0  0  0  0  0  0  0  0  0  0  0  0
    1.2345   -0.7659    2.9010 N   0  0  0  0  0  0  0  0  0  0  0  0
    0.3475   -0.9721    3.8742 C   0  0  0  0  0  0  0  0  0  0  0  0
   -0.7703   -0.0702    4.1228 C   0  0  0  0  0  0  0  0  0  0  0  0
   -1.0014    1.0852    3.3668 C   0  0  0  0  0  0  0  0  0  0  0  0
   -1.5318   -0.5530    5.1887 O   0  0  0  0  0  0  0  0  0  0  0  0
   -0.8362   -1.6903    5.5208 C   0  0  0  0  0  0  0  0  0  0  0  0
   -1.0175   -2.5946    6.4396 N   0  0  0  0  0  0  0  0  0  0  0  0
    0.0796   -3.4685    6.1827 C   0  0  0  0  0  0  0  0  0  0  0  0
    0.8841   -3.0666    5.1241 C   0  0  0  0  0  0  0  0  0  0  0  0
    0.2286   -1.9213    4.7621 N   0  0  0  0  0  0  0  0  0  0  0  0
   -0.1412    2.1372    1.6853 H   0  0  0  0  0  0  0  0  0  0  0  0
    1.7170    0.5373    1.3618 H   0  0  0  0  0  0  0  0  0  0  0  0
   -1.8365    1.7501    3.5414 H   0  0  0  0  0  0  0  0  0  0  0  0
    0.2005   -4.3434    6.8068 H   0  0  0  0  0  0  0  0  0  0  0  0
    1.7760   -3.4455    4.6435 H   0  0  0  0  0  0  0  0  0  0  0  0
  1  6  2  0
  1  2  1  0
  1 13  1  0
  2  3  2  0
  2 14  1  0
  3  4  1  0
  4 12  1  0
  4  5  2  0
  5  6  1  0
  5  7  1  0
  6 15  1  0
  7  8  1  0
  8 12  1  0
  8  9  2  0
  9 10  1  0
 10 11  2  0
 10 16  1  0
 11 12  1  0
 11 17  1  0
M  END
>  <i_m_ct_stereo_status>  (158) 
1

>  <s_m_source_file>  (158) 
/var/tmp/pbs.5076255.sched01/tmp3foza_40/36o9al7bb4.sdf

>  <i_m_source_file_index>  (158) 
36

>  <i_lp_mmshare_version>  (158) 
48012

>  <i_f3d_flags>  (158) 
0

>  <s_epik_input>  (158) 
bjFbY0hdW2NIXVtjSF1jKGMxMilvYzNuMltjSF1bY0hdbjM=

>  <s_epik_cmdline>  (158) 
J2VwaWtfcHl0aG9uJywgJy1waHQnLCAnMi4wJywgJy1waCcsICc3LjAnLCAnLXRuJywgJzgnLCAnLW1hJywgJzIwMCcsICctaW1hZScsICc8aW5maWxlLm1hZT4nLCAnLW9tYWUnLCAnPG91dGZpbGUubWFlPic=

>  <r_epik_Ionization_Penalty>  (158) 
0.000604585

>  <r_epik_Ionization_Penalty_Charging>  (158) 
0.000604584

>  <r_epik_Ionization_Penalty_Neutral>  (158) 
1.01998e-09

>  <r_epik_State_Penalty>  (158) 
0.000380979

>  <r_epik_Charging_Adjusted_Penalty>  (158) 
0.000985563

>  <i_epik_Tot_Q>  (158) 
0

>  <i_epik_Tot_abs_Q>  (158) 
0

>  <s_lp_Force_Field>  (158) 
OPLS3e

>  <r_lp_Energy>  (158) 
23.5201

>  <b_lp_Chiralities_Consistent>  (158) 
1

>  <s_lp_Variant>  (158) 
57:0-1

>  <s_i_glide_gridfile>  (158) 
pfpi4k_grid

>  <i_i_glide_lignum>  (158) 
36

>  <i_i_glide_rotatable_bonds>  (158) 
0

>  <r_i_docking_score>  (158) 
-3.53741

>  <r_i_glide_ligand_efficiency>  (158) 
-0.294784

>  <r_i_glide_ligand_efficiency_sa>  (158) 
-0.674887

>  <r_i_glide_ligand_efficiency_ln>  (158) 
-1.01507

>  <r_i_glide_gscore>  (158) 
-3.53741

>  <r_i_glide_lipo>  (158) 
-0.00153466

>  <r_i_glide_hbond>  (158) 
0

>  <r_i_glide_metal>  (158) 
-0

>  <r_i_glide_rewards>  (158) 
-2.25786

>  <r_i_glide_evdw>  (158) 
-13.728

>  <r_i_glide_ecoul>  (158) 
-3.62873

>  <r_i_glide_erotb>  (158) 
0

>  <r_i_glide_esite>  (158) 
-0.0473081

>  <r_i_glide_emodel>  (158) 
-22.0168

>  <r_i_glide_energy>  (158) 
-17.3567

>  <r_i_glide_einternal>  (158) 
0

>  <r_i_glide_intrahb_reward>  (158) 
-0

>  <i_i_glide_confnum>  (158) 
1

>  <i_i_glide_posenum>  (158) 
13

>  <r_i_glide_eff_state_penalty>  (158) 
0

>  <ligand_id>  (158) 
57

>  <original_smiles>  (158) 
c1cnc2c(c1)oc1nccn12

>  <smiles>  (158) 
[H]c1nc2c(oc3nc([H])c([H])n32)c([H])c1[H]

$$$$
58:0:0
     RDKit          3D

 59 64  0  0  1  0  0  0  0  0999 V2000
    2.9986   -3.3301   -3.0730 C   0  0  0  0  0  0  0  0  0  0  0  0
    4.5925   -3.3912   -2.2170 S   0  0  0  0  0  0  0  0  0  0  0  0
    4.2546   -2.5448   -0.6942 C   0  0  0  0  0  0  0  0  0  0  0  0
    3.5103   -3.0824    0.3211 C   0  0  0  0  0  0  0  0  0  0  0  0
    2.9427   -4.4919    0.2615 C   0  0  0  0  0  0  0  0  0  0  0  0
    3.4704   -5.3789    1.4098 C   0  0  2  0  0  0  0  0  0  0  0  0
    2.8995   -6.7919    1.2181 C   0  0  0  0  0  0  0  0  0  0  0  0
    2.9138   -7.4923    2.4417 O   0  0  0  0  0  0  0  0  0  0  0  0
    2.0171   -6.8833    3.3727 C   0  0  0  0  0  0  0  0  0  0  0  0
    0.6386   -7.5293    3.4549 C   0  0  0  0  0  0  0  0  0  0  0  0
    1.6907   -7.8571    4.5010 C   0  0  0  0  0  0  0  0  0  0  0  0
    2.2806   -5.4230    3.5960 C   0  0  0  0  0  0  0  0  0  0  0  0
    1.5596   -4.9067    4.8067 C   0  0  0  0  0  0  0  0  0  0  0  0
    3.1184   -4.7171    2.7471 C   0  0  0  0  0  0  0  0  0  0  0  0
    3.7469   -3.2863    2.8762 C   0  0  1  0  0  0  0  0  0  0  0  0
    5.3155   -3.4487    2.7152 C   0  0  0  0  0  0  0  0  0  0  0  0
    3.2255   -2.3920    1.6775 C   0  0  1  0  0  0  0  0  0  0  0  0
    3.5973   -0.8725    1.6695 C   0  0  1  0  0  0  0  0  0  0  0  0
    2.6360   -0.1282    0.9396 O   0  0  0  0  0  0  0  0  0  0  0  0
    3.5039   -0.2289    3.0648 C   0  0  0  0  0  0  0  0  0  0  0  0
    4.1251   -1.1015    4.0913 N   0  0  0  0  0  0  0  0  0  0  0  0
    3.5999   -2.4809    4.2641 C   0  0  2  0  0  0  0  0  0  0  0  0
    4.3312   -3.0608    5.4698 C   0  0  0  0  0  0  0  0  0  0  0  0
    3.5952   -2.3814    6.6287 C   0  0  0  0  0  0  0  0  0  0  0  0
    2.1761   -2.2083    6.1074 C   0  0  0  0  0  0  0  0  0  0  0  0
    2.2951   -2.2374    4.6767 O   0  0  0  0  0  0  0  0  0  0  0  0
    5.2623   -0.6158    1.0185 S   0  0  0  0  0  0  0  0  0  0  0  0
    4.9177   -1.1868   -0.6543 C   0  0  0  0  0  0  0  0  0  0  0  0
    3.0695   -3.8743   -4.0098 H   0  0  0  0  0  0  0  0  0  0  0  0
    2.7235   -2.2996   -3.2845 H   0  0  0  0  0  0  0  0  0  0  0  0
    2.2051   -3.7788   -2.4791 H   0  0  0  0  0  0  0  0  0  0  0  0
    1.8545   -4.3963    0.3530 H   0  0  0  0  0  0  0  0  0  0  0  0
    3.1191   -4.9853   -0.7022 H   0  0  0  0  0  0  0  0  0  0  0  0
    4.5529   -5.4869    1.3048 H   0  0  0  0  0  0  0  0  0  0  0  0
    1.8703   -6.7820    0.8475 H   0  0  0  0  0  0  0  0  0  0  0  0
    3.5002   -7.3597    0.4994 H   0  0  0  0  0  0  0  0  0  0  0  0
   -0.1886   -6.8417    3.6888 H   0  0  0  0  0  0  0  0  0  0  0  0
    0.4339   -8.2869    2.7113 H   0  0  0  0  0  0  0  0  0  0  0  0
    2.1060   -8.8503    4.4387 H   0  0  0  0  0  0  0  0  0  0  0  0
    1.5834   -7.4543    5.5153 H   0  0  0  0  0  0  0  0  0  0  0  0
    0.7293   -5.5236    5.1040 H   0  0  0  0  0  0  0  0  0  0  0  0
    1.0066   -4.0141    4.5070 H   0  0  0  0  0  0  0  0  0  0  0  0
    2.1998   -4.7232    5.6662 H   0  0  0  0  0  0  0  0  0  0  0  0
    5.8890   -2.5568    2.9864 H   0  0  0  0  0  0  0  0  0  0  0  0
    5.6559   -3.6883    1.6965 H   0  0  0  0  0  0  0  0  0  0  0  0
    5.6861   -4.2585    3.3519 H   0  0  0  0  0  0  0  0  0  0  0  0
    2.1423   -2.4066    1.7905 H   0  0  0  0  0  0  0  0  0  0  0  0
    2.0754   -0.7008    0.4028 H   0  0  0  0  0  0  0  0  0  0  0  0
    3.9840    0.7486    3.0670 H   0  0  0  0  0  0  0  0  0  0  0  0
    2.4527   -0.0514    3.3291 H   0  0  0  0  0  0  0  0  0  0  0  0
    4.4222   -0.6483    4.9437 H   0  0  0  0  0  0  0  0  0  0  0  0
    4.2623   -4.1472    5.4716 H   0  0  0  0  0  0  0  0  0  0  0  0
    5.3916   -2.8567    5.4381 H   0  0  0  0  0  0  0  0  0  0  0  0
    3.6218   -2.9605    7.5293 H   0  0  0  0  0  0  0  0  0  0  0  0
    4.0581   -1.4221    6.8493 H   0  0  0  0  0  0  0  0  0  0  0  0
    1.5936   -3.0294    6.4407 H   0  0  0  0  0  0  0  0  0  0  0  0
    1.7235   -1.2464    6.4117 H   0  0  0  0  0  0  0  0  0  0  0  0
    5.8619   -1.2290   -1.1998 H   0  0  0  0  0  0  0  0  0  0  0  0
    4.2813   -0.4571   -1.1538 H   0  0  0  0  0  0  0  0  0  0  0  0
  1  2  1  0
  1 29  1  0
  1 30  1  0
  1 31  1  0
  2  3  1  0
  3 28  1  0
  3  4  2  0
  4 17  1  0
  4  5  1  0
  5  6  1  0
  5 32  1  0
  5 33  1  0
  6 14  1  0
  6  7  1  0
  6 34  1  6
  7  8  1  0
  7 35  1  0
  7 36  1  0
  8  9  1  0
  9 11  1  0
  9 10  1  0
  9 12  1  0
 10 11  1  0
 10 37  1  0
 10 38  1  0
 11 39  1  0
 11 40  1  0
 12 13  1  0
 12 14  2  0
 13 41  1  0
 13 42  1  0
 13 43  1  0
 14 15  1  0
 15 22  1  0
 15 16  1  6
 15 17  1  0
 16 44  1  0
 16 45  1  0
 16 46  1  0
 17 18  1  0
 17 47  1  1
 18 19  1  6
 18 20  1  0
 18 27  1  0
 19 48  1  0
 20 21  1  0
 20 49  1  0
 20 50  1  0
 21 22  1  0
 21 51  1  0
 22 26  1  1
 22 23  1  0
 23 24  1  0
 23 52  1  0
 23 53  1  0
 24 25  1  0
 24 54  1  0
 24 55  1  0
 25 26  1  0
 25 56  1  0
 25 57  1  0
 27 28  1  0
 28 58  1  0
 28 59  1  0
M  END
>  <i_m_ct_stereo_status>  (159) 
1

>  <s_m_source_file>  (159) 
/var/tmp/pbs.5076255.sched01/tmppvoazpai/72cbyqjt17.sdf

>  <i_m_source_file_index>  (159) 
1

>  <i_lp_mmshare_version>  (159) 
48012

>  <i_f3d_flags>  (159) 
0

>  <s_epik_input>  (159) 
W0NIM11TQyhbQ0gyXVMxKT1DKFtDSDJdMilbQ0BASF0zW0NAQF0xKFtPSF0pW0NIMl1bTkhdW0NAXTQoW0NIMl1bQ0gyXVtDSDJdTzQpW0NAQF0zKFtDSDNdKUMoPUM1W0NIM10pW0NASF0yW0NIMl1PQzU2W0NIMl1bQ0gyXTY=

>  <s_epik_cmdline>  (159) 
J2VwaWtfcHl0aG9uJywgJy1waHQnLCAnMi4wJywgJy1waCcsICc3LjAnLCAnLXRuJywgJzgnLCAnLW1hJywgJzIwMCcsICctaW1hZScsICc8aW5maWxlLm1hZT4nLCAnLW9tYWUnLCAnPG91dGZpbGUubWFlPic=

>  <r_epik_Ionization_Penalty>  (159) 
0.152138

>  <r_epik_Ionization_Penalty_Charging>  (159) 
0

>  <r_epik_Ionization_Penalty_Neutral>  (159) 
0.152138

>  <r_epik_State_Penalty>  (159) 
0.14142

>  <r_epik_Charging_Adjusted_Penalty>  (159) 
0.14142

>  <i_epik_Tot_Q>  (159) 
0

>  <i_epik_Tot_abs_Q>  (159) 
0

>  <s_lp_Force_Field>  (159) 
OPLS3e

>  <r_lp_Energy>  (159) 
47.5051

>  <b_lp_Chiralities_Consistent>  (159) 
1

>  <s_lp_Variant>  (159) 
58:0-1

>  <s_i_glide_gridfile>  (159) 
pfpi4k_grid

>  <i_i_glide_lignum>  (159) 
1

>  <i_i_glide_rotatable_bonds>  (159) 
2

>  <r_i_docking_score>  (159) 
-2.64187

>  <r_i_glide_ligand_efficiency>  (159) 
-0.0943525

>  <r_i_glide_ligand_efficiency_sa>  (159) 
-0.28651

>  <r_i_glide_ligand_efficiency_ln>  (159) 
-0.609821

>  <r_i_glide_gscore>  (159) 
-2.64187

>  <r_i_glide_lipo>  (159) 
-0.298791

>  <r_i_glide_hbond>  (159) 
-0.16

>  <r_i_glide_metal>  (159) 
-0

>  <r_i_glide_rewards>  (159) 
-0.53442

>  <r_i_glide_evdw>  (159) 
-22.4107

>  <r_i_glide_ecoul>  (159) 
-3.52083

>  <r_i_glide_erotb>  (159) 
0

>  <r_i_glide_esite>  (159) 
0

>  <r_i_glide_emodel>  (159) 
-28.1656

>  <r_i_glide_energy>  (159) 
-25.9315

>  <r_i_glide_einternal>  (159) 
0.998801

>  <r_i_glide_intrahb_reward>  (159) 
-0

>  <i_i_glide_confnum>  (159) 
1

>  <i_i_glide_posenum>  (159) 
1

>  <r_i_glide_eff_state_penalty>  (159) 
0

>  <ligand_id>  (159) 
58

>  <original_smiles>  (159) 
CSC1=C2CC3COC4(CC4)C(C)=C3C3(C)C2C(O)(CNC32CCCO2)SC1

>  <smiles>  (159) 
[H]OC12SC([H])([H])C(SC([H])([H])[H])=C3C([H])([H])C4([H])C(=C(C([H])([H])[H])C5(OC4([H])[H])C([H])([H])C5([H])[H])C(C([H])([H])[H])(C31[H])C1(OC([H])([H])C([H])([H])C1([H])[H])N([H])C2([H])[H]

$$$$
58:0:1
     RDKit          3D

 59 64  0  0  1  0  0  0  0  0999 V2000
    3.5208   -2.7782   -2.8591 C   0  0  0  0  0  0  0  0  0  0  0  0
    4.9548   -2.7003   -1.7529 S   0  0  0  0  0  0  0  0  0  0  0  0
    4.2851   -2.0708   -0.2324 C   0  0  0  0  0  0  0  0  0  0  0  0
    3.4129   -2.7757    0.5425 C   0  0  0  0  0  0  0  0  0  0  0  0
    2.9857   -4.2001    0.2134 C   0  0  0  0  0  0  0  0  0  0  0  0
    3.3611   -5.1919    1.3246 C   0  0  2  0  0  0  0  0  0  0  0  0
    2.9491   -6.5982    0.8659 C   0  0  0  0  0  0  0  0  0  0  0  0
    2.7811   -7.4665    1.9600 O   0  0  0  0  0  0  0  0  0  0  0  0
    1.6835   -7.0289    2.7507 C   0  0  0  0  0  0  0  0  0  0  0  0
    0.3769   -7.7602    2.4703 C   0  0  0  0  0  0  0  0  0  0  0  0
    1.2340   -8.1701    3.6612 C   0  0  0  0  0  0  0  0  0  0  0  0
    1.7766   -5.6043    3.1797 C   0  0  0  0  0  0  0  0  0  0  0  0
    0.8022   -5.3140    4.2737 C   0  0  0  0  0  0  0  0  0  0  0  0
    2.7047   -4.7340    2.6278 C   0  0  0  0  0  0  0  0  0  0  0  0
    3.1772   -3.3012    3.0514 C   0  0  1  0  0  0  0  0  0  0  0  0
    4.7559   -3.3501    3.1873 C   0  0  0  0  0  0  0  0  0  0  0  0
    2.8218   -2.2833    1.8878 C   0  0  1  0  0  0  0  0  0  0  0  0
    3.0602   -0.7564    2.1312 C   0  0  1  0  0  0  0  0  0  0  0  0
    2.2064   -0.0048    1.2846 O   0  0  0  0  0  0  0  0  0  0  0  0
    2.6352   -0.3128    3.5481 C   0  0  0  0  0  0  0  0  0  0  0  0
    3.1118   -1.2850    4.5643 N   0  0  0  0  0  0  0  0  0  0  0  0
    2.6921   -2.7093    4.4644 C   0  0  2  0  0  0  0  0  0  0  0  0
    3.2344   -3.4054    5.7086 C   0  0  0  0  0  0  0  0  0  0  0  0
    2.2329   -2.9290    6.7811 C   0  0  0  0  0  0  0  0  0  0  0  0
    0.9207   -2.7324    6.0201 C   0  0  0  0  0  0  0  0  0  0  0  0
    1.3088   -2.6149    4.6297 O   0  0  0  0  0  0  0  0  0  0  0  0
    4.7936   -0.3271    1.8734 S   0  0  0  0  0  0  0  0  0  0  0  0
    4.8239   -0.6941    0.1120 C   0  0  0  0  0  0  0  0  0  0  0  0
    3.8293   -3.2026   -3.8100 H   0  0  0  0  0  0  0  0  0  0  0  0
    3.1236   -1.7783   -3.0244 H   0  0  0  0  0  0  0  0  0  0  0  0
    2.7174   -3.3965   -2.4632 H   0  0  0  0  0  0  0  0  0  0  0  0
    1.8978   -4.1814    0.0829 H   0  0  0  0  0  0  0  0  0  0  0  0
    3.4044   -4.5811   -0.7227 H   0  0  0  0  0  0  0  0  0  0  0  0
    4.4464   -5.2221    1.4241 H   0  0  0  0  0  0  0  0  0  0  0  0
    2.0101   -6.5783    0.3003 H   0  0  0  0  0  0  0  0  0  0  0  0
    3.7256   -7.0283    0.2321 H   0  0  0  0  0  0  0  0  0  0  0  0
   -0.5350   -7.1671    2.6145 H   0  0  0  0  0  0  0  0  0  0  0  0
    0.3782   -8.4239    1.6217 H   0  0  0  0  0  0  0  0  0  0  0  0
    1.7300   -9.1241    3.5628 H   0  0  0  0  0  0  0  0  0  0  0  0
    0.9039   -7.9287    4.6762 H   0  0  0  0  0  0  0  0  0  0  0  0
   -0.0333   -5.9911    4.3385 H   0  0  0  0  0  0  0  0  0  0  0  0
    0.2551   -4.4107    4.0127 H   0  0  0  0  0  0  0  0  0  0  0  0
    1.2998   -5.2941    5.2483 H   0  0  0  0  0  0  0  0  0  0  0  0
    5.1994   -2.4850    3.6833 H   0  0  0  0  0  0  0  0  0  0  0  0
    5.2941   -3.4331    2.2390 H   0  0  0  0  0  0  0  0  0  0  0  0
    5.0585   -4.2269    3.7749 H   0  0  0  0  0  0  0  0  0  0  0  0
    1.7445   -2.3749    1.7811 H   0  0  0  0  0  0  0  0  0  0  0  0
    1.7609   -0.5673    0.6543 H   0  0  0  0  0  0  0  0  0  0  0  0
    3.0313    0.6774    3.7690 H   0  0  0  0  0  0  0  0  0  0  0  0
    1.5488   -0.2377    3.6128 H   0  0  0  0  0  0  0  0  0  0  0  0
    3.2278   -0.9409    5.5048 H   0  0  0  0  0  0  0  0  0  0  0  0
    3.2533   -4.4803    5.5665 H   0  0  0  0  0  0  0  0  0  0  0  0
    4.2591   -3.1336    5.9222 H   0  0  0  0  0  0  0  0  0  0  0  0
    2.1362   -3.6305    7.5868 H   0  0  0  0  0  0  0  0  0  0  0  0
    2.5637   -1.9837    7.2008 H   0  0  0  0  0  0  0  0  0  0  0  0
    0.3070   -3.6197    6.1599 H   0  0  0  0  0  0  0  0  0  0  0  0
    0.3450   -1.8507    6.3380 H   0  0  0  0  0  0  0  0  0  0  0  0
    5.8518   -0.5996   -0.2345 H   0  0  0  0  0  0  0  0  0  0  0  0
    4.2323    0.0549   -0.4075 H   0  0  0  0  0  0  0  0  0  0  0  0
  1  2  1  0
  1 29  1  0
  1 30  1  0
  1 31  1  0
  2  3  1  0
  3 28  1  0
  3  4  2  0
  4 17  1  0
  4  5  1  0
  5  6  1  0
  5 32  1  0
  5 33  1  0
  6 14  1  0
  6  7  1  0
  6 34  1  1
  7  8  1  0
  7 35  1  0
  7 36  1  0
  8  9  1  0
  9 11  1  0
  9 10  1  0
  9 12  1  0
 10 11  1  0
 10 37  1  0
 10 38  1  0
 11 39  1  0
 11 40  1  0
 12 13  1  0
 12 14  2  0
 13 41  1  0
 13 42  1  0
 13 43  1  0
 14 15  1  0
 15 22  1  0
 15 16  1  1
 15 17  1  0
 16 44  1  0
 16 45  1  0
 16 46  1  0
 17 18  1  0
 17 47  1  6
 18 19  1  6
 18 20  1  0
 18 27  1  0
 19 48  1  0
 20 21  1  0
 20 49  1  0
 20 50  1  0
 21 22  1  0
 21 51  1  0
 22 26  1  6
 22 23  1  0
 23 24  1  0
 23 52  1  0
 23 53  1  0
 24 25  1  0
 24 54  1  0
 24 55  1  0
 25 26  1  0
 25 56  1  0
 25 57  1  0
 27 28  1  0
 28 58  1  0
 28 59  1  0
M  END
>  <i_m_ct_stereo_status>  (160) 
1

>  <s_m_source_file>  (160) 
/var/tmp/pbs.5076255.sched01/tmppvoazpai/72cbyqjt17.sdf

>  <i_m_source_file_index>  (160) 
1

>  <i_lp_mmshare_version>  (160) 
48012

>  <i_f3d_flags>  (160) 
0

>  <s_epik_input>  (160) 
W0NIM11TQyhbQ0gyXVMxKT1DKFtDSDJdMilbQ0BASF0zW0NAQF0xKFtPSF0pW0NIMl1bTkhdW0NAXTQoW0NIMl1bQ0gyXVtDSDJdTzQpW0NAQF0zKFtDSDNdKUMoPUM1W0NIM10pW0NASF0yW0NIMl1PQzU2W0NIMl1bQ0gyXTY=

>  <s_epik_cmdline>  (160) 
J2VwaWtfcHl0aG9uJywgJy1waHQnLCAnMi4wJywgJy1waCcsICc3LjAnLCAnLXRuJywgJzgnLCAnLW1hJywgJzIwMCcsICctaW1hZScsICc8aW5maWxlLm1hZT4nLCAnLW9tYWUnLCAnPG91dGZpbGUubWFlPic=

>  <r_epik_Ionization_Penalty>  (160) 
0.152138

>  <r_epik_Ionization_Penalty_Charging>  (160) 
0

>  <r_epik_Ionization_Penalty_Neutral>  (160) 
0.152138

>  <r_epik_State_Penalty>  (160) 
0.14142

>  <r_epik_Charging_Adjusted_Penalty>  (160) 
0.14142

>  <i_epik_Tot_Q>  (160) 
0

>  <i_epik_Tot_abs_Q>  (160) 
0

>  <s_lp_Force_Field>  (160) 
OPLS3e

>  <r_lp_Energy>  (160) 
47.5051

>  <b_lp_Chiralities_Consistent>  (160) 
1

>  <s_lp_Variant>  (160) 
58:0-1

>  <s_i_glide_gridfile>  (160) 
pfpi4k_grid

>  <i_i_glide_lignum>  (160) 
1

>  <i_i_glide_rotatable_bonds>  (160) 
2

>  <r_i_docking_score>  (160) 
-2.60825

>  <r_i_glide_ligand_efficiency>  (160) 
-0.0931519

>  <r_i_glide_ligand_efficiency_sa>  (160) 
-0.282864

>  <r_i_glide_ligand_efficiency_ln>  (160) 
-0.602061

>  <r_i_glide_gscore>  (160) 
-2.60825

>  <r_i_glide_lipo>  (160) 
-0.226433

>  <r_i_glide_hbond>  (160) 
-0.16

>  <r_i_glide_metal>  (160) 
-0

>  <r_i_glide_rewards>  (160) 
-0.53442

>  <r_i_glide_evdw>  (160) 
-23.0697

>  <r_i_glide_ecoul>  (160) 
-3.55943

>  <r_i_glide_erotb>  (160) 
0

>  <r_i_glide_esite>  (160) 
0

>  <r_i_glide_emodel>  (160) 
-29.2491

>  <r_i_glide_energy>  (160) 
-26.6291

>  <r_i_glide_einternal>  (160) 
0.925502

>  <r_i_glide_intrahb_reward>  (160) 
-0

>  <i_i_glide_confnum>  (160) 
5

>  <i_i_glide_posenum>  (160) 
23

>  <r_i_glide_eff_state_penalty>  (160) 
0

>  <ligand_id>  (160) 
58

>  <original_smiles>  (160) 
CSC1=C2CC3COC4(CC4)C(C)=C3C3(C)C2C(O)(CNC32CCCO2)SC1

>  <smiles>  (160) 
[H]OC12SC([H])([H])C(SC([H])([H])[H])=C3C([H])([H])C4([H])C(=C(C([H])([H])[H])C5(OC4([H])[H])C([H])([H])C5([H])[H])C(C([H])([H])[H])(C31[H])C1(OC([H])([H])C([H])([H])C1([H])[H])N([H])C2([H])[H]

$$$$
58:0:2
     RDKit          3D

 59 64  0  0  1  0  0  0  0  0999 V2000
    2.7771   -1.4371   -3.7044 C   0  0  0  0  0  0  0  0  0  0  0  0
    2.5235   -3.0386   -2.8901 S   0  0  0  0  0  0  0  0  0  0  0  0
    3.7578   -3.0463   -1.6104 C   0  0  0  0  0  0  0  0  0  0  0  0
    3.5391   -3.5757   -0.3739 C   0  0  0  0  0  0  0  0  0  0  0  0
    2.2320   -4.2296    0.0411 C   0  0  0  0  0  0  0  0  0  0  0  0
    2.4375   -5.6916    0.4844 C   0  0  2  0  0  0  0  0  0  0  0  0
    1.0834   -6.3591    0.7971 C   0  0  0  0  0  0  0  0  0  0  0  0
    1.2335   -7.4790    1.6304 O   0  0  0  0  0  0  0  0  0  0  0  0
    1.6988   -7.0601    2.8955 C   0  0  0  0  0  0  0  0  0  0  0  0
    0.6634   -6.8405    3.9678 C   0  0  0  0  0  0  0  0  0  0  0  0
    1.4631   -8.1260    3.9422 C   0  0  0  0  0  0  0  0  0  0  0  0
    2.9756   -6.2460    2.8260 C   0  0  0  0  0  0  0  0  0  0  0  0
    3.6269   -6.1359    4.1704 C   0  0  0  0  0  0  0  0  0  0  0  0
    3.4341   -5.7312    1.6457 C   0  0  0  0  0  0  0  0  0  0  0  0
    4.8344   -5.1295    1.2211 C   0  0  1  0  0  0  0  0  0  0  0  0
    5.3473   -5.9434   -0.0216 C   0  0  0  0  0  0  0  0  0  0  0  0
    4.5944   -3.6229    0.7471 C   0  0  1  0  0  0  0  0  0  0  0  0
    5.8409   -2.7369    0.4321 C   0  0  1  0  0  0  0  0  0  0  0  0
    5.5135   -1.3760    0.6382 O   0  0  0  0  0  0  0  0  0  0  0  0
    6.9498   -2.9652    1.4259 C   0  0  0  0  0  0  0  0  0  0  0  0
    7.1533   -4.4036    1.6608 N   0  0  0  0  0  0  0  0  0  0  0  0
    6.0393   -5.1791    2.2470 C   0  0  2  0  0  0  0  0  0  0  0  0
    6.6054   -6.5748    2.5871 C   0  0  0  0  0  0  0  0  0  0  0  0
    7.3360   -6.3037    3.8841 C   0  0  0  0  0  0  0  0  0  0  0  0
    6.5359   -5.1921    4.5640 C   0  0  0  0  0  0  0  0  0  0  0  0
    5.8011   -4.5770    3.4972 O   0  0  0  0  0  0  0  0  0  0  0  0
    6.5224   -3.0224   -1.2120 S   0  0  0  0  0  0  0  0  0  0  0  0
    5.0669   -2.4445   -2.0818 C   0  0  0  0  0  0  0  0  0  0  0  0
    2.0449   -1.2977   -4.4962 H   0  0  0  0  0  0  0  0  0  0  0  0
    3.7584   -1.3657   -4.1684 H   0  0  0  0  0  0  0  0  0  0  0  0
    2.6710   -0.6342   -2.9730 H   0  0  0  0  0  0  0  0  0  0  0  0
    1.8509   -3.6627    0.8917 H   0  0  0  0  0  0  0  0  0  0  0  0
    1.4732   -4.1799   -0.7464 H   0  0  0  0  0  0  0  0  0  0  0  0
    2.8688   -6.2474   -0.3199 H   0  0  0  0  0  0  0  0  0  0  0  0
    0.4082   -5.6914    1.3291 H   0  0  0  0  0  0  0  0  0  0  0  0
    0.5974   -6.6740   -0.1218 H   0  0  0  0  0  0  0  0  0  0  0  0
    0.8665   -6.0628    4.7002 H   0  0  0  0  0  0  0  0  0  0  0  0
   -0.3804   -6.9028    3.6381 H   0  0  0  0  0  0  0  0  0  0  0  0
    0.9113   -9.0194    3.6274 H   0  0  0  0  0  0  0  0  0  0  0  0
    2.2182   -8.3204    4.7031 H   0  0  0  0  0  0  0  0  0  0  0  0
    2.9608   -6.3072    5.0115 H   0  0  0  0  0  0  0  0  0  0  0  0
    3.8778   -5.0980    4.3354 H   0  0  0  0  0  0  0  0  0  0  0  0
    4.4177   -6.8773    4.2406 H   0  0  0  0  0  0  0  0  0  0  0  0
    6.3986   -5.7527   -0.2668 H   0  0  0  0  0  0  0  0  0  0  0  0
    4.8155   -5.7620   -0.9586 H   0  0  0  0  0  0  0  0  0  0  0  0
    5.2676   -7.0154    0.1857 H   0  0  0  0  0  0  0  0  0  0  0  0
    4.1279   -3.1583    1.6147 H   0  0  0  0  0  0  0  0  0  0  0  0
    4.6148   -1.3368    0.9843 H   0  0  0  0  0  0  0  0  0  0  0  0
    7.8699   -2.4954    1.0846 H   0  0  0  0  0  0  0  0  0  0  0  0
    6.6159   -2.4961    2.3500 H   0  0  0  0  0  0  0  0  0  0  0  0
    8.0613   -4.6422    2.0716 H   0  0  0  0  0  0  0  0  0  0  0  0
    5.7956   -7.2944    2.6610 H   0  0  0  0  0  0  0  0  0  0  0  0
    7.2539   -6.9648    1.7853 H   0  0  0  0  0  0  0  0  0  0  0  0
    7.4120   -7.1914    4.5114 H   0  0  0  0  0  0  0  0  0  0  0  0
    8.3479   -5.9516    3.7086 H   0  0  0  0  0  0  0  0  0  0  0  0
    5.8676   -5.6305    5.2992 H   0  0  0  0  0  0  0  0  0  0  0  0
    7.1253   -4.4896    5.1633 H   0  0  0  0  0  0  0  0  0  0  0  0
    5.2342   -2.7075   -3.1249 H   0  0  0  0  0  0  0  0  0  0  0  0
    5.0126   -1.3591   -1.9875 H   0  0  0  0  0  0  0  0  0  0  0  0
  1  2  1  0
  1 29  1  0
  1 30  1  0
  1 31  1  0
  2  3  1  0
  3 28  1  0
  3  4  2  0
  4 17  1  0
  4  5  1  0
  5  6  1  0
  5 32  1  0
  5 33  1  0
  6 14  1  0
  6  7  1  0
  6 34  1  6
  7  8  1  0
  7 35  1  0
  7 36  1  0
  8  9  1  0
  9 11  1  0
  9 10  1  0
  9 12  1  0
 10 11  1  0
 10 37  1  0
 10 38  1  0
 11 39  1  0
 11 40  1  0
 12 13  1  0
 12 14  2  0
 13 41  1  0
 13 42  1  0
 13 43  1  0
 14 15  1  0
 15 22  1  0
 15 16  1  6
 15 17  1  0
 16 44  1  0
 16 45  1  0
 16 46  1  0
 17 18  1  0
 17 47  1  1
 18 19  1  6
 18 20  1  0
 18 27  1  0
 19 48  1  0
 20 21  1  0
 20 49  1  0
 20 50  1  0
 21 22  1  0
 21 51  1  0
 22 26  1  1
 22 23  1  0
 23 24  1  0
 23 52  1  0
 23 53  1  0
 24 25  1  0
 24 54  1  0
 24 55  1  0
 25 26  1  0
 25 56  1  0
 25 57  1  0
 27 28  1  0
 28 58  1  0
 28 59  1  0
M  END
>  <i_m_ct_stereo_status>  (161) 
1

>  <s_m_source_file>  (161) 
/var/tmp/pbs.5076255.sched01/tmppvoazpai/72cbyqjt17.sdf

>  <i_m_source_file_index>  (161) 
1

>  <i_lp_mmshare_version>  (161) 
48012

>  <i_f3d_flags>  (161) 
0

>  <s_epik_input>  (161) 
W0NIM11TQyhbQ0gyXVMxKT1DKFtDSDJdMilbQ0BASF0zW0NAQF0xKFtPSF0pW0NIMl1bTkhdW0NAXTQoW0NIMl1bQ0gyXVtDSDJdTzQpW0NAQF0zKFtDSDNdKUMoPUM1W0NIM10pW0NASF0yW0NIMl1PQzU2W0NIMl1bQ0gyXTY=

>  <s_epik_cmdline>  (161) 
J2VwaWtfcHl0aG9uJywgJy1waHQnLCAnMi4wJywgJy1waCcsICc3LjAnLCAnLXRuJywgJzgnLCAnLW1hJywgJzIwMCcsICctaW1hZScsICc8aW5maWxlLm1hZT4nLCAnLW9tYWUnLCAnPG91dGZpbGUubWFlPic=

>  <r_epik_Ionization_Penalty>  (161) 
0.152138

>  <r_epik_Ionization_Penalty_Charging>  (161) 
0

>  <r_epik_Ionization_Penalty_Neutral>  (161) 
0.152138

>  <r_epik_State_Penalty>  (161) 
0.14142

>  <r_epik_Charging_Adjusted_Penalty>  (161) 
0.14142

>  <i_epik_Tot_Q>  (161) 
0

>  <i_epik_Tot_abs_Q>  (161) 
0

>  <s_lp_Force_Field>  (161) 
OPLS3e

>  <r_lp_Energy>  (161) 
47.5051

>  <b_lp_Chiralities_Consistent>  (161) 
1

>  <s_lp_Variant>  (161) 
58:0-1

>  <s_i_glide_gridfile>  (161) 
pfpi4k_grid

>  <i_i_glide_lignum>  (161) 
1

>  <i_i_glide_rotatable_bonds>  (161) 
2

>  <r_i_docking_score>  (161) 
-2.07531

>  <r_i_glide_ligand_efficiency>  (161) 
-0.0741183

>  <r_i_glide_ligand_efficiency_sa>  (161) 
-0.225067

>  <r_i_glide_ligand_efficiency_ln>  (161) 
-0.479043

>  <r_i_glide_gscore>  (161) 
-2.07531

>  <r_i_glide_lipo>  (161) 
-0.592605

>  <r_i_glide_hbond>  (161) 
0

>  <r_i_glide_metal>  (161) 
-0

>  <r_i_glide_rewards>  (161) 
-0.58337

>  <r_i_glide_evdw>  (161) 
-22.2169

>  <r_i_glide_ecoul>  (161) 
1.41005

>  <r_i_glide_erotb>  (161) 
0

>  <r_i_glide_esite>  (161) 
0

>  <r_i_glide_emodel>  (161) 
-22.3432

>  <r_i_glide_energy>  (161) 
-20.8069

>  <r_i_glide_einternal>  (161) 
0.290008

>  <r_i_glide_intrahb_reward>  (161) 
-0

>  <i_i_glide_confnum>  (161) 
1

>  <i_i_glide_posenum>  (161) 
8

>  <r_i_glide_eff_state_penalty>  (161) 
0

>  <ligand_id>  (161) 
58

>  <original_smiles>  (161) 
CSC1=C2CC3COC4(CC4)C(C)=C3C3(C)C2C(O)(CNC32CCCO2)SC1

>  <smiles>  (161) 
[H]OC12SC([H])([H])C(SC([H])([H])[H])=C3C([H])([H])C4([H])C(=C(C([H])([H])[H])C5(OC4([H])[H])C([H])([H])C5([H])[H])C(C([H])([H])[H])(C31[H])C1(OC([H])([H])C([H])([H])C1([H])[H])N([H])C2([H])[H]

$$$$
58:1:0
     RDKit          3D

 60 65  0  0  1  0  0  0  0  0999 V2000
    1.9968   -2.5556   -3.6177 C   0  0  0  0  0  0  0  0  0  0  0  0
    3.6976   -3.1267   -3.3997 S   0  0  0  0  0  0  0  0  0  0  0  0
    4.1543   -2.5707   -1.7726 C   0  0  0  0  0  0  0  0  0  0  0  0
    3.4899   -2.9812   -0.6437 C   0  0  0  0  0  0  0  0  0  0  0  0
    2.3403   -3.9390   -0.7013 C   0  0  0  0  0  0  0  0  0  0  0  0
    2.5779   -5.1978    0.1364 C   0  0  2  0  0  0  0  0  0  0  0  0
    1.3246   -6.0616   -0.0087 C   0  0  0  0  0  0  0  0  0  0  0  0
    1.2602   -7.0477    0.9823 O   0  0  0  0  0  0  0  0  0  0  0  0
    1.0876   -6.4425    2.2387 C   0  0  0  0  0  0  0  0  0  0  0  0
    0.6352   -7.4820    3.2498 C   0  0  0  0  0  0  0  0  0  0  0  0
   -0.3302   -6.4614    2.7111 C   0  0  0  0  0  0  0  0  0  0  0  0
    2.0210   -5.3100    2.5318 C   0  0  0  0  0  0  0  0  0  0  0  0
    1.9187   -4.8605    3.9538 C   0  0  0  0  0  0  0  0  0  0  0  0
    2.8731   -4.8134    1.5744 C   0  0  0  0  0  0  0  0  0  0  0  0
    4.1269   -3.8665    1.6557 C   0  0  1  0  0  0  0  0  0  0  0  0
    5.3328   -4.6562    1.0015 C   0  0  0  0  0  0  0  0  0  0  0  0
    3.8232   -2.5746    0.7999 C   0  0  1  0  0  0  0  0  0  0  0  0
    4.8591   -1.4250    0.8744 C   0  0  1  0  0  0  0  0  0  0  0  0
    4.2136   -0.2107    0.5865 O   0  0  0  0  0  0  0  0  0  0  0  0
    5.3451   -1.2072    2.2941 C   0  0  0  0  0  0  0  0  0  0  0  0
    5.7777   -2.4806    2.8614 N   0  0  0  0  0  0  0  0  0  0  0  0
    4.6140   -3.5023    3.1221 C   0  0  2  0  0  0  0  0  0  0  0  0
    5.3237   -4.5901    3.9409 C   0  0  0  0  0  0  0  0  0  0  0  0
    5.3024   -3.9695    5.3345 C   0  0  0  0  0  0  0  0  0  0  0  0
    4.0606   -3.0672    5.3551 C   0  0  0  0  0  0  0  0  0  0  0  0
    3.7418   -2.8119    3.9691 O   0  0  0  0  0  0  0  0  0  0  0  0
    6.2937   -1.7459   -0.1954 S   0  0  0  0  0  0  0  0  0  0  0  0
    5.3865   -1.6934   -1.7575 C   0  0  0  0  0  0  0  0  0  0  0  0
    1.5900   -2.8404   -4.5922 H   0  0  0  0  0  0  0  0  0  0  0  0
    2.1976   -1.4854   -3.5969 H   0  0  0  0  0  0  0  0  0  0  0  0
    1.2500   -2.8228   -2.8574 H   0  0  0  0  0  0  0  0  0  0  0  0
    1.4984   -3.3501   -0.3356 H   0  0  0  0  0  0  0  0  0  0  0  0
    2.0943   -4.2817   -1.6916 H   0  0  0  0  0  0  0  0  0  0  0  0
    3.4228   -5.7865   -0.2651 H   0  0  0  0  0  0  0  0  0  0  0  0
    0.3797   -5.5274   -0.0693 H   0  0  0  0  0  0  0  0  0  0  0  0
    1.4003   -6.5336   -0.9559 H   0  0  0  0  0  0  0  0  0  0  0  0
    0.4256   -8.4905    2.9185 H   0  0  0  0  0  0  0  0  0  0  0  0
    0.9096   -7.3662    4.2977 H   0  0  0  0  0  0  0  0  0  0  0  0
   -0.5943   -5.6996    3.4303 H   0  0  0  0  0  0  0  0  0  0  0  0
   -1.0804   -6.7772    1.9945 H   0  0  0  0  0  0  0  0  0  0  0  0
    1.0257   -5.1333    4.4956 H   0  0  0  0  0  0  0  0  0  0  0  0
    1.7968   -3.7814    3.9592 H   0  0  0  0  0  0  0  0  0  0  0  0
    2.7343   -5.3097    4.5134 H   0  0  0  0  0  0  0  0  0  0  0  0
    6.3269   -4.2465    1.1904 H   0  0  0  0  0  0  0  0  0  0  0  0
    5.2839   -4.7292   -0.0853 H   0  0  0  0  0  0  0  0  0  0  0  0
    5.3546   -5.6856    1.3587 H   0  0  0  0  0  0  0  0  0  0  0  0
    2.9143   -2.1454    1.2291 H   0  0  0  0  0  0  0  0  0  0  0  0
    3.3458   -0.4072    0.2659 H   0  0  0  0  0  0  0  0  0  0  0  0
    6.2177   -0.5485    2.2818 H   0  0  0  0  0  0  0  0  0  0  0  0
    4.5931   -0.7100    2.9181 H   0  0  0  0  0  0  0  0  0  0  0  0
    6.4323   -2.9056    2.2043 H   0  0  0  0  0  0  0  0  0  0  0  0
    4.7723   -5.5339    3.8855 H   0  0  0  0  0  0  0  0  0  0  0  0
    6.3062   -4.8402    3.5513 H   0  0  0  0  0  0  0  0  0  0  0  0
    5.2772   -4.7217    6.1130 H   0  0  0  0  0  0  0  0  0  0  0  0
    6.1933   -3.3724    5.5050 H   0  0  0  0  0  0  0  0  0  0  0  0
    3.2500   -3.6082    5.8407 H   0  0  0  0  0  0  0  0  0  0  0  0
    4.1773   -2.1451    5.9412 H   0  0  0  0  0  0  0  0  0  0  0  0
    6.0495   -2.0625   -2.5389 H   0  0  0  0  0  0  0  0  0  0  0  0
    5.1053   -0.6648   -1.9908 H   0  0  0  0  0  0  0  0  0  0  0  0
    6.1615   -2.2502    3.7740 H   0  0  0  0  0  0  0  0  0  0  0  0
  1  2  1  0
  1 29  1  0
  1 30  1  0
  1 31  1  0
  2  3  1  0
  3 28  1  0
  3  4  2  0
  4 17  1  0
  4  5  1  0
  5  6  1  0
  5 32  1  0
  5 33  1  0
  6 14  1  0
  6  7  1  0
  6 34  1  6
  7  8  1  0
  7 35  1  0
  7 36  1  0
  8  9  1  0
  9 11  1  0
  9 10  1  0
  9 12  1  0
 10 11  1  0
 10 37  1  0
 10 38  1  0
 11 39  1  0
 11 40  1  0
 12 13  1  0
 12 14  2  0
 13 41  1  0
 13 42  1  0
 13 43  1  0
 14 15  1  0
 15 22  1  0
 15 16  1  6
 15 17  1  0
 16 44  1  0
 16 45  1  0
 16 46  1  0
 17 18  1  0
 17 47  1  1
 18 19  1  6
 18 20  1  0
 18 27  1  0
 19 48  1  0
 20 21  1  0
 20 49  1  0
 20 50  1  0
 21 22  1  0
 21 51  1  0
 21 60  1  0
 22 26  1  1
 22 23  1  0
 23 24  1  0
 23 52  1  0
 23 53  1  0
 24 25  1  0
 24 54  1  0
 24 55  1  0
 25 26  1  0
 25 56  1  0
 25 57  1  0
 27 28  1  0
 28 58  1  0
 28 59  1  0
M  CHG  1  21   1
M  END
>  <i_m_ct_stereo_status>  (162) 
1

>  <s_m_source_file>  (162) 
/var/tmp/pbs.5076255.sched01/tmppvoazpai/72cbyqjt17.sdf

>  <i_m_source_file_index>  (162) 
2

>  <i_lp_mmshare_version>  (162) 
48012

>  <i_f3d_flags>  (162) 
0

>  <s_epik_input>  (162) 
W0NIM11TQyhbQ0gyXVMxKT1DKFtDSDJdMilbQ0BASF0zW0NAQF0xKFtPSF0pW0NIMl1bTkhdW0NAXTQoW0NIMl1bQ0gyXVtDSDJdTzQpW0NAQF0zKFtDSDNdKUMoPUM1W0NIM10pW0NASF0yW0NIMl1PQzU2W0NIMl1bQ0gyXTY=

>  <s_epik_cmdline>  (162) 
J2VwaWtfcHl0aG9uJywgJy1waHQnLCAnMi4wJywgJy1waCcsICc3LjAnLCAnLXRuJywgJzgnLCAnLW1hJywgJzIwMCcsICctaW1hZScsICc8aW5maWxlLm1hZT4nLCAnLW9tYWUnLCAnPG91dGZpbGUubWFlPic=

>  <r_epik_Ionization_Penalty>  (162) 
0.880125

>  <r_epik_Ionization_Penalty_Charging>  (162) 
0.879979

>  <r_epik_Ionization_Penalty_Neutral>  (162) 
0.000146391

>  <r_epik_State_Penalty>  (162) 
0.918094

>  <r_epik_Charging_Adjusted_Penalty>  (162) 
1.79807

>  <i_epik_Tot_Q>  (162) 
1

>  <i_epik_Tot_abs_Q>  (162) 
1

>  <s_lp_Force_Field>  (162) 
OPLS3e

>  <r_lp_Energy>  (162) 
50.5133

>  <b_lp_Chiralities_Consistent>  (162) 
1

>  <s_lp_Variant>  (162) 
58:0-2

>  <s_i_glide_gridfile>  (162) 
pfpi4k_grid

>  <i_i_glide_lignum>  (162) 
2

>  <i_i_glide_rotatable_bonds>  (162) 
2

>  <r_i_docking_score>  (162) 
-2.35112

>  <r_i_glide_ligand_efficiency>  (162) 
-0.0839686

>  <r_i_glide_ligand_efficiency_sa>  (162) 
-0.254978

>  <r_i_glide_ligand_efficiency_ln>  (162) 
-0.542708

>  <r_i_glide_gscore>  (162) 
-2.35112

>  <r_i_glide_lipo>  (162) 
-0.652911

>  <r_i_glide_hbond>  (162) 
0

>  <r_i_glide_metal>  (162) 
-0

>  <r_i_glide_rewards>  (162) 
-0.55787

>  <r_i_glide_evdw>  (162) 
-19.4347

>  <r_i_glide_ecoul>  (162) 
-1.12402

>  <r_i_glide_erotb>  (162) 
0

>  <r_i_glide_esite>  (162) 
0

>  <r_i_glide_emodel>  (162) 
-18.0597

>  <r_i_glide_energy>  (162) 
-20.5587

>  <r_i_glide_einternal>  (162) 
2.05838

>  <r_i_glide_intrahb_reward>  (162) 
-0

>  <i_i_glide_confnum>  (162) 
5

>  <i_i_glide_posenum>  (162) 
40

>  <r_i_glide_eff_state_penalty>  (162) 
0

>  <ligand_id>  (162) 
58

>  <original_smiles>  (162) 
CSC1=C2CC3COC4(CC4)C(C)=C3C3(C)C2C(O)(CNC32CCCO2)SC1

>  <smiles>  (162) 
[H]OC12SC([H])([H])C(SC([H])([H])[H])=C3C([H])([H])C4([H])C(=C(C([H])([H])[H])C5(OC4([H])[H])C([H])([H])C5([H])[H])C(C([H])([H])[H])(C31[H])C1(OC([H])([H])C([H])([H])C1([H])[H])[N+]([H])([H])C2([H])[H]

$$$$
58:1:1
     RDKit          3D

 60 65  0  0  1  0  0  0  0  0999 V2000
    3.3683   -0.7063   -4.1955 C   0  0  0  0  0  0  0  0  0  0  0  0
    3.3827   -2.3446   -3.4285 S   0  0  0  0  0  0  0  0  0  0  0  0
    3.9161   -2.0180   -1.7623 C   0  0  0  0  0  0  0  0  0  0  0  0
    3.3351   -2.5825   -0.6872 C   0  0  0  0  0  0  0  0  0  0  0  0
    2.2004   -3.5647   -0.8167 C   0  0  0  0  0  0  0  0  0  0  0  0
    2.5062   -4.8982   -0.1065 C   0  0  2  0  0  0  0  0  0  0  0  0
    1.3169   -5.8406   -0.2980 C   0  0  0  0  0  0  0  0  0  0  0  0
    1.3338   -6.8763    0.6369 O   0  0  0  0  0  0  0  0  0  0  0  0
    1.1933   -6.4168    1.9582 C   0  0  0  0  0  0  0  0  0  0  0  0
    0.8249   -7.5816    2.8711 C   0  0  0  0  0  0  0  0  0  0  0  0
   -0.2244   -6.5684    2.4596 C   0  0  0  0  0  0  0  0  0  0  0  0
    2.1282   -5.2943    2.3218 C   0  0  0  0  0  0  0  0  0  0  0  0
    2.0647   -4.9604    3.8047 C   0  0  0  0  0  0  0  0  0  0  0  0
    2.8839   -4.6675    1.3715 C   0  0  0  0  0  0  0  0  0  0  0  0
    4.0980   -3.6755    1.4940 C   0  0  1  0  0  0  0  0  0  0  0  0
    5.3004   -4.3403    0.7201 C   0  0  0  0  0  0  0  0  0  0  0  0
    3.6866   -2.3268    0.8002 C   0  0  1  0  0  0  0  0  0  0  0  0
    4.6600   -1.1296    0.9718 C   0  0  1  0  0  0  0  0  0  0  0  0
    3.9293    0.0685    0.8665 O   0  0  0  0  0  0  0  0  0  0  0  0
    5.2348   -1.0260    2.3714 C   0  0  0  0  0  0  0  0  0  0  0  0
    5.7521   -2.3244    2.7535 N   0  0  0  0  0  0  0  0  0  0  0  0
    4.6413   -3.4249    2.9629 C   0  0  2  0  0  0  0  0  0  0  0  0
    5.3894   -4.5639    3.6762 C   0  0  0  0  0  0  0  0  0  0  0  0
    5.2034   -4.2353    5.1573 C   0  0  0  0  0  0  0  0  0  0  0  0
    4.4212   -2.9163    5.1648 C   0  0  0  0  0  0  0  0  0  0  0  0
    3.7897   -2.8383    3.8805 O   0  0  0  0  0  0  0  0  0  0  0  0
    6.0486   -1.2565   -0.1686 S   0  0  0  0  0  0  0  0  0  0  0  0
    5.0873   -1.0734   -1.6782 C   0  0  0  0  0  0  0  0  0  0  0  0
    3.0090   -0.7637   -5.2196 H   0  0  0  0  0  0  0  0  0  0  0  0
    4.3685   -0.2797   -4.2107 H   0  0  0  0  0  0  0  0  0  0  0  0
    2.7114   -0.0436   -3.6321 H   0  0  0  0  0  0  0  0  0  0  0  0
    1.4224   -3.0485   -0.2993 H   0  0  0  0  0  0  0  0  0  0  0  0
    1.8535   -3.7451   -1.8428 H   0  0  0  0  0  0  0  0  0  0  0  0
    3.3540   -5.3683   -0.6085 H   0  0  0  0  0  0  0  0  0  0  0  0
    0.3275   -5.4065   -0.3151 H   0  0  0  0  0  0  0  0  0  0  0  0
    1.4106   -6.2675   -1.2491 H   0  0  0  0  0  0  0  0  0  0  0  0
    0.6822   -8.5728    2.4519 H   0  0  0  0  0  0  0  0  0  0  0  0
    1.1730   -7.5580    3.9051 H   0  0  0  0  0  0  0  0  0  0  0  0
   -0.5731   -5.9032    3.2454 H   0  0  0  0  0  0  0  0  0  0  0  0
   -0.9629   -6.8920    1.7279 H   0  0  0  0  0  0  0  0  0  0  0  0
    1.2261   -5.4042    4.3190 H   0  0  0  0  0  0  0  0  0  0  0  0
    1.8476   -3.9012    3.9124 H   0  0  0  0  0  0  0  0  0  0  0  0
    2.9350   -5.3109    4.3414 H   0  0  0  0  0  0  0  0  0  0  0  0
    6.2783   -3.8989    0.9072 H   0  0  0  0  0  0  0  0  0  0  0  0
    5.1987   -4.2994   -0.3674 H   0  0  0  0  0  0  0  0  0  0  0  0
    5.3884   -5.3991    0.9645 H   0  0  0  0  0  0  0  0  0  0  0  0
    2.7660   -2.0176    1.3019 H   0  0  0  0  0  0  0  0  0  0  0  0
    3.1306   -0.1180    0.3973 H   0  0  0  0  0  0  0  0  0  0  0  0
    6.0438   -0.2932    2.3966 H   0  0  0  0  0  0  0  0  0  0  0  0
    4.4893   -0.6694    3.0891 H   0  0  0  0  0  0  0  0  0  0  0  0
    6.4442   -2.6390    2.0700 H   0  0  0  0  0  0  0  0  0  0  0  0
    4.9182   -5.5218    3.4455 H   0  0  0  0  0  0  0  0  0  0  0  0
    6.4225   -4.6567    3.3510 H   0  0  0  0  0  0  0  0  0  0  0  0
    4.6278   -5.0139    5.6577 H   0  0  0  0  0  0  0  0  0  0  0  0
    6.1460   -4.1689    5.6975 H   0  0  0  0  0  0  0  0  0  0  0  0
    3.7089   -2.8384    5.9860 H   0  0  0  0  0  0  0  0  0  0  0  0
    5.1182   -2.0861    5.2774 H   0  0  0  0  0  0  0  0  0  0  0  0
    5.7436   -1.3221   -2.5049 H   0  0  0  0  0  0  0  0  0  0  0  0
    4.7282   -0.0515   -1.7962 H   0  0  0  0  0  0  0  0  0  0  0  0
    6.2062   -2.1843    3.6540 H   0  0  0  0  0  0  0  0  0  0  0  0
  1  2  1  0
  1 29  1  0
  1 30  1  0
  1 31  1  0
  2  3  1  0
  3 28  1  0
  3  4  2  0
  4 17  1  0
  4  5  1  0
  5  6  1  0
  5 32  1  0
  5 33  1  0
  6 14  1  0
  6  7  1  0
  6 34  1  6
  7  8  1  0
  7 35  1  0
  7 36  1  0
  8  9  1  0
  9 11  1  0
  9 10  1  0
  9 12  1  0
 10 11  1  0
 10 37  1  0
 10 38  1  0
 11 39  1  0
 11 40  1  0
 12 13  1  0
 12 14  2  0
 13 41  1  0
 13 42  1  0
 13 43  1  0
 14 15  1  0
 15 22  1  0
 15 16  1  6
 15 17  1  0
 16 44  1  0
 16 45  1  0
 16 46  1  0
 17 18  1  0
 17 47  1  1
 18 19  1  6
 18 20  1  0
 18 27  1  0
 19 48  1  0
 20 21  1  0
 20 49  1  0
 20 50  1  0
 21 22  1  0
 21 51  1  0
 21 60  1  0
 22 26  1  1
 22 23  1  0
 23 24  1  0
 23 52  1  0
 23 53  1  0
 24 25  1  0
 24 54  1  0
 24 55  1  0
 25 26  1  0
 25 56  1  0
 25 57  1  0
 27 28  1  0
 28 58  1  0
 28 59  1  0
M  CHG  1  21   1
M  END
>  <i_m_ct_stereo_status>  (163) 
1

>  <s_m_source_file>  (163) 
/var/tmp/pbs.5076255.sched01/tmppvoazpai/72cbyqjt17.sdf

>  <i_m_source_file_index>  (163) 
2

>  <i_lp_mmshare_version>  (163) 
48012

>  <i_f3d_flags>  (163) 
0

>  <s_epik_input>  (163) 
W0NIM11TQyhbQ0gyXVMxKT1DKFtDSDJdMilbQ0BASF0zW0NAQF0xKFtPSF0pW0NIMl1bTkhdW0NAXTQoW0NIMl1bQ0gyXVtDSDJdTzQpW0NAQF0zKFtDSDNdKUMoPUM1W0NIM10pW0NASF0yW0NIMl1PQzU2W0NIMl1bQ0gyXTY=

>  <s_epik_cmdline>  (163) 
J2VwaWtfcHl0aG9uJywgJy1waHQnLCAnMi4wJywgJy1waCcsICc3LjAnLCAnLXRuJywgJzgnLCAnLW1hJywgJzIwMCcsICctaW1hZScsICc8aW5maWxlLm1hZT4nLCAnLW9tYWUnLCAnPG91dGZpbGUubWFlPic=

>  <r_epik_Ionization_Penalty>  (163) 
0.880125

>  <r_epik_Ionization_Penalty_Charging>  (163) 
0.879979

>  <r_epik_Ionization_Penalty_Neutral>  (163) 
0.000146391

>  <r_epik_State_Penalty>  (163) 
0.918094

>  <r_epik_Charging_Adjusted_Penalty>  (163) 
1.79807

>  <i_epik_Tot_Q>  (163) 
1

>  <i_epik_Tot_abs_Q>  (163) 
1

>  <s_lp_Force_Field>  (163) 
OPLS3e

>  <r_lp_Energy>  (163) 
50.5133

>  <b_lp_Chiralities_Consistent>  (163) 
1

>  <s_lp_Variant>  (163) 
58:0-2

>  <s_i_glide_gridfile>  (163) 
pfpi4k_grid

>  <i_i_glide_lignum>  (163) 
2

>  <i_i_glide_rotatable_bonds>  (163) 
2

>  <r_i_docking_score>  (163) 
-2.32741

>  <r_i_glide_ligand_efficiency>  (163) 
-0.0831218

>  <r_i_glide_ligand_efficiency_sa>  (163) 
-0.252407

>  <r_i_glide_ligand_efficiency_ln>  (163) 
-0.537234

>  <r_i_glide_gscore>  (163) 
-2.32741

>  <r_i_glide_lipo>  (163) 
-0.631921

>  <r_i_glide_hbond>  (163) 
0

>  <r_i_glide_metal>  (163) 
-0

>  <r_i_glide_rewards>  (163) 
-0.561707

>  <r_i_glide_evdw>  (163) 
-20.6328

>  <r_i_glide_ecoul>  (163) 
-0.680955

>  <r_i_glide_erotb>  (163) 
0

>  <r_i_glide_esite>  (163) 
0

>  <r_i_glide_emodel>  (163) 
-20.5281

>  <r_i_glide_energy>  (163) 
-21.3137

>  <r_i_glide_einternal>  (163) 
0.221848

>  <r_i_glide_intrahb_reward>  (163) 
-0

>  <i_i_glide_confnum>  (163) 
4

>  <i_i_glide_posenum>  (163) 
11

>  <r_i_glide_eff_state_penalty>  (163) 
0

>  <ligand_id>  (163) 
58

>  <original_smiles>  (163) 
CSC1=C2CC3COC4(CC4)C(C)=C3C3(C)C2C(O)(CNC32CCCO2)SC1

>  <smiles>  (163) 
[H]OC12SC([H])([H])C(SC([H])([H])[H])=C3C([H])([H])C4([H])C(=C(C([H])([H])[H])C5(OC4([H])[H])C([H])([H])C5([H])[H])C(C([H])([H])[H])(C31[H])C1(OC([H])([H])C([H])([H])C1([H])[H])[N+]([H])([H])C2([H])[H]

$$$$
58:1:2
     RDKit          3D

 60 65  0  0  1  0  0  0  0  0999 V2000
    3.0110   -1.0042   -4.1285 C   0  0  0  0  0  0  0  0  0  0  0  0
    2.8741   -2.7102   -3.5258 S   0  0  0  0  0  0  0  0  0  0  0  0
    3.8370   -2.6835   -2.0425 C   0  0  0  0  0  0  0  0  0  0  0  0
    3.3582   -3.1576   -0.8548 C   0  0  0  0  0  0  0  0  0  0  0  0
    1.9906   -3.8046   -0.7077 C   0  0  0  0  0  0  0  0  0  0  0  0
    2.1226   -5.2500   -0.1247 C   0  0  2  0  0  0  0  0  0  0  0  0
    0.7487   -5.9619   -0.0491 C   0  0  0  0  0  0  0  0  0  0  0  0
    0.7885   -7.1035    0.7493 O   0  0  0  0  0  0  0  0  0  0  0  0
    0.9820   -6.6560    2.0635 C   0  0  0  0  0  0  0  0  0  0  0  0
    0.4769   -7.7388    2.9813 C   0  0  0  0  0  0  0  0  0  0  0  0
   -0.3130   -6.4488    2.8110 C   0  0  0  0  0  0  0  0  0  0  0  0
    2.2139   -5.8225    2.2570 C   0  0  0  0  0  0  0  0  0  0  0  0
    2.5566   -5.6488    3.6998 C   0  0  0  0  0  0  0  0  0  0  0  0
    2.8702   -5.2513    1.2007 C   0  0  0  0  0  0  0  0  0  0  0  0
    4.3125   -4.6498    1.0017 C   0  0  1  0  0  0  0  0  0  0  0  0
    5.0696   -5.5274   -0.0775 C   0  0  0  0  0  0  0  0  0  0  0  0
    4.1332   -3.1762    0.4771 C   0  0  1  0  0  0  0  0  0  0  0  0
    5.4079   -2.2938    0.4260 C   0  0  1  0  0  0  0  0  0  0  0  0
    5.0056   -0.9413    0.5157 O   0  0  0  0  0  0  0  0  0  0  0  0
    6.2744   -2.5189    1.6494 C   0  0  0  0  0  0  0  0  0  0  0  0
    6.5279   -3.9381    1.8331 N   0  0  0  0  0  0  0  0  0  0  0  0
    5.2150   -4.7186    2.2921 C   0  0  2  0  0  0  0  0  0  0  0  0
    5.7573   -6.0886    2.7526 C   0  0  0  0  0  0  0  0  0  0  0  0
    5.9695   -5.8896    4.2579 C   0  0  0  0  0  0  0  0  0  0  0  0
    5.5221   -4.4506    4.5312 C   0  0  0  0  0  0  0  0  0  0  0  0
    4.7507   -4.0332    3.3926 O   0  0  0  0  0  0  0  0  0  0  0  0
    6.4274   -2.6406   -1.0288 S   0  0  0  0  0  0  0  0  0  0  0  0
    5.2143   -2.0926   -2.2380 C   0  0  0  0  0  0  0  0  0  0  0  0
    2.4262   -0.8468   -5.0298 H   0  0  0  0  0  0  0  0  0  0  0  0
    4.0406   -0.7314   -4.3549 H   0  0  0  0  0  0  0  0  0  0  0  0
    2.6214   -0.3314   -3.3659 H   0  0  0  0  0  0  0  0  0  0  0  0
    1.4502   -3.1281   -0.0346 H   0  0  0  0  0  0  0  0  0  0  0  0
    1.4047   -3.8117   -1.6311 H   0  0  0  0  0  0  0  0  0  0  0  0
    2.7362   -5.8298   -0.7091 H   0  0  0  0  0  0  0  0  0  0  0  0
   -0.2173   -5.4693    0.1171 H   0  0  0  0  0  0  0  0  0  0  0  0
    0.7117   -6.1710   -1.0718 H   0  0  0  0  0  0  0  0  0  0  0  0
    0.0015   -8.6226    2.5743 H   0  0  0  0  0  0  0  0  0  0  0  0
    1.0660   -7.9083    3.8710 H   0  0  0  0  0  0  0  0  0  0  0  0
   -0.2553   -5.6801    3.5805 H   0  0  0  0  0  0  0  0  0  0  0  0
   -1.2676   -6.5744    2.3138 H   0  0  0  0  0  0  0  0  0  0  0  0
    1.7479   -5.9086    4.3579 H   0  0  0  0  0  0  0  0  0  0  0  0
    2.6488   -4.5855    3.8593 H   0  0  0  0  0  0  0  0  0  0  0  0
    3.3895   -6.2649    3.9750 H   0  0  0  0  0  0  0  0  0  0  0  0
    6.1482   -5.3729   -0.1283 H   0  0  0  0  0  0  0  0  0  0  0  0
    4.7430   -5.3495   -1.1063 H   0  0  0  0  0  0  0  0  0  0  0  0
    4.9264   -6.5980    0.0777 H   0  0  0  0  0  0  0  0  0  0  0  0
    3.4665   -2.7185    1.2079 H   0  0  0  0  0  0  0  0  0  0  0  0
    4.0872   -0.8765    0.3263 H   0  0  0  0  0  0  0  0  0  0  0  0
    7.2094   -1.9764    1.5020 H   0  0  0  0  0  0  0  0  0  0  0  0
    5.8416   -2.0610    2.5410 H   0  0  0  0  0  0  0  0  0  0  0  0
    6.9621   -4.3429    1.0186 H   0  0  0  0  0  0  0  0  0  0  0  0
    4.9893   -6.8523    2.6008 H   0  0  0  0  0  0  0  0  0  0  0  0
    6.6402   -6.4118    2.2061 H   0  0  0  0  0  0  0  0  0  0  0  0
    5.3392   -6.5541    4.8448 H   0  0  0  0  0  0  0  0  0  0  0  0
    7.0034   -6.0925    4.5573 H   0  0  0  0  0  0  0  0  0  0  0  0
    5.0648   -4.2740    5.4978 H   0  0  0  0  0  0  0  0  0  0  0  0
    6.3974   -3.8499    4.6166 H   0  0  0  0  0  0  0  0  0  0  0  0
    5.5752   -2.3934   -3.2180 H   0  0  0  0  0  0  0  0  0  0  0  0
    5.1383   -1.0051   -2.2327 H   0  0  0  0  0  0  0  0  0  0  0  0
    7.1794   -4.0038    2.6075 H   0  0  0  0  0  0  0  0  0  0  0  0
  1  2  1  0
  1 29  1  0
  1 30  1  0
  1 31  1  0
  2  3  1  0
  3 28  1  0
  3  4  2  0
  4 17  1  0
  4  5  1  0
  5  6  1  0
  5 32  1  0
  5 33  1  0
  6 14  1  0
  6  7  1  0
  6 34  1  6
  7  8  1  0
  7 35  1  0
  7 36  1  0
  8  9  1  0
  9 11  1  0
  9 10  1  0
  9 12  1  0
 10 11  1  0
 10 37  1  0
 10 38  1  0
 11 39  1  0
 11 40  1  0
 12 13  1  0
 12 14  2  0
 13 41  1  0
 13 42  1  0
 13 43  1  0
 14 15  1  0
 15 22  1  0
 15 16  1  6
 15 17  1  0
 16 44  1  0
 16 45  1  0
 16 46  1  0
 17 18  1  0
 17 47  1  1
 18 19  1  6
 18 20  1  0
 18 27  1  0
 19 48  1  0
 20 21  1  0
 20 49  1  0
 20 50  1  0
 21 22  1  0
 21 51  1  0
 21 60  1  0
 22 26  1  1
 22 23  1  0
 23 24  1  0
 23 52  1  0
 23 53  1  0
 24 25  1  0
 24 54  1  0
 24 55  1  0
 25 26  1  0
 25 56  1  0
 25 57  1  0
 27 28  1  0
 28 58  1  0
 28 59  1  0
M  CHG  1  21   1
M  END
>  <i_m_ct_stereo_status>  (164) 
1

>  <s_m_source_file>  (164) 
/var/tmp/pbs.5076255.sched01/tmppvoazpai/72cbyqjt17.sdf

>  <i_m_source_file_index>  (164) 
2

>  <i_lp_mmshare_version>  (164) 
48012

>  <i_f3d_flags>  (164) 
0

>  <s_epik_input>  (164) 
W0NIM11TQyhbQ0gyXVMxKT1DKFtDSDJdMilbQ0BASF0zW0NAQF0xKFtPSF0pW0NIMl1bTkhdW0NAXTQoW0NIMl1bQ0gyXVtDSDJdTzQpW0NAQF0zKFtDSDNdKUMoPUM1W0NIM10pW0NASF0yW0NIMl1PQzU2W0NIMl1bQ0gyXTY=

>  <s_epik_cmdline>  (164) 
J2VwaWtfcHl0aG9uJywgJy1waHQnLCAnMi4wJywgJy1waCcsICc3LjAnLCAnLXRuJywgJzgnLCAnLW1hJywgJzIwMCcsICctaW1hZScsICc8aW5maWxlLm1hZT4nLCAnLW9tYWUnLCAnPG91dGZpbGUubWFlPic=

>  <r_epik_Ionization_Penalty>  (164) 
0.880125

>  <r_epik_Ionization_Penalty_Charging>  (164) 
0.879979

>  <r_epik_Ionization_Penalty_Neutral>  (164) 
0.000146391

>  <r_epik_State_Penalty>  (164) 
0.918094

>  <r_epik_Charging_Adjusted_Penalty>  (164) 
1.79807

>  <i_epik_Tot_Q>  (164) 
1

>  <i_epik_Tot_abs_Q>  (164) 
1

>  <s_lp_Force_Field>  (164) 
OPLS3e

>  <r_lp_Energy>  (164) 
50.5133

>  <b_lp_Chiralities_Consistent>  (164) 
1

>  <s_lp_Variant>  (164) 
58:0-2

>  <s_i_glide_gridfile>  (164) 
pfpi4k_grid

>  <i_i_glide_lignum>  (164) 
2

>  <i_i_glide_rotatable_bonds>  (164) 
2

>  <r_i_docking_score>  (164) 
-1.55185

>  <r_i_glide_ligand_efficiency>  (164) 
-0.0554234

>  <r_i_glide_ligand_efficiency_sa>  (164) 
-0.168298

>  <r_i_glide_ligand_efficiency_ln>  (164) 
-0.358214

>  <r_i_glide_gscore>  (164) 
-1.55185

>  <r_i_glide_lipo>  (164) 
-0.541801

>  <r_i_glide_hbond>  (164) 
0

>  <r_i_glide_metal>  (164) 
-0

>  <r_i_glide_rewards>  (164) 
-0.555391

>  <r_i_glide_evdw>  (164) 
-13.9669

>  <r_i_glide_ecoul>  (164) 
1.62456

>  <r_i_glide_erotb>  (164) 
0

>  <r_i_glide_esite>  (164) 
0

>  <r_i_glide_emodel>  (164) 
-10.4227

>  <r_i_glide_energy>  (164) 
-12.3424

>  <r_i_glide_einternal>  (164) 
0.333559

>  <r_i_glide_intrahb_reward>  (164) 
-0

>  <i_i_glide_confnum>  (164) 
4

>  <i_i_glide_posenum>  (164) 
32

>  <r_i_glide_eff_state_penalty>  (164) 
0

>  <ligand_id>  (164) 
58

>  <original_smiles>  (164) 
CSC1=C2CC3COC4(CC4)C(C)=C3C3(C)C2C(O)(CNC32CCCO2)SC1

>  <smiles>  (164) 
[H]OC12SC([H])([H])C(SC([H])([H])[H])=C3C([H])([H])C4([H])C(=C(C([H])([H])[H])C5(OC4([H])[H])C([H])([H])C5([H])[H])C(C([H])([H])[H])(C31[H])C1(OC([H])([H])C([H])([H])C1([H])[H])[N+]([H])([H])C2([H])[H]

$$$$
60:0:0
     RDKit          3D

 51 54  0  0  1  0  0  0  0  0999 V2000
    9.9498   -2.4560    0.7213 C   0  0  0  0  0  0  0  0  0  0  0  0
    8.6847   -2.3242   -0.0920 C   0  0  0  0  0  0  0  0  0  0  0  0
    7.6618   -1.6626    0.6388 O   0  0  0  0  0  0  0  0  0  0  0  0
    6.4096   -1.5288   -0.0373 C   0  0  0  0  0  0  0  0  0  0  0  0
    5.1964   -2.3133    0.6712 C   0  0  1  0  0  0  0  0  0  0  0  0
    5.0723   -1.4425    2.0185 C   0  0  1  0  0  0  0  0  0  0  0  0
    4.8109   -0.0464    1.8025 O   0  0  0  0  0  0  0  0  0  0  0  0
    3.6297    0.3010    1.0983 C   0  0  0  0  0  0  0  0  0  0  0  0
    4.0357   -1.9927    3.0020 C   0  0  0  0  0  0  0  0  0  0  0  0
    3.3732   -3.1050    2.2243 C   0  0  1  0  0  0  0  0  0  0  0  0
    2.9007   -2.3049    1.0554 O   0  0  0  0  0  0  0  0  0  0  0  0
    3.7401   -2.6253   -0.0459 C   0  0  2  0  0  0  0  0  0  0  0  0
    2.8799   -3.9340   -0.3529 C   0  0  0  0  0  0  0  0  0  0  0  0
    2.8676   -5.1489    0.1906 C   0  0  0  0  0  0  0  0  0  0  0  0
    3.7144   -5.4752    1.3171 C   0  0  0  0  0  0  0  0  0  0  0  0
    3.8309   -6.5982    1.7931 O   0  0  0  0  0  0  0  0  0  0  0  0
    4.4742   -4.2685    1.8990 C   0  0  2  0  0  0  0  0  0  0  0  0
    5.1805   -4.7410    3.2094 C   0  0  0  0  0  0  0  0  0  0  0  0
    5.5816   -3.7383    0.8663 C   0  0  1  0  0  0  0  0  0  0  0  0
    5.7256   -4.2744   -0.6521 C   0  0  0  0  0  0  0  0  0  0  0  0
    5.0477   -3.4610   -1.8762 C   0  0  0  0  0  0  0  0  0  0  0  0
    4.0731   -2.2418   -1.5056 C   0  0  1  0  0  0  0  0  0  0  0  0
    2.9988   -2.0153   -2.5983 C   0  0  0  0  0  0  0  0  0  0  0  0
   10.6465   -2.9916    0.0975 H   0  0  0  0  0  0  0  0  0  0  0  0
    9.8165   -3.0491    1.6231 H   0  0  0  0  0  0  0  0  0  0  0  0
   10.3690   -1.4825    0.9597 H   0  0  0  0  0  0  0  0  0  0  0  0
    8.8760   -1.8362   -1.0478 H   0  0  0  0  0  0  0  0  0  0  0  0
    8.4325   -3.3564   -0.3132 H   0  0  0  0  0  0  0  0  0  0  0  0
    6.2051   -0.4598   -0.0529 H   0  0  0  0  0  0  0  0  0  0  0  0
    6.5824   -1.7392   -1.0874 H   0  0  0  0  0  0  0  0  0  0  0  0
    6.0280   -1.4822    2.5384 H   0  0  0  0  0  0  0  0  0  0  0  0
    3.5767    1.3473    0.9741 H   0  0  0  0  0  0  0  0  0  0  0  0
    2.7029    0.0500    1.5949 H   0  0  0  0  0  0  0  0  0  0  0  0
    3.6191   -0.0600    0.0842 H   0  0  0  0  0  0  0  0  0  0  0  0
    4.4784   -2.3163    3.9504 H   0  0  0  0  0  0  0  0  0  0  0  0
    3.2914   -1.2451    3.2919 H   0  0  0  0  0  0  0  0  0  0  0  0
    2.5352   -3.4974    2.7918 H   0  0  0  0  0  0  0  0  0  0  0  0
    2.1384   -3.7787   -1.0939 H   0  0  0  0  0  0  0  0  0  0  0  0
    2.1678   -5.9000   -0.1766 H   0  0  0  0  0  0  0  0  0  0  0  0
    5.8129   -3.9764    3.6641 H   0  0  0  0  0  0  0  0  0  0  0  0
    5.8374   -5.5950    3.0251 H   0  0  0  0  0  0  0  0  0  0  0  0
    4.4506   -5.0539    3.9610 H   0  0  0  0  0  0  0  0  0  0  0  0
    6.5483   -3.8102    1.3549 H   0  0  0  0  0  0  0  0  0  0  0  0
    6.7830   -4.2585   -0.9048 H   0  0  0  0  0  0  0  0  0  0  0  0
    5.4671   -5.3296   -0.7159 H   0  0  0  0  0  0  0  0  0  0  0  0
    5.8272   -3.1100   -2.5365 H   0  0  0  0  0  0  0  0  0  0  0  0
    4.5051   -4.1893   -2.4900 H   0  0  0  0  0  0  0  0  0  0  0  0
    4.5781   -1.2738   -1.5415 H   0  0  0  0  0  0  0  0  0  0  0  0
    2.5094   -2.9331   -2.9382 H   0  0  0  0  0  0  0  0  0  0  0  0
    3.4497   -1.5621   -3.4820 H   0  0  0  0  0  0  0  0  0  0  0  0
    2.2192   -1.3130   -2.2852 H   0  0  0  0  0  0  0  0  0  0  0  0
  1  2  1  0
  1 24  1  0
  1 25  1  0
  1 26  1  0
  2  3  1  0
  2 27  1  0
  2 28  1  0
  3  4  1  0
  5  4  1  6
  4 29  1  0
  4 30  1  0
  5 12  1  0
  5 19  1  0
  5  6  1  0
  6  7  1  0
  6  9  1  0
  6 31  1  1
  7  8  1  0
  8 32  1  0
  8 33  1  0
  8 34  1  0
  9 10  1  0
  9 35  1  0
  9 36  1  0
 10 17  1  0
 10 11  1  0
 10 37  1  1
 11 12  1  0
 12 22  1  0
 12 13  1  6
 13 14  2  0
 13 38  1  0
 14 15  1  0
 14 39  1  0
 15 16  2  0
 15 17  1  0
 17 18  1  1
 17 19  1  0
 18 40  1  0
 18 41  1  0
 18 42  1  0
 19 20  1  0
 19 43  1  1
 20 21  1  0
 20 44  1  0
 20 45  1  0
 21 22  1  0
 21 46  1  0
 21 47  1  0
 22 23  1  0
 22 48  1  1
 23 49  1  0
 23 50  1  0
 23 51  1  0
M  END
>  <i_m_ct_stereo_status>  (165) 
1

>  <s_m_source_file>  (165) 
/var/tmp/pbs.5076255.sched01/tmppvoazpai/72cbyqjt17.sdf

>  <i_m_source_file_index>  (165) 
4

>  <i_lp_mmshare_version>  (165) 
48012

>  <i_f3d_flags>  (165) 
2

>  <s_epik_input>  (165) 
W0NIM11bQ0gyXU9bQ0gyXVtDQEBdMShDMjM0KVtDQEhdKFtDSDJdW0NIMl1bQ0BIXTRbQ0gzXSlbQ0BdKFtDSDNdKShDKD1PKVtDSF09W0NIXTMpW0NASF0oTzIpW0NIMl1bQ0BASF0xT1tDSDNd

>  <s_epik_cmdline>  (165) 
J2VwaWtfcHl0aG9uJywgJy1waHQnLCAnMi4wJywgJy1waCcsICc3LjAnLCAnLXRuJywgJzgnLCAnLW1hJywgJzIwMCcsICctaW1hZScsICc8aW5maWxlLm1hZT4nLCAnLW9tYWUnLCAnPG91dGZpbGUubWFlPic=

>  <r_lp_tautomer_probability>  (165) 
1

>  <r_epik_Ionization_Penalty>  (165) 
4.96725e-12

>  <r_epik_Ionization_Penalty_Charging>  (165) 
0

>  <r_epik_Ionization_Penalty_Neutral>  (165) 
4.96725e-12

>  <r_epik_State_Penalty>  (165) 
-0

>  <r_epik_Charging_Adjusted_Penalty>  (165) 
0

>  <i_epik_Tot_Q>  (165) 
0

>  <i_epik_Tot_abs_Q>  (165) 
0

>  <s_lp_Force_Field>  (165) 
OPLS3e

>  <r_lp_Energy>  (165) 
166.593

>  <b_lp_Chiralities_Consistent>  (165) 
0

>  <s_lp_Variant>  (165) 
60:0-1

>  <s_i_glide_gridfile>  (165) 
pfpi4k_grid

>  <i_i_glide_lignum>  (165) 
4

>  <i_i_glide_rotatable_bonds>  (165) 
4

>  <r_i_docking_score>  (165) 
-2.20475

>  <r_i_glide_ligand_efficiency>  (165) 
-0.0958585

>  <r_i_glide_ligand_efficiency_sa>  (165) 
-0.272609

>  <r_i_glide_ligand_efficiency_ln>  (165) 
-0.533128

>  <r_i_glide_gscore>  (165) 
-2.20475

>  <r_i_glide_lipo>  (165) 
-0.353285

>  <r_i_glide_hbond>  (165) 
-0.113429

>  <r_i_glide_metal>  (165) 
-0

>  <r_i_glide_rewards>  (165) 
-1.25208

>  <r_i_glide_evdw>  (165) 
-18.807

>  <r_i_glide_ecoul>  (165) 
0.604396

>  <r_i_glide_erotb>  (165) 
0.363735

>  <r_i_glide_esite>  (165) 
0

>  <r_i_glide_emodel>  (165) 
-14.3262

>  <r_i_glide_energy>  (165) 
-18.2026

>  <r_i_glide_einternal>  (165) 
8.71072

>  <r_i_glide_intrahb_reward>  (165) 
-0

>  <i_i_glide_confnum>  (165) 
2

>  <i_i_glide_posenum>  (165) 
16

>  <r_i_glide_eff_state_penalty>  (165) 
0

>  <ligand_id>  (165) 
60

>  <original_smiles>  (165) 
CCOCC12C(OC)CC3OC14C=CC(=O)C3(C)C2CCC4C

>  <smiles>  (165) 
[H]C1=C([H])C23OC4([H])C([H])([H])C([H])(OC([H])([H])[H])C2(C([H])([H])OC([H])([H])C([H])([H])[H])C([H])(C([H])([H])C([H])([H])C3([H])C([H])([H])[H])C4(C([H])([H])[H])C1=O

$$$$
60:0:1
     RDKit          3D

 51 54  0  0  1  0  0  0  0  0999 V2000
    8.4345   -3.4144   -1.3412 C   0  0  0  0  0  0  0  0  0  0  0  0
    8.1152   -3.7994    0.1329 C   0  0  0  0  0  0  0  0  0  0  0  0
    7.4888   -2.7190    0.8697 O   0  0  0  0  0  0  0  0  0  0  0  0
    6.3329   -2.0716    0.2932 C   0  0  0  0  0  0  0  0  0  0  0  0
    4.9481   -2.6893    0.7937 C   0  0  1  0  0  0  0  0  0  0  0  0
    4.9255   -2.1384    2.2994 C   0  0  1  0  0  0  0  0  0  0  0  0
    4.9166   -0.7090    2.3097 O   0  0  0  0  0  0  0  0  0  0  0  0
    5.2341   -0.1160    3.5624 C   0  0  0  0  0  0  0  0  0  0  0  0
    3.6858   -2.5661    3.0946 C   0  0  0  0  0  0  0  0  0  0  0  0
    2.8623   -3.2999    2.0827 C   0  0  1  0  0  0  0  0  0  0  0  0
    2.7264   -2.1509    1.1255 O   0  0  0  0  0  0  0  0  0  0  0  0
    3.4996   -2.4795   -0.0088 C   0  0  2  0  0  0  0  0  0  0  0  0
    2.4238   -3.4861   -0.5878 C   0  0  0  0  0  0  0  0  0  0  0  0
    2.1040   -4.7719   -0.3676 C   0  0  0  0  0  0  0  0  0  0  0  0
    2.7649   -5.4677    0.7427 C   0  0  0  0  0  0  0  0  0  0  0  0
    2.5614   -6.6583    0.9878 O   0  0  0  0  0  0  0  0  0  0  0  0
    3.6975   -4.6125    1.5759 C   0  0  2  0  0  0  0  0  0  0  0  0
    4.1885   -5.4997    2.7641 C   0  0  0  0  0  0  0  0  0  0  0  0
    4.9554   -4.1791    0.6911 C   0  0  1  0  0  0  0  0  0  0  0  0
    5.1008   -4.4467   -0.9056 C   0  0  0  0  0  0  0  0  0  0  0  0
    4.6855   -3.2801   -1.9505 C   0  0  0  0  0  0  0  0  0  0  0  0
    4.0174   -1.9421   -1.3754 C   0  0  1  0  0  0  0  0  0  0  0  0
    3.0970   -1.3131   -2.4367 C   0  0  0  0  0  0  0  0  0  0  0  0
    8.8723   -4.2511   -1.8823 H   0  0  0  0  0  0  0  0  0  0  0  0
    9.1447   -2.5704   -1.3667 H   0  0  0  0  0  0  0  0  0  0  0  0
    7.5735   -3.0920   -1.9244 H   0  0  0  0  0  0  0  0  0  0  0  0
    7.5336   -4.7156    0.2076 H   0  0  0  0  0  0  0  0  0  0  0  0
    9.0549   -4.0292    0.6520 H   0  0  0  0  0  0  0  0  0  0  0  0
    6.3977   -1.0287    0.6337 H   0  0  0  0  0  0  0  0  0  0  0  0
    6.4775   -1.9715   -0.7616 H   0  0  0  0  0  0  0  0  0  0  0  0
    5.8144   -2.4870    2.8190 H   0  0  0  0  0  0  0  0  0  0  0  0
    5.2165    0.9541    3.4503 H   0  0  0  0  0  0  0  0  0  0  0  0
    6.2248   -0.3875    3.9202 H   0  0  0  0  0  0  0  0  0  0  0  0
    4.4980   -0.3376    4.3320 H   0  0  0  0  0  0  0  0  0  0  0  0
    3.9424   -3.1489    3.9798 H   0  0  0  0  0  0  0  0  0  0  0  0
    3.0713   -1.7190    3.4089 H   0  0  0  0  0  0  0  0  0  0  0  0
    1.9095   -3.6064    2.5259 H   0  0  0  0  0  0  0  0  0  0  0  0
    1.7744   -3.0558   -1.3523 H   0  0  0  0  0  0  0  0  0  0  0  0
    1.3099   -5.2548   -0.8987 H   0  0  0  0  0  0  0  0  0  0  0  0
    4.9455   -5.0111    3.3867 H   0  0  0  0  0  0  0  0  0  0  0  0
    4.6594   -6.4265    2.4222 H   0  0  0  0  0  0  0  0  0  0  0  0
    3.3674   -5.7984    3.4209 H   0  0  0  0  0  0  0  0  0  0  0  0
    5.8244   -4.5794    1.2149 H   0  0  0  0  0  0  0  0  0  0  0  0
    6.1258   -4.6718   -1.1246 H   0  0  0  0  0  0  0  0  0  0  0  0
    4.6025   -5.3828   -1.1780 H   0  0  0  0  0  0  0  0  0  0  0  0
    5.5399   -2.9869   -2.5573 H   0  0  0  0  0  0  0  0  0  0  0  0
    4.0422   -3.7365   -2.7169 H   0  0  0  0  0  0  0  0  0  0  0  0
    4.6782   -1.0981   -1.2005 H   0  0  0  0  0  0  0  0  0  0  0  0
    2.4535   -2.0152   -2.9686 H   0  0  0  0  0  0  0  0  0  0  0  0
    3.6922   -0.7976   -3.1932 H   0  0  0  0  0  0  0  0  0  0  0  0
    2.4879   -0.5580   -1.9757 H   0  0  0  0  0  0  0  0  0  0  0  0
  1  2  1  0
  1 24  1  0
  1 25  1  0
  1 26  1  0
  2  3  1  0
  2 27  1  0
  2 28  1  0
  3  4  1  0
  5  4  1  6
  4 29  1  0
  4 30  1  0
  5 12  1  0
  5 19  1  0
  5  6  1  0
  6  7  1  0
  6  9  1  0
  6 31  1  1
  7  8  1  0
  8 32  1  0
  8 33  1  0
  8 34  1  0
  9 10  1  0
  9 35  1  0
  9 36  1  0
 10 17  1  0
 10 11  1  0
 10 37  1  1
 11 12  1  0
 12 22  1  0
 12 13  1  6
 13 14  2  0
 13 38  1  0
 14 15  1  0
 14 39  1  0
 15 16  2  0
 15 17  1  0
 17 18  1  1
 17 19  1  0
 18 40  1  0
 18 41  1  0
 18 42  1  0
 19 20  1  0
 19 43  1  1
 20 21  1  0
 20 44  1  0
 20 45  1  0
 21 22  1  0
 21 46  1  0
 21 47  1  0
 22 23  1  0
 22 48  1  1
 23 49  1  0
 23 50  1  0
 23 51  1  0
M  END
>  <i_m_ct_stereo_status>  (166) 
1

>  <s_m_source_file>  (166) 
/var/tmp/pbs.5076255.sched01/tmppvoazpai/72cbyqjt17.sdf

>  <i_m_source_file_index>  (166) 
4

>  <i_lp_mmshare_version>  (166) 
48012

>  <i_f3d_flags>  (166) 
2

>  <s_epik_input>  (166) 
W0NIM11bQ0gyXU9bQ0gyXVtDQEBdMShDMjM0KVtDQEhdKFtDSDJdW0NIMl1bQ0BIXTRbQ0gzXSlbQ0BdKFtDSDNdKShDKD1PKVtDSF09W0NIXTMpW0NASF0oTzIpW0NIMl1bQ0BASF0xT1tDSDNd

>  <s_epik_cmdline>  (166) 
J2VwaWtfcHl0aG9uJywgJy1waHQnLCAnMi4wJywgJy1waCcsICc3LjAnLCAnLXRuJywgJzgnLCAnLW1hJywgJzIwMCcsICctaW1hZScsICc8aW5maWxlLm1hZT4nLCAnLW9tYWUnLCAnPG91dGZpbGUubWFlPic=

>  <r_lp_tautomer_probability>  (166) 
1

>  <r_epik_Ionization_Penalty>  (166) 
4.96725e-12

>  <r_epik_Ionization_Penalty_Charging>  (166) 
0

>  <r_epik_Ionization_Penalty_Neutral>  (166) 
4.96725e-12

>  <r_epik_State_Penalty>  (166) 
-0

>  <r_epik_Charging_Adjusted_Penalty>  (166) 
0

>  <i_epik_Tot_Q>  (166) 
0

>  <i_epik_Tot_abs_Q>  (166) 
0

>  <s_lp_Force_Field>  (166) 
OPLS3e

>  <r_lp_Energy>  (166) 
166.593

>  <b_lp_Chiralities_Consistent>  (166) 
0

>  <s_lp_Variant>  (166) 
60:0-1

>  <s_i_glide_gridfile>  (166) 
pfpi4k_grid

>  <i_i_glide_lignum>  (166) 
4

>  <i_i_glide_rotatable_bonds>  (166) 
4

>  <r_i_docking_score>  (166) 
-2.04061

>  <r_i_glide_ligand_efficiency>  (166) 
-0.0887222

>  <r_i_glide_ligand_efficiency_sa>  (166) 
-0.252314

>  <r_i_glide_ligand_efficiency_ln>  (166) 
-0.493438

>  <r_i_glide_gscore>  (166) 
-2.04061

>  <r_i_glide_lipo>  (166) 
-0.531713

>  <r_i_glide_hbond>  (166) 
0

>  <r_i_glide_metal>  (166) 
-0

>  <r_i_glide_rewards>  (166) 
-1.22439

>  <r_i_glide_evdw>  (166) 
-13.5594

>  <r_i_glide_ecoul>  (166) 
0.396744

>  <r_i_glide_erotb>  (166) 
0.363735

>  <r_i_glide_esite>  (166) 
-0.0297883

>  <r_i_glide_emodel>  (166) 
-11.1245

>  <r_i_glide_energy>  (166) 
-13.1627

>  <r_i_glide_einternal>  (166) 
3.99224

>  <r_i_glide_intrahb_reward>  (166) 
-0

>  <i_i_glide_confnum>  (166) 
4

>  <i_i_glide_posenum>  (166) 
27

>  <r_i_glide_eff_state_penalty>  (166) 
0

>  <ligand_id>  (166) 
60

>  <original_smiles>  (166) 
CCOCC12C(OC)CC3OC14C=CC(=O)C3(C)C2CCC4C

>  <smiles>  (166) 
[H]C1=C([H])C23OC4([H])C([H])([H])C([H])(OC([H])([H])[H])C2(C([H])([H])OC([H])([H])C([H])([H])[H])C([H])(C([H])([H])C([H])([H])C3([H])C([H])([H])[H])C4(C([H])([H])[H])C1=O

$$$$
60:0:2
     RDKit          3D

 51 54  0  0  1  0  0  0  0  0999 V2000
    9.1620   -3.8557    0.8812 C   0  0  0  0  0  0  0  0  0  0  0  0
    8.1887   -3.1736   -0.0339 C   0  0  0  0  0  0  0  0  0  0  0  0
    7.6078   -1.9806    0.5160 O   0  0  0  0  0  0  0  0  0  0  0  0
    6.3600   -1.5768   -0.0547 C   0  0  0  0  0  0  0  0  0  0  0  0
    5.0683   -2.3178    0.5610 C   0  0  1  0  0  0  0  0  0  0  0  0
    5.0109   -1.5928    1.9807 C   0  0  1  0  0  0  0  0  0  0  0  0
    4.8789   -0.1702    1.8781 O   0  0  0  0  0  0  0  0  0  0  0  0
    3.7871    0.2535    1.0968 C   0  0  0  0  0  0  0  0  0  0  0  0
    3.8858   -2.1070    2.8765 C   0  0  0  0  0  0  0  0  0  0  0  0
    3.1479   -3.1044    2.0117 C   0  0  1  0  0  0  0  0  0  0  0  0
    2.7537   -2.1957    0.9065 O   0  0  0  0  0  0  0  0  0  0  0  0
    3.6035   -2.4206   -0.2130 C   0  0  2  0  0  0  0  0  0  0  0  0
    2.6616   -3.5842   -0.6475 C   0  0  0  0  0  0  0  0  0  0  0  0
    2.5201   -4.8339   -0.2211 C   0  0  0  0  0  0  0  0  0  0  0  0
    3.2994   -5.3557    0.8609 C   0  0  0  0  0  0  0  0  0  0  0  0
    3.2647   -6.5388    1.1822 O   0  0  0  0  0  0  0  0  0  0  0  0
    4.1297   -4.3187    1.5942 C   0  0  2  0  0  0  0  0  0  0  0  0
    4.7844   -5.0006    2.8440 C   0  0  0  0  0  0  0  0  0  0  0  0
    5.2642   -3.7888    0.6195 C   0  0  1  0  0  0  0  0  0  0  0  0
    5.3972   -4.1847   -0.9771 C   0  0  0  0  0  0  0  0  0  0  0  0
    4.8735   -3.1773   -2.1154 C   0  0  0  0  0  0  0  0  0  0  0  0
    3.9910   -1.9357   -1.6442 C   0  0  1  0  0  0  0  0  0  0  0  0
    2.9425   -1.5046   -2.6981 C   0  0  0  0  0  0  0  0  0  0  0  0
    9.4196   -4.8455    0.4912 H   0  0  0  0  0  0  0  0  0  0  0  0
    8.7294   -4.0080    1.8743 H   0  0  0  0  0  0  0  0  0  0  0  0
   10.0155   -3.2055    0.9212 H   0  0  0  0  0  0  0  0  0  0  0  0
    8.4280   -3.1461   -1.1029 H   0  0  0  0  0  0  0  0  0  0  0  0
    7.5733   -4.0395    0.0273 H   0  0  0  0  0  0  0  0  0  0  0  0
    6.3259   -0.4976    0.1173 H   0  0  0  0  0  0  0  0  0  0  0  0
    6.5042   -1.6135   -1.1273 H   0  0  0  0  0  0  0  0  0  0  0  0
    5.9476   -1.7533    2.5265 H   0  0  0  0  0  0  0  0  0  0  0  0
    3.7795    1.3532    1.0050 H   0  0  0  0  0  0  0  0  0  0  0  0
    2.8232    0.0044    1.4964 H   0  0  0  0  0  0  0  0  0  0  0  0
    3.8369   -0.0337    0.0725 H   0  0  0  0  0  0  0  0  0  0  0  0
    4.2561   -2.5248    3.8090 H   0  0  0  0  0  0  0  0  0  0  0  0
    3.2158   -1.3055    3.1824 H   0  0  0  0  0  0  0  0  0  0  0  0
    2.2725   -3.4682    2.5504 H   0  0  0  0  0  0  0  0  0  0  0  0
    1.9004   -3.2948   -1.3518 H   0  0  0  0  0  0  0  0  0  0  0  0
    1.7719   -5.4673   -0.6445 H   0  0  0  0  0  0  0  0  0  0  0  0
    5.4731   -4.3416    3.3761 H   0  0  0  0  0  0  0  0  0  0  0  0
    5.3767   -5.8804    2.5751 H   0  0  0  0  0  0  0  0  0  0  0  0
    4.0307   -5.3233    3.5601 H   0  0  0  0  0  0  0  0  0  0  0  0
    6.1171   -3.9923    1.2587 H   0  0  0  0  0  0  0  0  0  0  0  0
    6.3759   -4.2464   -1.4172 H   0  0  0  0  0  0  0  0  0  0  0  0
    5.1258   -5.2273   -1.1401 H   0  0  0  0  0  0  0  0  0  0  0  0
    5.6944   -2.8427   -2.7724 H   0  0  0  0  0  0  0  0  0  0  0  0
    4.2963   -3.8250   -2.7628 H   0  0  0  0  0  0  0  0  0  0  0  0
    4.5815   -1.0289   -1.6117 H   0  0  0  0  0  0  0  0  0  0  0  0
    2.3772   -2.3226   -3.1389 H   0  0  0  0  0  0  0  0  0  0  0  0
    3.4218   -0.9847   -3.5286 H   0  0  0  0  0  0  0  0  0  0  0  0
    2.2349   -0.7902   -2.2921 H   0  0  0  0  0  0  0  0  0  0  0  0
  1  2  1  0
  1 24  1  0
  1 25  1  0
  1 26  1  0
  2  3  1  0
  2 27  1  0
  2 28  1  0
  3  4  1  0
  5  4  1  6
  4 29  1  0
  4 30  1  0
  5 12  1  0
  5 19  1  0
  5  6  1  0
  6  7  1  0
  6  9  1  0
  6 31  1  1
  7  8  1  0
  8 32  1  0
  8 33  1  0
  8 34  1  0
  9 10  1  0
  9 35  1  0
  9 36  1  0
 10 17  1  0
 10 11  1  0
 10 37  1  1
 11 12  1  0
 12 22  1  0
 12 13  1  6
 13 14  2  0
 13 38  1  0
 14 15  1  0
 14 39  1  0
 15 16  2  0
 15 17  1  0
 17 18  1  1
 17 19  1  0
 18 40  1  0
 18 41  1  0
 18 42  1  0
 19 20  1  0
 19 43  1  1
 20 21  1  0
 20 44  1  0
 20 45  1  0
 21 22  1  0
 21 46  1  0
 21 47  1  0
 22 23  1  0
 22 48  1  1
 23 49  1  0
 23 50  1  0
 23 51  1  0
M  END
>  <i_m_ct_stereo_status>  (167) 
1

>  <s_m_source_file>  (167) 
/var/tmp/pbs.5076255.sched01/tmppvoazpai/72cbyqjt17.sdf

>  <i_m_source_file_index>  (167) 
4

>  <i_lp_mmshare_version>  (167) 
48012

>  <i_f3d_flags>  (167) 
2

>  <s_epik_input>  (167) 
W0NIM11bQ0gyXU9bQ0gyXVtDQEBdMShDMjM0KVtDQEhdKFtDSDJdW0NIMl1bQ0BIXTRbQ0gzXSlbQ0BdKFtDSDNdKShDKD1PKVtDSF09W0NIXTMpW0NASF0oTzIpW0NIMl1bQ0BASF0xT1tDSDNd

>  <s_epik_cmdline>  (167) 
J2VwaWtfcHl0aG9uJywgJy1waHQnLCAnMi4wJywgJy1waCcsICc3LjAnLCAnLXRuJywgJzgnLCAnLW1hJywgJzIwMCcsICctaW1hZScsICc8aW5maWxlLm1hZT4nLCAnLW9tYWUnLCAnPG91dGZpbGUubWFlPic=

>  <r_lp_tautomer_probability>  (167) 
1

>  <r_epik_Ionization_Penalty>  (167) 
4.96725e-12

>  <r_epik_Ionization_Penalty_Charging>  (167) 
0

>  <r_epik_Ionization_Penalty_Neutral>  (167) 
4.96725e-12

>  <r_epik_State_Penalty>  (167) 
-0

>  <r_epik_Charging_Adjusted_Penalty>  (167) 
0

>  <i_epik_Tot_Q>  (167) 
0

>  <i_epik_Tot_abs_Q>  (167) 
0

>  <s_lp_Force_Field>  (167) 
OPLS3e

>  <r_lp_Energy>  (167) 
166.593

>  <b_lp_Chiralities_Consistent>  (167) 
0

>  <s_lp_Variant>  (167) 
60:0-1

>  <s_i_glide_gridfile>  (167) 
pfpi4k_grid

>  <i_i_glide_lignum>  (167) 
4

>  <i_i_glide_rotatable_bonds>  (167) 
4

>  <r_i_docking_score>  (167) 
-1.41516

>  <r_i_glide_ligand_efficiency>  (167) 
-0.0615287

>  <r_i_glide_ligand_efficiency_sa>  (167) 
-0.17498

>  <r_i_glide_ligand_efficiency_ln>  (167) 
-0.342199

>  <r_i_glide_gscore>  (167) 
-1.41516

>  <r_i_glide_lipo>  (167) 
-0.480305

>  <r_i_glide_hbond>  (167) 
-0.0961589

>  <r_i_glide_metal>  (167) 
-0

>  <r_i_glide_rewards>  (167) 
-1.22439

>  <r_i_glide_evdw>  (167) 
-18.7525

>  <r_i_glide_ecoul>  (167) 
-0.00293725

>  <r_i_glide_erotb>  (167) 
0.363735

>  <r_i_glide_esite>  (167) 
-0.00952649

>  <r_i_glide_emodel>  (167) 
-9.87431

>  <r_i_glide_energy>  (167) 
-18.7554

>  <r_i_glide_einternal>  (167) 
7.51726

>  <r_i_glide_intrahb_reward>  (167) 
-0

>  <i_i_glide_confnum>  (167) 
2

>  <i_i_glide_posenum>  (167) 
18

>  <r_i_glide_eff_state_penalty>  (167) 
0

>  <ligand_id>  (167) 
60

>  <original_smiles>  (167) 
CCOCC12C(OC)CC3OC14C=CC(=O)C3(C)C2CCC4C

>  <smiles>  (167) 
[H]C1=C([H])C23OC4([H])C([H])([H])C([H])(OC([H])([H])[H])C2(C([H])([H])OC([H])([H])C([H])([H])[H])C([H])(C([H])([H])C([H])([H])C3([H])C([H])([H])[H])C4(C([H])([H])[H])C1=O

$$$$
61:0:0
     RDKit          3D

 41 44  0  0  1  0  0  0  0  0999 V2000
   -0.9878   -8.0527    2.3678 C   0  0  0  0  0  0  0  0  0  0  0  0
   -0.6667   -6.6640    2.3619 O   0  0  0  0  0  0  0  0  0  0  0  0
    0.6730   -6.3978    2.7438 C   0  0  0  0  0  0  0  0  0  0  0  0
    1.6316   -6.6935    1.5746 C   0  0  0  0  0  0  0  0  0  0  0  0
    3.0117   -6.3417    1.9087 N   0  0  0  0  0  0  0  0  0  0  0  0
    3.9103   -7.2015    2.4072 C   0  0  0  0  0  0  0  0  0  0  0  0
    3.7066   -8.3845    2.6734 O   0  0  0  0  0  0  0  0  0  0  0  0
    5.2625   -6.5231    2.6292 C   0  0  2  0  0  0  0  0  0  0  0  0
    5.0006   -5.0736    2.1695 C   0  0  2  0  0  0  0  0  0  0  0  0
    3.5266   -5.1165    1.7511 C   0  0  0  0  0  0  0  0  0  0  0  0
    2.9153   -4.1323    1.3393 O   0  0  0  0  0  0  0  0  0  0  0  0
    6.0239   -4.9274    1.0056 C   0  0  1  0  0  0  0  0  0  0  0  0
    5.7501   -3.8398   -0.0274 C   0  0  0  0  0  0  0  0  0  0  0  0
    5.0098   -4.1277   -1.1944 C   0  0  0  0  0  0  0  0  0  0  0  0
    4.7603   -3.0989   -2.1211 C   0  0  0  0  0  0  0  0  0  0  0  0
    5.2495   -1.8131   -1.8402 C   0  0  0  0  0  0  0  0  0  0  0  0
    5.9662   -1.5203   -0.7338 N   0  0  0  0  0  0  0  0  0  0  0  0
    6.1915   -2.5143    0.1543 C   0  0  0  0  0  0  0  0  0  0  0  0
    7.4222   -4.9478    1.5795 C   0  0  0  0  0  0  0  0  0  0  0  0
    7.6383   -6.1902    1.9917 C   0  0  0  0  0  0  0  0  0  0  0  0
    6.3860   -6.9595    1.6544 C   0  0  1  0  0  0  0  0  0  0  0  0
    6.6138   -8.4649    1.4227 C   0  0  0  0  0  0  0  0  0  0  0  0
    5.9245   -6.2572    0.5009 O   0  0  0  0  0  0  0  0  0  0  0  0
   -2.0219   -8.1920    2.0554 H   0  0  0  0  0  0  0  0  0  0  0  0
   -0.8811   -8.4704    3.3678 H   0  0  0  0  0  0  0  0  0  0  0  0
   -0.3682   -8.6329    1.6859 H   0  0  0  0  0  0  0  0  0  0  0  0
    0.7258   -5.3397    2.9997 H   0  0  0  0  0  0  0  0  0  0  0  0
    0.9455   -6.9391    3.6493 H   0  0  0  0  0  0  0  0  0  0  0  0
    1.6039   -7.7451    1.2934 H   0  0  0  0  0  0  0  0  0  0  0  0
    1.3090   -6.1606    0.6793 H   0  0  0  0  0  0  0  0  0  0  0  0
    5.5598   -6.6002    3.6771 H   0  0  0  0  0  0  0  0  0  0  0  0
    5.1441   -4.3317    2.9569 H   0  0  0  0  0  0  0  0  0  0  0  0
    4.6256   -5.1178   -1.3757 H   0  0  0  0  0  0  0  0  0  0  0  0
    4.1837   -3.2932   -3.0154 H   0  0  0  0  0  0  0  0  0  0  0  0
    5.0817   -0.9952   -2.5259 H   0  0  0  0  0  0  0  0  0  0  0  0
    6.7363   -2.2260    1.0400 H   0  0  0  0  0  0  0  0  0  0  0  0
    8.0929   -4.1060    1.6514 H   0  0  0  0  0  0  0  0  0  0  0  0
    8.5215   -6.5961    2.4597 H   0  0  0  0  0  0  0  0  0  0  0  0
    6.8351   -8.9664    2.3638 H   0  0  0  0  0  0  0  0  0  0  0  0
    7.4492   -8.6489    0.7479 H   0  0  0  0  0  0  0  0  0  0  0  0
    5.7370   -8.9474    0.9899 H   0  0  0  0  0  0  0  0  0  0  0  0
  1  2  1  0
  1 24  1  0
  1 25  1  0
  1 26  1  0
  2  3  1  0
  3  4  1  0
  3 27  1  0
  3 28  1  0
  4 29  1  0
  4 30  1  0
  4  5  1  0
  5 10  1  0
  5  6  1  0
  6  7  2  0
  6  8  1  0
  8 21  1  0
  8 31  1  1
  8  9  1  0
  9 12  1  0
  9 32  1  1
  9 10  1  0
 10 11  2  0
 12 23  1  0
 12 13  1  6
 12 19  1  0
 13 18  1  0
 13 14  2  0
 14 15  1  0
 14 33  1  0
 15 16  2  0
 15 34  1  0
 16 17  1  0
 16 35  1  0
 17 18  2  0
 18 36  1  0
 19 20  2  0
 19 37  1  0
 20 21  1  0
 20 38  1  0
 21 22  1  6
 21 23  1  0
 22 39  1  0
 22 40  1  0
 22 41  1  0
M  END
>  <i_m_ct_stereo_status>  (168) 
1

>  <s_m_source_file>  (168) 
/var/tmp/pbs.5076255.sched01/tmppvoazpai/72cbyqjt17.sdf

>  <i_m_source_file_index>  (168) 
5

>  <i_lp_mmshare_version>  (168) 
48012

>  <i_f3d_flags>  (168) 
0

>  <s_epik_input>  (168) 
W0NIM11PW0NIMl1bQ0gyXW4oYzFbT0hdKWMoW09IXSljKFtDQF0oTzIpKFtDSDNdKVtDSF09W0NIXTMpYzFbQ0BdMjNjNFtjSF1bY0hdW2NIXW5bY0hdNA==

>  <s_epik_cmdline>  (168) 
J2VwaWtfcHl0aG9uJywgJy1waHQnLCAnMi4wJywgJy1waCcsICc3LjAnLCAnLXRuJywgJzgnLCAnLW1hJywgJzIwMCcsICctaW1hZScsICc8aW5maWxlLm1hZT4nLCAnLW9tYWUnLCAnPG91dGZpbGUubWFlPic=

>  <r_lp_tautomer_probability>  (168) 
1

>  <r_epik_Ionization_Penalty>  (168) 
0.00232461

>  <r_epik_Ionization_Penalty_Charging>  (168) 
0

>  <r_epik_Ionization_Penalty_Neutral>  (168) 
0.00232461

>  <r_epik_State_Penalty>  (168) 
0.00160418

>  <r_epik_Charging_Adjusted_Penalty>  (168) 
0.00160418

>  <i_epik_Tot_Q>  (168) 
0

>  <i_epik_Tot_abs_Q>  (168) 
0

>  <s_lp_Force_Field>  (168) 
OPLS3e

>  <r_lp_Energy>  (168) 
14.2112

>  <b_lp_Chiralities_Consistent>  (168) 
1

>  <s_lp_Variant>  (168) 
61:0-1

>  <s_i_glide_gridfile>  (168) 
pfpi4k_grid

>  <i_i_glide_lignum>  (168) 
5

>  <i_i_glide_rotatable_bonds>  (168) 
4

>  <r_i_docking_score>  (168) 
-3.33368

>  <r_i_glide_ligand_efficiency>  (168) 
-0.144943

>  <r_i_glide_ligand_efficiency_sa>  (168) 
-0.412197

>  <r_i_glide_ligand_efficiency_ln>  (168) 
-0.806114

>  <r_i_glide_gscore>  (168) 
-3.33368

>  <r_i_glide_lipo>  (168) 
-0.587749

>  <r_i_glide_hbond>  (168) 
-0.21905

>  <r_i_glide_metal>  (168) 
-0

>  <r_i_glide_rewards>  (168) 
-1.29751

>  <r_i_glide_evdw>  (168) 
-23.1483

>  <r_i_glide_ecoul>  (168) 
-4.24197

>  <r_i_glide_erotb>  (168) 
0.56434

>  <r_i_glide_esite>  (168) 
0

>  <r_i_glide_emodel>  (168) 
-33.0939

>  <r_i_glide_energy>  (168) 
-27.3903

>  <r_i_glide_einternal>  (168) 
1.33947

>  <r_i_glide_intrahb_reward>  (168) 
-0

>  <i_i_glide_confnum>  (168) 
4

>  <i_i_glide_posenum>  (168) 
18

>  <r_i_glide_eff_state_penalty>  (168) 
0

>  <ligand_id>  (168) 
61

>  <original_smiles>  (168) 
COCCn1c(O)c2c(c1O)C1(c3cccnc3)C=CC2(C)O1

>  <smiles>  (168) 
[H]C1=C([H])C2(C([H])([H])[H])OC1(c1c([H])nc([H])c([H])c1[H])C1([H])C(=O)N(C([H])([H])C([H])([H])OC([H])([H])[H])C(=O)C12[H]

$$$$
61:0:1
     RDKit          3D

 41 44  0  0  1  0  0  0  0  0999 V2000
    3.2337   -2.2653   -2.0989 C   0  0  0  0  0  0  0  0  0  0  0  0
    3.4140   -2.5970   -0.7340 O   0  0  0  0  0  0  0  0  0  0  0  0
    3.4199   -3.9925   -0.5041 C   0  0  0  0  0  0  0  0  0  0  0  0
    3.2942   -4.2234    1.0087 C   0  0  0  0  0  0  0  0  0  0  0  0
    3.4261   -5.6428    1.3571 N   0  0  0  0  0  0  0  0  0  0  0  0
    4.5597   -6.2173    1.7845 C   0  0  0  0  0  0  0  0  0  0  0  0
    5.6423   -5.6551    1.9433 O   0  0  0  0  0  0  0  0  0  0  0  0
    4.3577   -7.7085    2.0556 C   0  0  2  0  0  0  0  0  0  0  0  0
    2.8739   -7.9254    1.7000 C   0  0  2  0  0  0  0  0  0  0  0  0
    2.4188   -6.5218    1.2790 C   0  0  0  0  0  0  0  0  0  0  0  0
    1.2733   -6.2655    0.8962 O   0  0  0  0  0  0  0  0  0  0  0  0
    2.3017   -8.4308    3.0521 C   0  0  1  0  0  0  0  0  0  0  0  0
    0.7956   -8.2969    3.2289 C   0  0  0  0  0  0  0  0  0  0  0  0
   -0.0791   -9.2369    2.6460 C   0  0  0  0  0  0  0  0  0  0  0  0
   -1.4640   -9.0539    2.7911 C   0  0  0  0  0  0  0  0  0  0  0  0
   -1.9195   -7.9511    3.5255 C   0  0  0  0  0  0  0  0  0  0  0  0
   -1.0987   -7.0369    4.0797 N   0  0  0  0  0  0  0  0  0  0  0  0
    0.2311   -7.2203    3.9428 C   0  0  0  0  0  0  0  0  0  0  0  0
    2.8699   -9.8023    3.3343 C   0  0  0  0  0  0  0  0  0  0  0  0
    4.1489   -9.6135    3.6302 C   0  0  0  0  0  0  0  0  0  0  0  0
    4.3791   -8.1236    3.5493 C   0  0  1  0  0  0  0  0  0  0  0  0
    5.5215   -7.6095    4.4402 C   0  0  0  0  0  0  0  0  0  0  0  0
    3.0948   -7.6188    3.9182 O   0  0  0  0  0  0  0  0  0  0  0  0
    3.2425   -1.1800   -2.2101 H   0  0  0  0  0  0  0  0  0  0  0  0
    2.2730   -2.6279   -2.4705 H   0  0  0  0  0  0  0  0  0  0  0  0
    4.0314   -2.6802   -2.7180 H   0  0  0  0  0  0  0  0  0  0  0  0
    2.5791   -4.4639   -1.0117 H   0  0  0  0  0  0  0  0  0  0  0  0
    4.3373   -4.4238   -0.9028 H   0  0  0  0  0  0  0  0  0  0  0  0
    4.0490   -3.6371    1.5312 H   0  0  0  0  0  0  0  0  0  0  0  0
    2.3398   -3.8303    1.3654 H   0  0  0  0  0  0  0  0  0  0  0  0
    5.0421   -8.3054    1.4483 H   0  0  0  0  0  0  0  0  0  0  0  0
    2.7258   -8.6432    0.8929 H   0  0  0  0  0  0  0  0  0  0  0  0
    0.3008  -10.0757    2.0829 H   0  0  0  0  0  0  0  0  0  0  0  0
   -2.1646   -9.7613    2.3663 H   0  0  0  0  0  0  0  0  0  0  0  0
   -2.9765   -7.7867    3.6740 H   0  0  0  0  0  0  0  0  0  0  0  0
    0.8517   -6.4594    4.3913 H   0  0  0  0  0  0  0  0  0  0  0  0
    2.3284  -10.7341    3.2893 H   0  0  0  0  0  0  0  0  0  0  0  0
    4.8858  -10.3577    3.8896 H   0  0  0  0  0  0  0  0  0  0  0  0
    6.4878   -7.9215    4.0440 H   0  0  0  0  0  0  0  0  0  0  0  0
    5.4395   -7.9834    5.4617 H   0  0  0  0  0  0  0  0  0  0  0  0
    5.5257   -6.5207    4.4996 H   0  0  0  0  0  0  0  0  0  0  0  0
  1  2  1  0
  1 24  1  0
  1 25  1  0
  1 26  1  0
  2  3  1  0
  3  4  1  0
  3 27  1  0
  3 28  1  0
  4 29  1  0
  4 30  1  0
  4  5  1  0
  5 10  1  0
  5  6  1  0
  6  7  2  0
  6  8  1  0
  8 21  1  0
  8 31  1  6
  8  9  1  0
  9 12  1  0
  9 32  1  6
  9 10  1  0
 10 11  2  0
 12 23  1  0
 12 13  1  6
 12 19  1  0
 13 18  1  0
 13 14  2  0
 14 15  1  0
 14 33  1  0
 15 16  2  0
 15 34  1  0
 16 17  1  0
 16 35  1  0
 17 18  2  0
 18 36  1  0
 19 20  2  0
 19 37  1  0
 20 21  1  0
 20 38  1  0
 21 22  1  1
 21 23  1  0
 22 39  1  0
 22 40  1  0
 22 41  1  0
M  END
>  <i_m_ct_stereo_status>  (169) 
1

>  <s_m_source_file>  (169) 
/var/tmp/pbs.5076255.sched01/tmppvoazpai/72cbyqjt17.sdf

>  <i_m_source_file_index>  (169) 
5

>  <i_lp_mmshare_version>  (169) 
48012

>  <i_f3d_flags>  (169) 
0

>  <s_epik_input>  (169) 
W0NIM11PW0NIMl1bQ0gyXW4oYzFbT0hdKWMoW09IXSljKFtDQF0oTzIpKFtDSDNdKVtDSF09W0NIXTMpYzFbQ0BdMjNjNFtjSF1bY0hdW2NIXW5bY0hdNA==

>  <s_epik_cmdline>  (169) 
J2VwaWtfcHl0aG9uJywgJy1waHQnLCAnMi4wJywgJy1waCcsICc3LjAnLCAnLXRuJywgJzgnLCAnLW1hJywgJzIwMCcsICctaW1hZScsICc8aW5maWxlLm1hZT4nLCAnLW9tYWUnLCAnPG91dGZpbGUubWFlPic=

>  <r_lp_tautomer_probability>  (169) 
1

>  <r_epik_Ionization_Penalty>  (169) 
0.00232461

>  <r_epik_Ionization_Penalty_Charging>  (169) 
0

>  <r_epik_Ionization_Penalty_Neutral>  (169) 
0.00232461

>  <r_epik_State_Penalty>  (169) 
0.00160418

>  <r_epik_Charging_Adjusted_Penalty>  (169) 
0.00160418

>  <i_epik_Tot_Q>  (169) 
0

>  <i_epik_Tot_abs_Q>  (169) 
0

>  <s_lp_Force_Field>  (169) 
OPLS3e

>  <r_lp_Energy>  (169) 
14.2112

>  <b_lp_Chiralities_Consistent>  (169) 
1

>  <s_lp_Variant>  (169) 
61:0-1

>  <s_i_glide_gridfile>  (169) 
pfpi4k_grid

>  <i_i_glide_lignum>  (169) 
5

>  <i_i_glide_rotatable_bonds>  (169) 
4

>  <r_i_docking_score>  (169) 
-2.66197

>  <r_i_glide_ligand_efficiency>  (169) 
-0.115738

>  <r_i_glide_ligand_efficiency_sa>  (169) 
-0.329143

>  <r_i_glide_ligand_efficiency_ln>  (169) 
-0.643688

>  <r_i_glide_gscore>  (169) 
-2.66197

>  <r_i_glide_lipo>  (169) 
-0.0163941

>  <r_i_glide_hbond>  (169) 
-0.1282

>  <r_i_glide_metal>  (169) 
-0

>  <r_i_glide_rewards>  (169) 
-1.35125

>  <r_i_glide_evdw>  (169) 
-24.412

>  <r_i_glide_ecoul>  (169) 
-3.31724

>  <r_i_glide_erotb>  (169) 
0.56434

>  <r_i_glide_esite>  (169) 
-0.012281

>  <r_i_glide_emodel>  (169) 
-32.3956

>  <r_i_glide_energy>  (169) 
-27.7292

>  <r_i_glide_einternal>  (169) 
0.787755

>  <r_i_glide_intrahb_reward>  (169) 
-0

>  <i_i_glide_confnum>  (169) 
4

>  <i_i_glide_posenum>  (169) 
29

>  <r_i_glide_eff_state_penalty>  (169) 
0

>  <ligand_id>  (169) 
61

>  <original_smiles>  (169) 
COCCn1c(O)c2c(c1O)C1(c3cccnc3)C=CC2(C)O1

>  <smiles>  (169) 
[H]C1=C([H])C2(C([H])([H])[H])OC1(c1c([H])nc([H])c([H])c1[H])C1([H])C(=O)N(C([H])([H])C([H])([H])OC([H])([H])[H])C(=O)C12[H]

$$$$
61:0:2
     RDKit          3D

 41 44  0  0  1  0  0  0  0  0999 V2000
    5.1224   -3.5656   -1.2613 C   0  0  0  0  0  0  0  0  0  0  0  0
    5.1078   -4.0689    0.0634 O   0  0  0  0  0  0  0  0  0  0  0  0
    4.6921   -5.4200    0.1339 C   0  0  0  0  0  0  0  0  0  0  0  0
    4.5326   -5.7989    1.6113 C   0  0  0  0  0  0  0  0  0  0  0  0
    4.0895   -7.1891    1.7774 N   0  0  0  0  0  0  0  0  0  0  0  0
    4.9016   -8.2200    2.0393 C   0  0  0  0  0  0  0  0  0  0  0  0
    6.1264   -8.1646    2.1643 O   0  0  0  0  0  0  0  0  0  0  0  0
    4.1224   -9.5299    2.1487 C   0  0  2  0  0  0  0  0  0  0  0  0
    2.6721   -9.0891    1.8870 C   0  0  2  0  0  0  0  0  0  0  0  0
    2.8104   -7.5798    1.6780 C   0  0  0  0  0  0  0  0  0  0  0  0
    1.8523   -6.8494    1.4152 O   0  0  0  0  0  0  0  0  0  0  0  0
    1.9717   -9.5047    3.2081 C   0  0  1  0  0  0  0  0  0  0  0  0
    0.6566   -8.8038    3.5129 C   0  0  0  0  0  0  0  0  0  0  0  0
   -0.5186   -9.1599    2.8228 C   0  0  0  0  0  0  0  0  0  0  0  0
   -1.7065   -8.4658    3.0982 C   0  0  0  0  0  0  0  0  0  0  0  0
   -1.6825   -7.4550    4.0731 C   0  0  0  0  0  0  0  0  0  0  0  0
   -0.5632   -7.0824    4.7238 N   0  0  0  0  0  0  0  0  0  0  0  0
    0.5752   -7.7605    4.4576 C   0  0  0  0  0  0  0  0  0  0  0  0
    1.9365  -11.0119    3.2859 C   0  0  0  0  0  0  0  0  0  0  0  0
    3.1890  -11.3945    3.4974 C   0  0  0  0  0  0  0  0  0  0  0  0
    4.0049  -10.1247    3.5752 C   0  0  1  0  0  0  0  0  0  0  0  0
    5.2785  -10.2388    4.4259 C   0  0  0  0  0  0  0  0  0  0  0  0
    3.0458   -9.2070    4.0996 O   0  0  0  0  0  0  0  0  0  0  0  0
    5.4478   -2.5245   -1.2443 H   0  0  0  0  0  0  0  0  0  0  0  0
    4.1272   -3.5994   -1.7098 H   0  0  0  0  0  0  0  0  0  0  0  0
    5.8132   -4.1265   -1.8931 H   0  0  0  0  0  0  0  0  0  0  0  0
    3.7433   -5.5500   -0.3826 H   0  0  0  0  0  0  0  0  0  0  0  0
    5.4246   -6.0601   -0.3554 H   0  0  0  0  0  0  0  0  0  0  0  0
    5.4764   -5.6335    2.1295 H   0  0  0  0  0  0  0  0  0  0  0  0
    3.8249   -5.1186    2.0897 H   0  0  0  0  0  0  0  0  0  0  0  0
    4.4971  -10.2496    1.4208 H   0  0  0  0  0  0  0  0  0  0  0  0
    2.2245   -9.5561    1.0099 H   0  0  0  0  0  0  0  0  0  0  0  0
   -0.5088   -9.9501    2.0857 H   0  0  0  0  0  0  0  0  0  0  0  0
   -2.6151   -8.7290    2.5844 H   0  0  0  0  0  0  0  0  0  0  0  0
   -2.5777   -6.9048    4.3249 H   0  0  0  0  0  0  0  0  0  0  0  0
    1.4459   -7.4328    5.0063 H   0  0  0  0  0  0  0  0  0  0  0  0
    1.0618  -11.6332    3.1748 H   0  0  0  0  0  0  0  0  0  0  0  0
    3.5647  -12.3997    3.5991 H   0  0  0  0  0  0  0  0  0  0  0  0
    6.0243  -10.8524    3.9207 H   0  0  0  0  0  0  0  0  0  0  0  0
    5.0753  -10.6888    5.3983 H   0  0  0  0  0  0  0  0  0  0  0  0
    5.7255   -9.2627    4.6135 H   0  0  0  0  0  0  0  0  0  0  0  0
  1  2  1  0
  1 24  1  0
  1 25  1  0
  1 26  1  0
  2  3  1  0
  3  4  1  0
  3 27  1  0
  3 28  1  0
  4 29  1  0
  4 30  1  0
  4  5  1  0
  5 10  1  0
  5  6  1  0
  6  7  2  0
  6  8  1  0
  8 21  1  0
  8 31  1  6
  8  9  1  0
  9 12  1  0
  9 32  1  6
  9 10  1  0
 10 11  2  0
 12 23  1  0
 12 13  1  1
 12 19  1  0
 13 18  1  0
 13 14  2  0
 14 15  1  0
 14 33  1  0
 15 16  2  0
 15 34  1  0
 16 17  1  0
 16 35  1  0
 17 18  2  0
 18 36  1  0
 19 20  2  0
 19 37  1  0
 20 21  1  0
 20 38  1  0
 21 22  1  1
 21 23  1  0
 22 39  1  0
 22 40  1  0
 22 41  1  0
M  END
>  <i_m_ct_stereo_status>  (170) 
1

>  <s_m_source_file>  (170) 
/var/tmp/pbs.5076255.sched01/tmppvoazpai/72cbyqjt17.sdf

>  <i_m_source_file_index>  (170) 
5

>  <i_lp_mmshare_version>  (170) 
48012

>  <i_f3d_flags>  (170) 
0

>  <s_epik_input>  (170) 
W0NIM11PW0NIMl1bQ0gyXW4oYzFbT0hdKWMoW09IXSljKFtDQF0oTzIpKFtDSDNdKVtDSF09W0NIXTMpYzFbQ0BdMjNjNFtjSF1bY0hdW2NIXW5bY0hdNA==

>  <s_epik_cmdline>  (170) 
J2VwaWtfcHl0aG9uJywgJy1waHQnLCAnMi4wJywgJy1waCcsICc3LjAnLCAnLXRuJywgJzgnLCAnLW1hJywgJzIwMCcsICctaW1hZScsICc8aW5maWxlLm1hZT4nLCAnLW9tYWUnLCAnPG91dGZpbGUubWFlPic=

>  <r_lp_tautomer_probability>  (170) 
1

>  <r_epik_Ionization_Penalty>  (170) 
0.00232461

>  <r_epik_Ionization_Penalty_Charging>  (170) 
0

>  <r_epik_Ionization_Penalty_Neutral>  (170) 
0.00232461

>  <r_epik_State_Penalty>  (170) 
0.00160418

>  <r_epik_Charging_Adjusted_Penalty>  (170) 
0.00160418

>  <i_epik_Tot_Q>  (170) 
0

>  <i_epik_Tot_abs_Q>  (170) 
0

>  <s_lp_Force_Field>  (170) 
OPLS3e

>  <r_lp_Energy>  (170) 
14.2112

>  <b_lp_Chiralities_Consistent>  (170) 
1

>  <s_lp_Variant>  (170) 
61:0-1

>  <s_i_glide_gridfile>  (170) 
pfpi4k_grid

>  <i_i_glide_lignum>  (170) 
5

>  <i_i_glide_rotatable_bonds>  (170) 
4

>  <r_i_docking_score>  (170) 
-2.59737

>  <r_i_glide_ligand_efficiency>  (170) 
-0.112929

>  <r_i_glide_ligand_efficiency_sa>  (170) 
-0.321156

>  <r_i_glide_ligand_efficiency_ln>  (170) 
-0.628068

>  <r_i_glide_gscore>  (170) 
-2.59737

>  <r_i_glide_lipo>  (170) 
-0.229161

>  <r_i_glide_hbond>  (170) 
0

>  <r_i_glide_metal>  (170) 
-0

>  <r_i_glide_rewards>  (170) 
-1.35615

>  <r_i_glide_evdw>  (170) 
-26.0086

>  <r_i_glide_ecoul>  (170) 
-1.83983

>  <r_i_glide_erotb>  (170) 
0.56434

>  <r_i_glide_esite>  (170) 
0

>  <r_i_glide_emodel>  (170) 
-32.6201

>  <r_i_glide_energy>  (170) 
-27.8484

>  <r_i_glide_einternal>  (170) 
0.445537

>  <r_i_glide_intrahb_reward>  (170) 
-0

>  <i_i_glide_confnum>  (170) 
4

>  <i_i_glide_posenum>  (170) 
19

>  <r_i_glide_eff_state_penalty>  (170) 
0

>  <ligand_id>  (170) 
61

>  <original_smiles>  (170) 
COCCn1c(O)c2c(c1O)C1(c3cccnc3)C=CC2(C)O1

>  <smiles>  (170) 
[H]C1=C([H])C2(C([H])([H])[H])OC1(c1c([H])nc([H])c([H])c1[H])C1([H])C(=O)N(C([H])([H])C([H])([H])OC([H])([H])[H])C(=O)C12[H]

$$$$
62:0:0
     RDKit          3D

 49 52  0  0  1  0  0  0  0  0999 V2000
    3.0180   -1.8256   -3.2580 C   0  0  0  0  0  0  0  0  0  0  0  0
    3.9140   -2.7771   -2.4544 C   0  0  1  0  0  0  0  0  0  0  0  0
    4.2564   -3.8529   -3.3114 O   0  0  0  0  0  0  0  0  0  0  0  0
    5.1607   -2.1171   -1.9180 C   0  0  0  0  0  0  0  0  0  0  0  0
    5.4009   -2.4555   -0.6499 C   0  0  0  0  0  0  0  0  0  0  0  0
    6.4017   -1.8633    0.3082 C   0  0  0  0  0  0  0  0  0  0  0  0
    5.6671   -1.1197    1.4434 C   0  0  0  0  0  0  0  0  0  0  0  0
    4.2349   -1.6446    1.7789 C   0  0  2  0  0  0  0  0  0  0  0  0
    3.8894   -1.3446    3.2767 C   0  0  1  0  0  0  0  0  0  0  0  0
    3.5121    0.1444    3.4458 C   0  0  0  0  0  0  0  0  0  0  0  0
    1.9908    0.2361    3.2588 C   0  0  0  0  0  0  0  0  0  0  0  0
    1.5094   -1.1664    3.5901 C   0  0  0  0  0  0  0  0  0  0  0  0
    0.3238   -1.4826    3.6831 O   0  0  0  0  0  0  0  0  0  0  0  0
    2.6797   -2.1066    3.8857 C   0  0  2  0  0  0  0  0  0  0  0  0
    2.8103   -2.2079    5.4234 C   0  0  0  0  0  0  0  0  0  0  0  0
    2.5097   -3.5414    3.3330 C   0  0  0  0  0  0  0  0  0  0  0  0
    2.7004   -3.6710    1.8213 C   0  0  0  0  0  0  0  0  0  0  0  0
    4.0724   -3.1378    1.3950 C   0  0  1  0  0  0  0  0  0  0  0  0
    4.4119   -3.4502   -0.1058 C   0  0  2  0  0  0  0  0  0  0  0  0
    5.0111   -4.8692   -0.2286 C   0  0  0  0  0  0  0  0  0  0  0  0
    3.2594   -3.2760   -1.1375 C   0  0  0  0  0  0  0  0  0  0  0  0
    2.6982   -0.9667   -2.6665 H   0  0  0  0  0  0  0  0  0  0  0  0
    2.1178   -2.3377   -3.5976 H   0  0  0  0  0  0  0  0  0  0  0  0
    3.5268   -1.4437   -4.1426 H   0  0  0  0  0  0  0  0  0  0  0  0
    3.6786   -4.5844   -3.1172 H   0  0  0  0  0  0  0  0  0  0  0  0
    5.7057   -1.3815   -2.4822 H   0  0  0  0  0  0  0  0  0  0  0  0
    6.9719   -2.6907    0.7286 H   0  0  0  0  0  0  0  0  0  0  0  0
    7.1092   -1.2131   -0.1972 H   0  0  0  0  0  0  0  0  0  0  0  0
    6.3033   -1.1443    2.3286 H   0  0  0  0  0  0  0  0  0  0  0  0
    5.5894   -0.0642    1.1800 H   0  0  0  0  0  0  0  0  0  0  0  0
    3.5238   -1.1027    1.1510 H   0  0  0  0  0  0  0  0  0  0  0  0
    4.7688   -1.5710    3.8776 H   0  0  0  0  0  0  0  0  0  0  0  0
    3.7681    0.4803    4.4513 H   0  0  0  0  0  0  0  0  0  0  0  0
    4.0336    0.8030    2.7524 H   0  0  0  0  0  0  0  0  0  0  0  0
    1.5370    0.9808    3.9130 H   0  0  0  0  0  0  0  0  0  0  0  0
    1.7220    0.4748    2.2298 H   0  0  0  0  0  0  0  0  0  0  0  0
    3.7242   -2.7322    5.7061 H   0  0  0  0  0  0  0  0  0  0  0  0
    1.9764   -2.7592    5.8610 H   0  0  0  0  0  0  0  0  0  0  0  0
    2.8356   -1.2300    5.9046 H   0  0  0  0  0  0  0  0  0  0  0  0
    3.2181   -4.2044    3.8274 H   0  0  0  0  0  0  0  0  0  0  0  0
    1.5226   -3.9223    3.5876 H   0  0  0  0  0  0  0  0  0  0  0  0
    2.6066   -4.7217    1.5433 H   0  0  0  0  0  0  0  0  0  0  0  0
    1.9018   -3.1382    1.3071 H   0  0  0  0  0  0  0  0  0  0  0  0
    4.8109   -3.6678    1.9987 H   0  0  0  0  0  0  0  0  0  0  0  0
    4.2848   -5.6381    0.0386 H   0  0  0  0  0  0  0  0  0  0  0  0
    5.8915   -4.9939    0.4009 H   0  0  0  0  0  0  0  0  0  0  0  0
    5.3288   -5.0668   -1.2516 H   0  0  0  0  0  0  0  0  0  0  0  0
    2.6121   -2.4792   -0.7776 H   0  0  0  0  0  0  0  0  0  0  0  0
    2.6311   -4.1587   -1.2500 H   0  0  0  0  0  0  0  0  0  0  0  0
  1  2  1  0
  1 22  1  0
  1 23  1  0
  1 24  1  0
  2 21  1  0
  2  3  1  6
  2  4  1  0
  3 25  1  0
  4  5  2  0
  4 26  1  0
  5 19  1  0
  5  6  1  0
  6  7  1  0
  6 27  1  0
  6 28  1  0
  7  8  1  0
  7 29  1  0
  7 30  1  0
  8 18  1  0
  8  9  1  0
  8 31  1  6
  9 14  1  0
  9 10  1  0
  9 32  1  1
 10 11  1  0
 10 33  1  0
 10 34  1  0
 11 12  1  0
 11 35  1  0
 11 36  1  0
 12 13  2  0
 12 14  1  0
 14 15  1  1
 14 16  1  0
 15 37  1  0
 15 38  1  0
 15 39  1  0
 16 17  1  0
 16 40  1  0
 16 41  1  0
 17 18  1  0
 17 42  1  0
 17 43  1  0
 18 19  1  0
 18 44  1  1
 19 20  1  1
 19 21  1  0
 20 45  1  0
 20 46  1  0
 20 47  1  0
 21 48  1  0
 21 49  1  0
M  END
>  <i_m_ct_stereo_status>  (171) 
1

>  <s_m_source_file>  (171) 
/var/tmp/pbs.5076255.sched01/tmppvoazpai/72cbyqjt17.sdf

>  <i_m_source_file_index>  (171) 
6

>  <i_lp_mmshare_version>  (171) 
48012

>  <i_f3d_flags>  (171) 
0

>  <s_epik_input>  (171) 
W0NIM11bQ0BdKFtPSF0pKFtDSDJdMSlbQ0hdPUMoW0NIMl1bQ0gyXTIpW0NAQF0xKFtDSDNdKVtDQEhdKFtDSDJdW0NIMl0zKVtDQEhdMltDQEhdKFtDQF0zNFtDSDNdKVtDSDJdW0NIMl1DND1P

>  <s_epik_cmdline>  (171) 
J2VwaWtfcHl0aG9uJywgJy1waHQnLCAnMi4wJywgJy1waCcsICc3LjAnLCAnLXRuJywgJzgnLCAnLW1hJywgJzIwMCcsICctaW1hZScsICc8aW5maWxlLm1hZT4nLCAnLW9tYWUnLCAnPG91dGZpbGUubWFlPic=

>  <r_lp_tautomer_probability>  (171) 
1

>  <r_epik_Ionization_Penalty>  (171) 
5.26691e-07

>  <r_epik_Ionization_Penalty_Charging>  (171) 
0

>  <r_epik_Ionization_Penalty_Neutral>  (171) 
5.26691e-07

>  <r_epik_State_Penalty>  (171) 
-0

>  <r_epik_Charging_Adjusted_Penalty>  (171) 
0

>  <i_epik_Tot_Q>  (171) 
0

>  <i_epik_Tot_abs_Q>  (171) 
0

>  <s_lp_Force_Field>  (171) 
OPLS3e

>  <r_lp_Energy>  (171) 
21.8946

>  <b_lp_Chiralities_Consistent>  (171) 
1

>  <s_lp_Variant>  (171) 
62:0-1

>  <s_i_glide_gridfile>  (171) 
pfpi4k_grid

>  <i_i_glide_lignum>  (171) 
6

>  <i_i_glide_rotatable_bonds>  (171) 
1

>  <r_i_docking_score>  (171) 
-3.86394

>  <r_i_glide_ligand_efficiency>  (171) 
-0.183997

>  <r_i_glide_ligand_efficiency_sa>  (171) 
-0.507634

>  <r_i_glide_ligand_efficiency_ln>  (171) 
-0.955352

>  <r_i_glide_gscore>  (171) 
-3.86394

>  <r_i_glide_lipo>  (171) 
-0.372367

>  <r_i_glide_hbond>  (171) 
-0.32

>  <r_i_glide_metal>  (171) 
-0

>  <r_i_glide_rewards>  (171) 
-1.44256

>  <r_i_glide_evdw>  (171) 
-24.4281

>  <r_i_glide_ecoul>  (171) 
-3.3538

>  <r_i_glide_erotb>  (171) 
0

>  <r_i_glide_esite>  (171) 
-0.00453836

>  <r_i_glide_emodel>  (171) 
-34.343

>  <r_i_glide_energy>  (171) 
-27.7819

>  <r_i_glide_einternal>  (171) 
0.592041

>  <r_i_glide_intrahb_reward>  (171) 
-0

>  <i_i_glide_confnum>  (171) 
2

>  <i_i_glide_posenum>  (171) 
4

>  <r_i_glide_eff_state_penalty>  (171) 
0

>  <ligand_id>  (171) 
62

>  <original_smiles>  (171) 
CC1(O)C=C2CCC3C4CCC(=O)C4(C)CCC3C2(C)C1

>  <smiles>  (171) 
[H]OC1(C([H])([H])[H])C([H])=C2C([H])([H])C([H])([H])C3([H])C4([H])C([H])([H])C([H])([H])C(=O)C4(C([H])([H])[H])C([H])([H])C([H])([H])C3([H])C2(C([H])([H])[H])C1([H])[H]

$$$$
62:0:1
     RDKit          3D

 49 52  0  0  1  0  0  0  0  0999 V2000
    2.4908   -2.5868   -3.0402 C   0  0  0  0  0  0  0  0  0  0  0  0
    3.7885   -2.9401   -2.3121 C   0  0  1  0  0  0  0  0  0  0  0  0
    4.4833   -3.8508   -3.1382 O   0  0  0  0  0  0  0  0  0  0  0  0
    4.6506   -1.7418   -1.9850 C   0  0  0  0  0  0  0  0  0  0  0  0
    5.1352   -1.8096   -0.7388 C   0  0  0  0  0  0  0  0  0  0  0  0
    5.8559   -0.7615    0.0644 C   0  0  0  0  0  0  0  0  0  0  0  0
    4.9843   -0.2983    1.2390 C   0  0  0  0  0  0  0  0  0  0  0  0
    3.9773   -1.3539    1.7870 C   0  0  2  0  0  0  0  0  0  0  0  0
    3.6925   -1.0799    3.2987 C   0  0  1  0  0  0  0  0  0  0  0  0
    2.7086    0.1070    3.4450 C   0  0  0  0  0  0  0  0  0  0  0  0
    1.2973   -0.4983    3.4648 C   0  0  0  0  0  0  0  0  0  0  0  0
    1.5297   -1.9274    3.9184 C   0  0  0  0  0  0  0  0  0  0  0  0
    0.6226   -2.7260    4.1561 O   0  0  0  0  0  0  0  0  0  0  0  0
    3.0189   -2.2259    4.1038 C   0  0  2  0  0  0  0  0  0  0  0  0
    3.3399   -2.0992    5.6115 C   0  0  0  0  0  0  0  0  0  0  0  0
    3.4589   -3.6361    3.6461 C   0  0  0  0  0  0  0  0  0  0  0  0
    3.5293   -3.8295    2.1315 C   0  0  0  0  0  0  0  0  0  0  0  0
    4.4662   -2.7937    1.4950 C   0  0  1  0  0  0  0  0  0  0  0  0
    4.7580   -3.0762   -0.0185 C   0  0  2  0  0  0  0  0  0  0  0  0
    5.9149   -4.0902   -0.1560 C   0  0  0  0  0  0  0  0  0  0  0  0
    3.5544   -3.5284   -0.8946 C   0  0  0  0  0  0  0  0  0  0  0  0
    1.8893   -1.8964   -2.4527 H   0  0  0  0  0  0  0  0  0  0  0  0
    1.8727   -3.4646   -3.2178 H   0  0  0  0  0  0  0  0  0  0  0  0
    2.6695   -2.1088   -4.0022 H   0  0  0  0  0  0  0  0  0  0  0  0
    4.0269   -4.6870   -3.0899 H   0  0  0  0  0  0  0  0  0  0  0  0
    4.7502   -0.9034   -2.6547 H   0  0  0  0  0  0  0  0  0  0  0  0
    6.7704   -1.2127    0.4472 H   0  0  0  0  0  0  0  0  0  0  0  0
    6.1535    0.0781   -0.5466 H   0  0  0  0  0  0  0  0  0  0  0  0
    5.6450    0.0538    2.0302 H   0  0  0  0  0  0  0  0  0  0  0  0
    4.4122    0.5791    0.9280 H   0  0  0  0  0  0  0  0  0  0  0  0
    3.0416   -1.2411    1.2349 H   0  0  0  0  0  0  0  0  0  0  0  0
    4.6355   -0.8326    3.7845 H   0  0  0  0  0  0  0  0  0  0  0  0
    2.8893    0.6236    4.3910 H   0  0  0  0  0  0  0  0  0  0  0  0
    2.8127    0.8528    2.6558 H   0  0  0  0  0  0  0  0  0  0  0  0
    0.6287    0.0341    4.1399 H   0  0  0  0  0  0  0  0  0  0  0  0
    0.8490   -0.5060    2.4723 H   0  0  0  0  0  0  0  0  0  0  0  0
    4.4142   -2.1366    5.7895 H   0  0  0  0  0  0  0  0  0  0  0  0
    2.8913   -2.9107    6.1854 H   0  0  0  0  0  0  0  0  0  0  0  0
    2.9731   -1.1640    6.0376 H   0  0  0  0  0  0  0  0  0  0  0  0
    4.4364   -3.8660    4.0698 H   0  0  0  0  0  0  0  0  0  0  0  0
    2.7813   -4.3835    4.0521 H   0  0  0  0  0  0  0  0  0  0  0  0
    3.8931   -4.8369    1.9200 H   0  0  0  0  0  0  0  0  0  0  0  0
    2.5290   -3.7666    1.7051 H   0  0  0  0  0  0  0  0  0  0  0  0
    5.4173   -2.8804    2.0169 H   0  0  0  0  0  0  0  0  0  0  0  0
    5.6428   -5.0670    0.2471 H   0  0  0  0  0  0  0  0  0  0  0  0
    6.8179   -3.7483    0.3552 H   0  0  0  0  0  0  0  0  0  0  0  0
    6.1862   -4.2336   -1.1998 H   0  0  0  0  0  0  0  0  0  0  0  0
    2.6563   -3.0583   -0.4884 H   0  0  0  0  0  0  0  0  0  0  0  0
    3.3838   -4.6019   -0.8694 H   0  0  0  0  0  0  0  0  0  0  0  0
  1  2  1  0
  1 22  1  0
  1 23  1  0
  1 24  1  0
  2 21  1  0
  2  3  1  6
  2  4  1  0
  3 25  1  0
  4  5  2  0
  4 26  1  0
  5 19  1  0
  5  6  1  0
  6  7  1  0
  6 27  1  0
  6 28  1  0
  7  8  1  0
  7 29  1  0
  7 30  1  0
  8 18  1  0
  8  9  1  0
  8 31  1  6
  9 14  1  0
  9 10  1  0
  9 32  1  1
 10 11  1  0
 10 33  1  0
 10 34  1  0
 11 12  1  0
 11 35  1  0
 11 36  1  0
 12 13  2  0
 12 14  1  0
 14 15  1  1
 14 16  1  0
 15 37  1  0
 15 38  1  0
 15 39  1  0
 16 17  1  0
 16 40  1  0
 16 41  1  0
 17 18  1  0
 17 42  1  0
 17 43  1  0
 18 19  1  0
 18 44  1  1
 19 20  1  1
 19 21  1  0
 20 45  1  0
 20 46  1  0
 20 47  1  0
 21 48  1  0
 21 49  1  0
M  END
>  <i_m_ct_stereo_status>  (172) 
1

>  <s_m_source_file>  (172) 
/var/tmp/pbs.5076255.sched01/tmppvoazpai/72cbyqjt17.sdf

>  <i_m_source_file_index>  (172) 
6

>  <i_lp_mmshare_version>  (172) 
48012

>  <i_f3d_flags>  (172) 
0

>  <s_epik_input>  (172) 
W0NIM11bQ0BdKFtPSF0pKFtDSDJdMSlbQ0hdPUMoW0NIMl1bQ0gyXTIpW0NAQF0xKFtDSDNdKVtDQEhdKFtDSDJdW0NIMl0zKVtDQEhdMltDQEhdKFtDQF0zNFtDSDNdKVtDSDJdW0NIMl1DND1P

>  <s_epik_cmdline>  (172) 
J2VwaWtfcHl0aG9uJywgJy1waHQnLCAnMi4wJywgJy1waCcsICc3LjAnLCAnLXRuJywgJzgnLCAnLW1hJywgJzIwMCcsICctaW1hZScsICc8aW5maWxlLm1hZT4nLCAnLW9tYWUnLCAnPG91dGZpbGUubWFlPic=

>  <r_lp_tautomer_probability>  (172) 
1

>  <r_epik_Ionization_Penalty>  (172) 
5.26691e-07

>  <r_epik_Ionization_Penalty_Charging>  (172) 
0

>  <r_epik_Ionization_Penalty_Neutral>  (172) 
5.26691e-07

>  <r_epik_State_Penalty>  (172) 
-0

>  <r_epik_Charging_Adjusted_Penalty>  (172) 
0

>  <i_epik_Tot_Q>  (172) 
0

>  <i_epik_Tot_abs_Q>  (172) 
0

>  <s_lp_Force_Field>  (172) 
OPLS3e

>  <r_lp_Energy>  (172) 
21.8946

>  <b_lp_Chiralities_Consistent>  (172) 
1

>  <s_lp_Variant>  (172) 
62:0-1

>  <s_i_glide_gridfile>  (172) 
pfpi4k_grid

>  <i_i_glide_lignum>  (172) 
6

>  <i_i_glide_rotatable_bonds>  (172) 
1

>  <r_i_docking_score>  (172) 
-3.80022

>  <r_i_glide_ligand_efficiency>  (172) 
-0.180963

>  <r_i_glide_ligand_efficiency_sa>  (172) 
-0.499263

>  <r_i_glide_ligand_efficiency_ln>  (172) 
-0.939597

>  <r_i_glide_gscore>  (172) 
-3.80022

>  <r_i_glide_lipo>  (172) 
-0.353989

>  <r_i_glide_hbond>  (172) 
-0.32

>  <r_i_glide_metal>  (172) 
-0

>  <r_i_glide_rewards>  (172) 
-1.45366

>  <r_i_glide_evdw>  (172) 
-22.0534

>  <r_i_glide_ecoul>  (172) 
-3.79933

>  <r_i_glide_erotb>  (172) 
0

>  <r_i_glide_esite>  (172) 
0

>  <r_i_glide_emodel>  (172) 
-32.4754

>  <r_i_glide_energy>  (172) 
-25.8527

>  <r_i_glide_einternal>  (172) 
0.212904

>  <r_i_glide_intrahb_reward>  (172) 
-0

>  <i_i_glide_confnum>  (172) 
2

>  <i_i_glide_posenum>  (172) 
1

>  <r_i_glide_eff_state_penalty>  (172) 
0

>  <ligand_id>  (172) 
62

>  <original_smiles>  (172) 
CC1(O)C=C2CCC3C4CCC(=O)C4(C)CCC3C2(C)C1

>  <smiles>  (172) 
[H]OC1(C([H])([H])[H])C([H])=C2C([H])([H])C([H])([H])C3([H])C4([H])C([H])([H])C([H])([H])C(=O)C4(C([H])([H])[H])C([H])([H])C([H])([H])C3([H])C2(C([H])([H])[H])C1([H])[H]

$$$$
62:0:2
     RDKit          3D

 49 52  0  0  1  0  0  0  0  0999 V2000
    3.0105   -2.4329   -2.9837 C   0  0  0  0  0  0  0  0  0  0  0  0
    4.3364   -2.6168   -2.2373 C   0  0  1  0  0  0  0  0  0  0  0  0
    5.2842   -3.0531   -3.1895 O   0  0  0  0  0  0  0  0  0  0  0  0
    4.8160   -1.3622   -1.5390 C   0  0  0  0  0  0  0  0  0  0  0  0
    5.2616   -1.6249   -0.3077 C   0  0  0  0  0  0  0  0  0  0  0  0
    5.6180   -0.6632    0.8009 C   0  0  0  0  0  0  0  0  0  0  0  0
    4.6110   -0.7973    1.9584 C   0  0  0  0  0  0  0  0  0  0  0  0
    3.9353   -2.1961    2.1121 C   0  0  2  0  0  0  0  0  0  0  0  0
    3.5271   -2.4315    3.6054 C   0  0  1  0  0  0  0  0  0  0  0  0
    2.2388   -1.6386    3.9369 C   0  0  0  0  0  0  0  0  0  0  0  0
    1.0616   -2.5820    3.6590 C   0  0  0  0  0  0  0  0  0  0  0  0
    1.6788   -3.9658    3.7508 C   0  0  0  0  0  0  0  0  0  0  0  0
    1.0320   -5.0081    3.6610 O   0  0  0  0  0  0  0  0  0  0  0  0
    3.1860   -3.8896    4.0208 C   0  0  2  0  0  0  0  0  0  0  0  0
    3.4003   -4.0920    5.5382 C   0  0  0  0  0  0  0  0  0  0  0  0
    4.0286   -4.9522    3.2785 C   0  0  0  0  0  0  0  0  0  0  0  0
    4.2063   -4.7029    1.7798 C   0  0  0  0  0  0  0  0  0  0  0  0
    4.8265   -3.3214    1.5281 C   0  0  1  0  0  0  0  0  0  0  0  0
    5.2435   -3.0943    0.0306 C   0  0  2  0  0  0  0  0  0  0  0  0
    6.6523   -3.6820   -0.2202 C   0  0  0  0  0  0  0  0  0  0  0  0
    4.2516   -3.6107   -1.0530 C   0  0  0  0  0  0  0  0  0  0  0  0
    2.2124   -2.1149   -2.3152 H   0  0  0  0  0  0  0  0  0  0  0  0
    2.6942   -3.3685   -3.4461 H   0  0  0  0  0  0  0  0  0  0  0  0
    3.0905   -1.6876   -3.7745 H   0  0  0  0  0  0  0  0  0  0  0  0
    6.0070   -3.4516   -2.7314 H   0  0  0  0  0  0  0  0  0  0  0  0
    4.6905   -0.3806   -1.9622 H   0  0  0  0  0  0  0  0  0  0  0  0
    6.6121   -0.9337    1.1533 H   0  0  0  0  0  0  0  0  0  0  0  0
    5.6675    0.3676    0.4696 H   0  0  0  0  0  0  0  0  0  0  0  0
    5.1165   -0.5078    2.8799 H   0  0  0  0  0  0  0  0  0  0  0  0
    3.8222   -0.0552    1.8204 H   0  0  0  0  0  0  0  0  0  0  0  0
    3.0255   -2.1976    1.5051 H   0  0  0  0  0  0  0  0  0  0  0  0
    4.3430   -2.0797    4.2373 H   0  0  0  0  0  0  0  0  0  0  0  0
    2.2308   -1.3649    4.9932 H   0  0  0  0  0  0  0  0  0  0  0  0
    2.1469   -0.7121    3.3686 H   0  0  0  0  0  0  0  0  0  0  0  0
    0.2423   -2.4547    4.3655 H   0  0  0  0  0  0  0  0  0  0  0  0
    0.6714   -2.4409    2.6532 H   0  0  0  0  0  0  0  0  0  0  0  0
    4.4326   -3.8861    5.8216 H   0  0  0  0  0  0  0  0  0  0  0  0
    3.1843   -5.1182    5.8384 H   0  0  0  0  0  0  0  0  0  0  0  0
    2.7644   -3.4421    6.1409 H   0  0  0  0  0  0  0  0  0  0  0  0
    5.0148   -5.0181    3.7382 H   0  0  0  0  0  0  0  0  0  0  0  0
    3.5786   -5.9344    3.4075 H   0  0  0  0  0  0  0  0  0  0  0  0
    4.8503   -5.4814    1.3670 H   0  0  0  0  0  0  0  0  0  0  0  0
    3.2448   -4.8021    1.2766 H   0  0  0  0  0  0  0  0  0  0  0  0
    5.7448   -3.2875    2.1155 H   0  0  0  0  0  0  0  0  0  0  0  0
    6.6505   -4.7656   -0.0967 H   0  0  0  0  0  0  0  0  0  0  0  0
    7.3943   -3.2643    0.4626 H   0  0  0  0  0  0  0  0  0  0  0  0
    7.0034   -3.4641   -1.2285 H   0  0  0  0  0  0  0  0  0  0  0  0
    3.2455   -3.5394   -0.6429 H   0  0  0  0  0  0  0  0  0  0  0  0
    4.4008   -4.6541   -1.3279 H   0  0  0  0  0  0  0  0  0  0  0  0
  1  2  1  0
  1 22  1  0
  1 23  1  0
  1 24  1  0
  2 21  1  0
  2  3  1  6
  2  4  1  0
  3 25  1  0
  4  5  2  0
  4 26  1  0
  5 19  1  0
  5  6  1  0
  6  7  1  0
  6 27  1  0
  6 28  1  0
  7  8  1  0
  7 29  1  0
  7 30  1  0
  8 18  1  0
  8  9  1  0
  8 31  1  6
  9 14  1  0
  9 10  1  0
  9 32  1  1
 10 11  1  0
 10 33  1  0
 10 34  1  0
 11 12  1  0
 11 35  1  0
 11 36  1  0
 12 13  2  0
 12 14  1  0
 14 15  1  1
 14 16  1  0
 15 37  1  0
 15 38  1  0
 15 39  1  0
 16 17  1  0
 16 40  1  0
 16 41  1  0
 17 18  1  0
 17 42  1  0
 17 43  1  0
 18 19  1  0
 18 44  1  1
 19 20  1  6
 19 21  1  0
 20 45  1  0
 20 46  1  0
 20 47  1  0
 21 48  1  0
 21 49  1  0
M  END
>  <i_m_ct_stereo_status>  (173) 
1

>  <s_m_source_file>  (173) 
/var/tmp/pbs.5076255.sched01/tmppvoazpai/72cbyqjt17.sdf

>  <i_m_source_file_index>  (173) 
6

>  <i_lp_mmshare_version>  (173) 
48012

>  <i_f3d_flags>  (173) 
0

>  <s_epik_input>  (173) 
W0NIM11bQ0BdKFtPSF0pKFtDSDJdMSlbQ0hdPUMoW0NIMl1bQ0gyXTIpW0NAQF0xKFtDSDNdKVtDQEhdKFtDSDJdW0NIMl0zKVtDQEhdMltDQEhdKFtDQF0zNFtDSDNdKVtDSDJdW0NIMl1DND1P

>  <s_epik_cmdline>  (173) 
J2VwaWtfcHl0aG9uJywgJy1waHQnLCAnMi4wJywgJy1waCcsICc3LjAnLCAnLXRuJywgJzgnLCAnLW1hJywgJzIwMCcsICctaW1hZScsICc8aW5maWxlLm1hZT4nLCAnLW9tYWUnLCAnPG91dGZpbGUubWFlPic=

>  <r_lp_tautomer_probability>  (173) 
1

>  <r_epik_Ionization_Penalty>  (173) 
5.26691e-07

>  <r_epik_Ionization_Penalty_Charging>  (173) 
0

>  <r_epik_Ionization_Penalty_Neutral>  (173) 
5.26691e-07

>  <r_epik_State_Penalty>  (173) 
-0

>  <r_epik_Charging_Adjusted_Penalty>  (173) 
0

>  <i_epik_Tot_Q>  (173) 
0

>  <i_epik_Tot_abs_Q>  (173) 
0

>  <s_lp_Force_Field>  (173) 
OPLS3e

>  <r_lp_Energy>  (173) 
21.8946

>  <b_lp_Chiralities_Consistent>  (173) 
1

>  <s_lp_Variant>  (173) 
62:0-1

>  <s_i_glide_gridfile>  (173) 
pfpi4k_grid

>  <i_i_glide_lignum>  (173) 
6

>  <i_i_glide_rotatable_bonds>  (173) 
1

>  <r_i_docking_score>  (173) 
-3.52925

>  <r_i_glide_ligand_efficiency>  (173) 
-0.16806

>  <r_i_glide_ligand_efficiency_sa>  (173) 
-0.463664

>  <r_i_glide_ligand_efficiency_ln>  (173) 
-0.872601

>  <r_i_glide_gscore>  (173) 
-3.52925

>  <r_i_glide_lipo>  (173) 
-0.465873

>  <r_i_glide_hbond>  (173) 
0

>  <r_i_glide_metal>  (173) 
-0

>  <r_i_glide_rewards>  (173) 
-1.44367

>  <r_i_glide_evdw>  (173) 
-24.3493

>  <r_i_glide_ecoul>  (173) 
-2.68164

>  <r_i_glide_erotb>  (173) 
0

>  <r_i_glide_esite>  (173) 
0

>  <r_i_glide_emodel>  (173) 
-33.2091

>  <r_i_glide_energy>  (173) 
-27.031

>  <r_i_glide_einternal>  (173) 
0.185222

>  <r_i_glide_intrahb_reward>  (173) 
-0

>  <i_i_glide_confnum>  (173) 
1

>  <i_i_glide_posenum>  (173) 
5

>  <r_i_glide_eff_state_penalty>  (173) 
0

>  <ligand_id>  (173) 
62

>  <original_smiles>  (173) 
CC1(O)C=C2CCC3C4CCC(=O)C4(C)CCC3C2(C)C1

>  <smiles>  (173) 
[H]OC1(C([H])([H])[H])C([H])=C2C([H])([H])C([H])([H])C3([H])C4([H])C([H])([H])C([H])([H])C(=O)C4(C([H])([H])[H])C([H])([H])C([H])([H])C3([H])C2(C([H])([H])[H])C1([H])[H]

$$$$
63:0:0
     RDKit          3D

 80 85  0  0  1  0  0  0  0  0999 V2000
    0.3670   -8.6433   10.0533 C   0  0  0  0  0  0  0  0  0  0  0  0
    0.3559   -8.1782    8.5778 C   0  0  2  0  0  0  0  0  0  0  0  0
   -0.1678   -9.3019    7.6688 C   0  0  0  0  0  0  0  0  0  0  0  0
    0.0767   -9.0425    6.2068 C   0  0  0  0  0  0  0  0  0  0  0  0
    0.8436   -8.0500    5.7286 C   0  0  0  0  0  0  0  0  0  0  0  0
    1.6419   -7.0535    6.5873 C   0  0  2  0  0  0  0  0  0  0  0  0
    1.0444   -5.6730    6.3738 C   0  0  0  0  0  0  0  0  0  0  0  0
    1.6489   -4.6958    5.6566 C   0  0  0  0  0  0  0  0  0  0  0  0
    2.9964   -4.8087    4.8937 C   0  0  2  0  0  0  0  0  0  0  0  0
    3.0888   -4.0217    3.4937 C   0  0  1  0  0  0  0  0  0  0  0  0
    1.7166   -3.3525    3.1810 C   0  0  0  0  0  0  0  0  0  0  0  0
    4.0911   -2.8510    3.6702 C   0  0  0  0  0  0  0  0  0  0  0  0
    4.2848   -1.9516    2.4276 C   0  0  1  0  0  0  0  0  0  0  0  0
    5.4243   -1.1587    2.6962 O   0  0  0  0  0  0  0  0  0  0  0  0
    4.3202   -2.7182    1.0651 C   0  0  1  0  0  0  0  0  0  0  0  0
    4.9883   -1.9675   -0.1500 C   0  0  0  0  0  0  0  0  0  0  0  0
    4.2627   -0.6300   -0.3391 C   0  0  0  0  0  0  0  0  0  0  0  0
    6.5161   -1.7074   -0.0002 C   0  0  0  0  0  0  0  0  0  0  0  0
    4.7782   -2.7818   -1.4430 C   0  0  0  0  0  0  0  0  0  0  0  0
    4.4354   -2.2775   -2.5144 O   0  0  0  0  0  0  0  0  0  0  0  0
    5.1109   -4.2538   -1.3508 C   0  0  0  0  0  0  0  0  0  0  0  0
    4.3516   -4.9105   -0.1900 C   0  0  0  0  0  0  0  0  0  0  0  0
    4.5826   -4.2545    1.2049 C   0  0  1  0  0  0  0  0  0  0  0  0
    6.0589   -4.5302    1.6186 C   0  0  0  0  0  0  0  0  0  0  0  0
    3.5095   -4.8790    2.2053 C   0  0  1  0  0  0  0  0  0  0  0  0
    3.6650   -6.4139    2.3844 C   0  0  0  0  0  0  0  0  0  0  0  0
    3.0290   -6.9545    3.6504 C   0  0  0  0  0  0  0  0  0  0  0  0
    3.5687   -6.2625    4.9119 C   0  0  1  0  0  0  0  0  0  0  0  0
    5.1185   -6.2266    4.9042 C   0  0  0  0  0  0  0  0  0  0  0  0
    3.1434   -6.9495    6.2516 C   0  0  2  0  0  0  0  0  0  0  0  0
    3.7314   -8.2734    6.7366 C   0  0  0  0  0  0  0  0  0  0  0  0
    2.8944   -8.6086    7.9990 C   0  0  0  0  0  0  0  0  0  0  0  0
    1.7042   -7.5941    8.0584 C   0  0  2  0  0  0  0  0  0  0  0  0
    2.0730   -6.5500    8.9476 O   0  0  0  0  0  0  0  0  0  0  0  0
    1.0826   -9.4484   10.2302 H   0  0  0  0  0  0  0  0  0  0  0  0
   -0.6120   -9.0229   10.3469 H   0  0  0  0  0  0  0  0  0  0  0  0
    0.6013   -7.8312   10.7422 H   0  0  0  0  0  0  0  0  0  0  0  0
   -0.3731   -7.3684    8.5090 H   0  0  0  0  0  0  0  0  0  0  0  0
    0.3139  -10.2474    7.9267 H   0  0  0  0  0  0  0  0  0  0  0  0
   -1.2395   -9.4410    7.8087 H   0  0  0  0  0  0  0  0  0  0  0  0
   -0.4304   -9.7187    5.5302 H   0  0  0  0  0  0  0  0  0  0  0  0
    0.8959   -7.9831    4.6638 H   0  0  0  0  0  0  0  0  0  0  0  0
    0.1140   -5.4719    6.8871 H   0  0  0  0  0  0  0  0  0  0  0  0
    1.1679   -3.7322    5.6478 H   0  0  0  0  0  0  0  0  0  0  0  0
    3.6320   -4.2634    5.5871 H   0  0  0  0  0  0  0  0  0  0  0  0
    1.6955   -2.8691    2.2027 H   0  0  0  0  0  0  0  0  0  0  0  0
    1.4657   -2.5665    3.8978 H   0  0  0  0  0  0  0  0  0  0  0  0
    0.9144   -4.0930    3.1728 H   0  0  0  0  0  0  0  0  0  0  0  0
    3.7827   -2.2167    4.5019 H   0  0  0  0  0  0  0  0  0  0  0  0
    5.0521   -3.2561    3.9835 H   0  0  0  0  0  0  0  0  0  0  0  0
    3.4519   -1.2490    2.3749 H   0  0  0  0  0  0  0  0  0  0  0  0
    5.2662   -0.6412    3.4711 H   0  0  0  0  0  0  0  0  0  0  0  0
    3.2744   -2.7041    0.7665 H   0  0  0  0  0  0  0  0  0  0  0  0
    4.4172    0.0474    0.5029 H   0  0  0  0  0  0  0  0  0  0  0  0
    3.1866   -0.7634   -0.4726 H   0  0  0  0  0  0  0  0  0  0  0  0
    4.6287   -0.1106   -1.2266 H   0  0  0  0  0  0  0  0  0  0  0  0
    6.9220   -2.0754    0.9390 H   0  0  0  0  0  0  0  0  0  0  0  0
    6.7354   -0.6415   -0.0127 H   0  0  0  0  0  0  0  0  0  0  0  0
    7.1093   -2.1725   -0.7926 H   0  0  0  0  0  0  0  0  0  0  0  0
    4.8661   -4.7329   -2.2960 H   0  0  0  0  0  0  0  0  0  0  0  0
    6.1871   -4.3233   -1.2153 H   0  0  0  0  0  0  0  0  0  0  0  0
    3.2910   -4.8701   -0.4480 H   0  0  0  0  0  0  0  0  0  0  0  0
    4.6172   -5.9695   -0.1645 H   0  0  0  0  0  0  0  0  0  0  0  0
    6.2775   -5.5739    1.8155 H   0  0  0  0  0  0  0  0  0  0  0  0
    6.3693   -3.9607    2.4836 H   0  0  0  0  0  0  0  0  0  0  0  0
    6.7549   -4.2690    0.8275 H   0  0  0  0  0  0  0  0  0  0  0  0
    2.5929   -4.8589    1.6145 H   0  0  0  0  0  0  0  0  0  0  0  0
    3.1923   -6.9134    1.5403 H   0  0  0  0  0  0  0  0  0  0  0  0
    4.6935   -6.7403    2.3504 H   0  0  0  0  0  0  0  0  0  0  0  0
    1.9684   -6.7408    3.5382 H   0  0  0  0  0  0  0  0  0  0  0  0
    3.1467   -8.0357    3.7141 H   0  0  0  0  0  0  0  0  0  0  0  0
    5.5291   -7.2211    4.7124 H   0  0  0  0  0  0  0  0  0  0  0  0
    5.5238   -5.8719    5.8519 H   0  0  0  0  0  0  0  0  0  0  0  0
    5.5056   -5.5589    4.1376 H   0  0  0  0  0  0  0  0  0  0  0  0
    3.5465   -6.2467    6.9850 H   0  0  0  0  0  0  0  0  0  0  0  0
    3.6208   -9.0505    5.9810 H   0  0  0  0  0  0  0  0  0  0  0  0
    4.7925   -8.1802    6.9731 H   0  0  0  0  0  0  0  0  0  0  0  0
    2.5440   -9.6381    7.9137 H   0  0  0  0  0  0  0  0  0  0  0  0
    3.5017   -8.5710    8.9037 H   0  0  0  0  0  0  0  0  0  0  0  0
    2.2148   -6.9377    9.7946 H   0  0  0  0  0  0  0  0  0  0  0  0
  1  2  1  0
  1 35  1  0
  1 36  1  0
  1 37  1  0
  2 33  1  0
  2  3  1  0
  2 38  1  1
  3  4  1  0
  3 39  1  0
  3 40  1  0
  4  5  2  0
  4 41  1  0
  6  5  1  6
  5 42  1  0
  6 30  1  0
  6 33  1  0
  6  7  1  0
  7  8  2  0
  7 43  1  0
  8  9  1  0
  8 44  1  0
  9 28  1  0
  9 10  1  0
  9 45  1  1
 10 25  1  0
 10 11  1  6
 10 12  1  0
 11 46  1  0
 11 47  1  0
 11 48  1  0
 12 13  1  0
 12 49  1  0
 12 50  1  0
 13 14  1  0
 13 15  1  0
 13 51  1  6
 14 52  1  0
 15 23  1  0
 15 16  1  0
 15 53  1  6
 16 17  1  0
 16 18  1  0
 16 19  1  0
 17 54  1  0
 17 55  1  0
 17 56  1  0
 18 57  1  0
 18 58  1  0
 18 59  1  0
 19 20  2  0
 19 21  1  0
 21 22  1  0
 21 60  1  0
 21 61  1  0
 22 23  1  0
 22 62  1  0
 22 63  1  0
 23 24  1  1
 23 25  1  0
 24 64  1  0
 24 65  1  0
 24 66  1  0
 25 26  1  0
 25 67  1  6
 26 27  1  0
 26 68  1  0
 26 69  1  0
 27 28  1  0
 27 70  1  0
 27 71  1  0
 28 29  1  6
 28 30  1  0
 29 72  1  0
 29 73  1  0
 29 74  1  0
 30 31  1  0
 30 75  1  1
 31 32  1  0
 31 76  1  0
 31 77  1  0
 32 33  1  0
 32 78  1  0
 32 79  1  0
 33 34  1  1
 34 80  1  0
M  END
>  <i_m_ct_stereo_status>  (174) 
1

>  <s_m_source_file>  (174) 
/var/tmp/pbs.5076255.sched01/tmppvoazpai/72cbyqjt17.sdf

>  <i_m_source_file_index>  (174) 
7

>  <i_lp_mmshare_version>  (174) 
48012

>  <i_f3d_flags>  (174) 
0

>  <s_epik_input>  (174) 
W0NIXTE9W0NIXVtDSDJdW0NAQEhdKFtDSDNdKVtDQEBdMihbT0hdKVtDSDJdW0NIMl1bQ0BIXShbQ0BAXTEyMylbQ0BdNChbQ0gzXSlbQ0BIXShbQ0hdPVtDSF0zKVtDQF01KFtDSDNdKVtDQEhdKFtDSDJdW0NIMl00KVtDQF02KFtDSDNdKVtDQEBIXShbQ0BASF0oW0NIMl01KVtPSF0pQyhbQ0gzXSkoW0NIM10pQyg9TylbQ0gyXVtDSDJdNg==

>  <s_epik_cmdline>  (174) 
J2VwaWtfcHl0aG9uJywgJy1waHQnLCAnMi4wJywgJy1waCcsICc3LjAnLCAnLXRuJywgJzgnLCAnLW1hJywgJzIwMCcsICctaW1hZScsICc8aW5maWxlLm1hZT4nLCAnLW9tYWUnLCAnPG91dGZpbGUubWFlPic=

>  <r_lp_tautomer_probability>  (174) 
1

>  <r_epik_Ionization_Penalty>  (174) 
1.93919e-06

>  <r_epik_Ionization_Penalty_Charging>  (174) 
0

>  <r_epik_Ionization_Penalty_Neutral>  (174) 
1.93919e-06

>  <r_epik_State_Penalty>  (174) 
-0

>  <r_epik_Charging_Adjusted_Penalty>  (174) 
0

>  <i_epik_Tot_Q>  (174) 
0

>  <i_epik_Tot_abs_Q>  (174) 
0

>  <s_lp_Force_Field>  (174) 
OPLS3e

>  <r_lp_Energy>  (174) 
100.678

>  <b_lp_Chiralities_Consistent>  (174) 
1

>  <s_lp_Variant>  (174) 
63:0-1

>  <s_i_glide_gridfile>  (174) 
pfpi4k_grid

>  <i_i_glide_lignum>  (174) 
7

>  <i_i_glide_rotatable_bonds>  (174) 
2

>  <r_i_docking_score>  (174) 
-1.94289

>  <r_i_glide_ligand_efficiency>  (174) 
-0.0571437

>  <r_i_glide_ligand_efficiency_sa>  (174) 
-0.185123

>  <r_i_glide_ligand_efficiency_ln>  (174) 
-0.429238

>  <r_i_glide_gscore>  (174) 
-1.94289

>  <r_i_glide_lipo>  (174) 
-0.131624

>  <r_i_glide_hbond>  (174) 
0

>  <r_i_glide_metal>  (174) 
-0

>  <r_i_glide_rewards>  (174) 
-0.227079

>  <r_i_glide_evdw>  (174) 
-26.0187

>  <r_i_glide_ecoul>  (174) 
-1.84103

>  <r_i_glide_erotb>  (174) 
0

>  <r_i_glide_esite>  (174) 
-0.00709397

>  <r_i_glide_emodel>  (174) 
-30.478

>  <r_i_glide_energy>  (174) 
-27.8597

>  <r_i_glide_einternal>  (174) 
0.354601

>  <r_i_glide_intrahb_reward>  (174) 
-0

>  <i_i_glide_confnum>  (174) 
2

>  <i_i_glide_posenum>  (174) 
37

>  <r_i_glide_eff_state_penalty>  (174) 
0

>  <ligand_id>  (174) 
63

>  <original_smiles>  (174) 
CC1CC=CC23C=CC4C5(C)CC(O)C6C(C)(C)C(=O)CCC6(C)C5CCC4(C)C2CCC13O

>  <smiles>  (174) 
[H]OC1([H])C([H])([H])C2(C([H])([H])[H])C3([H])C([H])=C([H])C45C([H])=C([H])C([H])([H])C([H])(C([H])([H])[H])C4(O[H])C([H])([H])C([H])([H])C5([H])C3(C([H])([H])[H])C([H])([H])C([H])([H])C2([H])C2(C([H])([H])[H])C([H])([H])C([H])([H])C(=O)C(C([H])([H])[H])(C([H])([H])[H])C12[H]

$$$$
63:0:1
     RDKit          3D

 80 85  0  0  1  0  0  0  0  0999 V2000
    0.4189   -8.6670   10.0975 C   0  0  0  0  0  0  0  0  0  0  0  0
    0.3887   -8.1902    8.6278 C   0  0  2  0  0  0  0  0  0  0  0  0
   -0.1662   -9.2976    7.7208 C   0  0  0  0  0  0  0  0  0  0  0  0
    0.0564   -9.0319    6.2554 C   0  0  0  0  0  0  0  0  0  0  0  0
    0.8279   -8.0455    5.7708 C   0  0  0  0  0  0  0  0  0  0  0  0
    1.6549   -7.0695    6.6233 C   0  0  2  0  0  0  0  0  0  0  0  0
    1.0758   -5.6776    6.4341 C   0  0  0  0  0  0  0  0  0  0  0  0
    1.6806   -4.7039    5.7145 C   0  0  0  0  0  0  0  0  0  0  0  0
    3.0120   -4.8299    4.9242 C   0  0  2  0  0  0  0  0  0  0  0  0
    3.0893   -4.0311    3.5298 C   0  0  1  0  0  0  0  0  0  0  0  0
    1.7193   -3.3405    3.2491 C   0  0  0  0  0  0  0  0  0  0  0  0
    4.1154   -2.8762    3.6963 C   0  0  0  0  0  0  0  0  0  0  0  0
    4.2979   -1.9661    2.4583 C   0  0  1  0  0  0  0  0  0  0  0  0
    5.4441   -1.1758    2.7055 O   0  0  0  0  0  0  0  0  0  0  0  0
    4.2946   -2.7227    1.0899 C   0  0  1  0  0  0  0  0  0  0  0  0
    4.9551   -1.9748   -0.1310 C   0  0  0  0  0  0  0  0  0  0  0  0
    4.2516   -0.6205   -0.2962 C   0  0  0  0  0  0  0  0  0  0  0  0
    6.4887   -1.7379   -0.0097 C   0  0  0  0  0  0  0  0  0  0  0  0
    4.7073   -2.7739   -1.4272 C   0  0  0  0  0  0  0  0  0  0  0  0
    4.3541   -2.2541   -2.4870 O   0  0  0  0  0  0  0  0  0  0  0  0
    5.0162   -4.2533   -1.3542 C   0  0  0  0  0  0  0  0  0  0  0  0
    4.2701   -4.9075   -0.1825 C   0  0  0  0  0  0  0  0  0  0  0  0
    4.5371   -4.2659    1.2132 C   0  0  1  0  0  0  0  0  0  0  0  0
    6.0167   -4.5682    1.5975 C   0  0  0  0  0  0  0  0  0  0  0  0
    3.4735   -4.8839    2.2275 C   0  0  1  0  0  0  0  0  0  0  0  0
    3.6094   -6.4230    2.3893 C   0  0  0  0  0  0  0  0  0  0  0  0
    2.9894   -6.9648    3.6629 C   0  0  0  0  0  0  0  0  0  0  0  0
    3.5623   -6.2931    4.9208 C   0  0  1  0  0  0  0  0  0  0  0  0
    5.1125   -6.2794    4.8837 C   0  0  0  0  0  0  0  0  0  0  0  0
    3.1523   -6.9844    6.2621 C   0  0  2  0  0  0  0  0  0  0  0  0
    3.7283   -8.3198    6.7285 C   0  0  0  0  0  0  0  0  0  0  0  0
    2.9097   -8.6497    8.0045 C   0  0  0  0  0  0  0  0  0  0  0  0
    1.7326   -7.6228    8.0893 C   0  0  2  0  0  0  0  0  0  0  0  0
    2.1187   -6.5812    8.9758 O   0  0  0  0  0  0  0  0  0  0  0  0
    1.1275   -9.4828   10.2536 H   0  0  0  0  0  0  0  0  0  0  0  0
   -0.5607   -9.0328   10.4074 H   0  0  0  0  0  0  0  0  0  0  0  0
    0.6866   -7.8618   10.7858 H   0  0  0  0  0  0  0  0  0  0  0  0
   -0.3284   -7.3687    8.5799 H   0  0  0  0  0  0  0  0  0  0  0  0
    0.3025  -10.2478    7.9624 H   0  0  0  0  0  0  0  0  0  0  0  0
   -1.2361   -9.4111    7.8805 H   0  0  0  0  0  0  0  0  0  0  0  0
   -0.4750   -9.6943    5.5846 H   0  0  0  0  0  0  0  0  0  0  0  0
    0.8602   -7.9703    4.7063 H   0  0  0  0  0  0  0  0  0  0  0  0
    0.1564   -5.4690    6.9639 H   0  0  0  0  0  0  0  0  0  0  0  0
    1.2148   -3.7338    5.7219 H   0  0  0  0  0  0  0  0  0  0  0  0
    3.6685   -4.2996    5.6096 H   0  0  0  0  0  0  0  0  0  0  0  0
    1.6869   -2.8486    2.2755 H   0  0  0  0  0  0  0  0  0  0  0  0
    1.4951   -2.5566    3.9774 H   0  0  0  0  0  0  0  0  0  0  0  0
    0.9048   -4.0688    3.2509 H   0  0  0  0  0  0  0  0  0  0  0  0
    3.8303   -2.2423    4.5370 H   0  0  0  0  0  0  0  0  0  0  0  0
    5.0738   -3.3005    3.9931 H   0  0  0  0  0  0  0  0  0  0  0  0
    3.4671   -1.2592    2.4312 H   0  0  0  0  0  0  0  0  0  0  0  0
    6.2139   -1.7190    2.6260 H   0  0  0  0  0  0  0  0  0  0  0  0
    3.2440   -2.6925    0.8098 H   0  0  0  0  0  0  0  0  0  0  0  0
    4.4266    0.0440    0.5521 H   0  0  0  0  0  0  0  0  0  0  0  0
    3.1720   -0.7317   -0.4213 H   0  0  0  0  0  0  0  0  0  0  0  0
    4.6156   -0.0993   -1.1829 H   0  0  0  0  0  0  0  0  0  0  0  0
    6.9124   -2.1228    0.9143 H   0  0  0  0  0  0  0  0  0  0  0  0
    6.7217   -0.6739   -0.0194 H   0  0  0  0  0  0  0  0  0  0  0  0
    7.0566   -2.2010   -0.8223 H   0  0  0  0  0  0  0  0  0  0  0  0
    4.7410   -4.7151   -2.2993 H   0  0  0  0  0  0  0  0  0  0  0  0
    6.0929   -4.3465   -1.2419 H   0  0  0  0  0  0  0  0  0  0  0  0
    3.2047   -4.8506   -0.4198 H   0  0  0  0  0  0  0  0  0  0  0  0
    4.5211   -5.9710   -0.1703 H   0  0  0  0  0  0  0  0  0  0  0  0
    6.2226   -5.6181    1.7775 H   0  0  0  0  0  0  0  0  0  0  0  0
    6.3536   -4.0176    2.4690 H   0  0  0  0  0  0  0  0  0  0  0  0
    6.7023   -4.3087    0.7966 H   0  0  0  0  0  0  0  0  0  0  0  0
    2.5463   -4.8454    1.6542 H   0  0  0  0  0  0  0  0  0  0  0  0
    3.1132   -6.9080    1.5502 H   0  0  0  0  0  0  0  0  0  0  0  0
    4.6328   -6.7629    2.3336 H   0  0  0  0  0  0  0  0  0  0  0  0
    1.9300   -6.7343    3.5714 H   0  0  0  0  0  0  0  0  0  0  0  0
    3.0919   -8.0484    3.7144 H   0  0  0  0  0  0  0  0  0  0  0  0
    5.5042   -7.2788    4.6768 H   0  0  0  0  0  0  0  0  0  0  0  0
    5.5402   -5.9387    5.8271 H   0  0  0  0  0  0  0  0  0  0  0  0
    5.4950   -5.6106    4.1157 H   0  0  0  0  0  0  0  0  0  0  0  0
    3.5820   -6.2927    6.9902 H   0  0  0  0  0  0  0  0  0  0  0  0
    3.5914   -9.0895    5.9691 H   0  0  0  0  0  0  0  0  0  0  0  0
    4.7956   -8.2468    6.9411 H   0  0  0  0  0  0  0  0  0  0  0  0
    2.5426   -9.6715    7.9151 H   0  0  0  0  0  0  0  0  0  0  0  0
    3.5303   -8.6297    8.9008 H   0  0  0  0  0  0  0  0  0  0  0  0
    2.9719   -6.2717    8.7176 H   0  0  0  0  0  0  0  0  0  0  0  0
  1  2  1  0
  1 35  1  0
  1 36  1  0
  1 37  1  0
  2 33  1  0
  2  3  1  0
  2 38  1  1
  3  4  1  0
  3 39  1  0
  3 40  1  0
  4  5  2  0
  4 41  1  0
  6  5  1  6
  5 42  1  0
  6 30  1  0
  6 33  1  0
  6  7  1  0
  7  8  2  0
  7 43  1  0
  8  9  1  0
  8 44  1  0
  9 28  1  0
  9 10  1  0
  9 45  1  1
 10 25  1  0
 10 11  1  6
 10 12  1  0
 11 46  1  0
 11 47  1  0
 11 48  1  0
 12 13  1  0
 12 49  1  0
 12 50  1  0
 13 14  1  0
 13 15  1  0
 13 51  1  6
 14 52  1  0
 15 23  1  0
 15 16  1  0
 15 53  1  6
 16 17  1  0
 16 18  1  0
 16 19  1  0
 17 54  1  0
 17 55  1  0
 17 56  1  0
 18 57  1  0
 18 58  1  0
 18 59  1  0
 19 20  2  0
 19 21  1  0
 21 22  1  0
 21 60  1  0
 21 61  1  0
 22 23  1  0
 22 62  1  0
 22 63  1  0
 23 24  1  1
 23 25  1  0
 24 64  1  0
 24 65  1  0
 24 66  1  0
 25 26  1  0
 25 67  1  6
 26 27  1  0
 26 68  1  0
 26 69  1  0
 27 28  1  0
 27 70  1  0
 27 71  1  0
 28 29  1  6
 28 30  1  0
 29 72  1  0
 29 73  1  0
 29 74  1  0
 30 31  1  0
 30 75  1  1
 31 32  1  0
 31 76  1  0
 31 77  1  0
 32 33  1  0
 32 78  1  0
 32 79  1  0
 33 34  1  1
 34 80  1  0
M  END
>  <i_m_ct_stereo_status>  (175) 
1

>  <s_m_source_file>  (175) 
/var/tmp/pbs.5076255.sched01/tmppvoazpai/72cbyqjt17.sdf

>  <i_m_source_file_index>  (175) 
7

>  <i_lp_mmshare_version>  (175) 
48012

>  <i_f3d_flags>  (175) 
0

>  <s_epik_input>  (175) 
W0NIXTE9W0NIXVtDSDJdW0NAQEhdKFtDSDNdKVtDQEBdMihbT0hdKVtDSDJdW0NIMl1bQ0BIXShbQ0BAXTEyMylbQ0BdNChbQ0gzXSlbQ0BIXShbQ0hdPVtDSF0zKVtDQF01KFtDSDNdKVtDQEhdKFtDSDJdW0NIMl00KVtDQF02KFtDSDNdKVtDQEBIXShbQ0BASF0oW0NIMl01KVtPSF0pQyhbQ0gzXSkoW0NIM10pQyg9TylbQ0gyXVtDSDJdNg==

>  <s_epik_cmdline>  (175) 
J2VwaWtfcHl0aG9uJywgJy1waHQnLCAnMi4wJywgJy1waCcsICc3LjAnLCAnLXRuJywgJzgnLCAnLW1hJywgJzIwMCcsICctaW1hZScsICc8aW5maWxlLm1hZT4nLCAnLW9tYWUnLCAnPG91dGZpbGUubWFlPic=

>  <r_lp_tautomer_probability>  (175) 
1

>  <r_epik_Ionization_Penalty>  (175) 
1.93919e-06

>  <r_epik_Ionization_Penalty_Charging>  (175) 
0

>  <r_epik_Ionization_Penalty_Neutral>  (175) 
1.93919e-06

>  <r_epik_State_Penalty>  (175) 
-0

>  <r_epik_Charging_Adjusted_Penalty>  (175) 
0

>  <i_epik_Tot_Q>  (175) 
0

>  <i_epik_Tot_abs_Q>  (175) 
0

>  <s_lp_Force_Field>  (175) 
OPLS3e

>  <r_lp_Energy>  (175) 
100.678

>  <b_lp_Chiralities_Consistent>  (175) 
1

>  <s_lp_Variant>  (175) 
63:0-1

>  <s_i_glide_gridfile>  (175) 
pfpi4k_grid

>  <i_i_glide_lignum>  (175) 
7

>  <i_i_glide_rotatable_bonds>  (175) 
2

>  <r_i_docking_score>  (175) 
-1.93558

>  <r_i_glide_ligand_efficiency>  (175) 
-0.056929

>  <r_i_glide_ligand_efficiency_sa>  (175) 
-0.184428

>  <r_i_glide_ligand_efficiency_ln>  (175) 
-0.427625

>  <r_i_glide_gscore>  (175) 
-1.93558

>  <r_i_glide_lipo>  (175) 
-0.132806

>  <r_i_glide_hbond>  (175) 
0

>  <r_i_glide_metal>  (175) 
-0

>  <r_i_glide_rewards>  (175) 
-0.227079

>  <r_i_glide_evdw>  (175) 
-25.8528

>  <r_i_glide_ecoul>  (175) 
-1.82974

>  <r_i_glide_erotb>  (175) 
0

>  <r_i_glide_esite>  (175) 
-0.00859833

>  <r_i_glide_emodel>  (175) 
-30.4195

>  <r_i_glide_energy>  (175) 
-27.6825

>  <r_i_glide_einternal>  (175) 
0.075028

>  <r_i_glide_intrahb_reward>  (175) 
-0

>  <i_i_glide_confnum>  (175) 
2

>  <i_i_glide_posenum>  (175) 
1

>  <r_i_glide_eff_state_penalty>  (175) 
0

>  <ligand_id>  (175) 
63

>  <original_smiles>  (175) 
CC1CC=CC23C=CC4C5(C)CC(O)C6C(C)(C)C(=O)CCC6(C)C5CCC4(C)C2CCC13O

>  <smiles>  (175) 
[H]OC1([H])C([H])([H])C2(C([H])([H])[H])C3([H])C([H])=C([H])C45C([H])=C([H])C([H])([H])C([H])(C([H])([H])[H])C4(O[H])C([H])([H])C([H])([H])C5([H])C3(C([H])([H])[H])C([H])([H])C([H])([H])C2([H])C2(C([H])([H])[H])C([H])([H])C([H])([H])C(=O)C(C([H])([H])[H])(C([H])([H])[H])C12[H]

$$$$
64:0:0
     RDKit          3D

 38 40  0  0  1  0  0  0  0  0999 V2000
    3.3924   -1.5500   -3.8654 C   0  0  0  0  0  0  0  0  0  0  0  0
    3.6820   -1.1163   -2.6635 C   0  0  0  0  0  0  0  0  0  0  0  0
    4.0247   -0.7755   -1.4387 C   0  0  0  0  0  0  0  0  0  0  0  0
    3.7071   -1.4974   -0.2138 C   0  0  0  0  0  0  0  0  0  0  0  0
    3.9749   -2.8268   -0.0887 C   0  0  0  0  0  0  0  0  0  0  0  0
    4.7824   -3.6863   -1.0626 C   0  0  1  0  0  0  0  0  0  0  0  0
    6.1362   -3.0944   -1.5168 C   0  0  0  0  0  0  0  0  0  0  0  0
    5.0160   -5.0092   -0.3275 C   0  0  0  0  0  0  0  0  0  0  0  0
    3.8412   -5.1619    0.6211 C   0  0  0  0  0  0  0  0  0  0  0  0
    3.4783   -3.7290    1.0346 C   0  0  1  0  0  0  0  0  0  0  0  0
    3.9063   -3.3211    2.4754 C   0  0  1  0  0  0  0  0  0  0  0  0
    5.3927   -3.6129    2.7828 C   0  0  0  0  0  0  0  0  0  0  0  0
    3.4336   -1.8985    2.9127 C   0  0  2  0  0  0  0  0  0  0  0  0
    2.3179   -1.3325    2.0386 C   0  0  0  0  0  0  0  0  0  0  0  0
    3.0928   -0.6406    0.9035 C   0  0  1  0  0  0  0  0  0  0  0  0
    4.1626   -0.0785    1.6437 O   0  0  0  0  0  0  0  0  0  0  0  0
    4.4587   -0.7765    2.7382 C   0  0  0  0  0  0  0  0  0  0  0  0
    5.3790   -0.5569    3.5195 O   0  0  0  0  0  0  0  0  0  0  0  0
    4.0659   -2.2092   -4.3924 H   0  0  0  0  0  0  0  0  0  0  0  0
    2.4746   -1.2781   -4.3667 H   0  0  0  0  0  0  0  0  0  0  0  0
    4.6073    0.1239   -1.3103 H   0  0  0  0  0  0  0  0  0  0  0  0
    4.1431   -3.8905   -1.9217 H   0  0  0  0  0  0  0  0  0  0  0  0
    6.0480   -2.2820   -2.2320 H   0  0  0  0  0  0  0  0  0  0  0  0
    6.7296   -3.8514   -2.0255 H   0  0  0  0  0  0  0  0  0  0  0  0
    6.7122   -2.7320   -0.6653 H   0  0  0  0  0  0  0  0  0  0  0  0
    5.0934   -5.8523   -1.0153 H   0  0  0  0  0  0  0  0  0  0  0  0
    5.9410   -4.9577    0.2499 H   0  0  0  0  0  0  0  0  0  0  0  0
    3.0119   -5.5911    0.0566 H   0  0  0  0  0  0  0  0  0  0  0  0
    4.0443   -5.8379    1.4505 H   0  0  0  0  0  0  0  0  0  0  0  0
    2.3921   -3.7337    0.9913 H   0  0  0  0  0  0  0  0  0  0  0  0
    3.3592   -3.9991    3.1324 H   0  0  0  0  0  0  0  0  0  0  0  0
    6.0597   -3.0694    2.1133 H   0  0  0  0  0  0  0  0  0  0  0  0
    5.6238   -4.6730    2.6867 H   0  0  0  0  0  0  0  0  0  0  0  0
    5.6412   -3.3349    3.8080 H   0  0  0  0  0  0  0  0  0  0  0  0
    3.1251   -1.9205    3.9572 H   0  0  0  0  0  0  0  0  0  0  0  0
    1.5420   -2.0187    1.7073 H   0  0  0  0  0  0  0  0  0  0  0  0
    1.7827   -0.5732    2.6103 H   0  0  0  0  0  0  0  0  0  0  0  0
    2.4710    0.1430    0.4755 H   0  0  0  0  0  0  0  0  0  0  0  0
  1  2  2  0
  1 19  1  0
  1 20  1  0
  2  3  2  0
  3  4  1  0
  3 21  1  0
  4 15  1  0
  4  5  2  0
  5 10  1  0
  5  6  1  0
  6  7  1  0
  6  8  1  0
  6 22  1  6
  7 23  1  0
  7 24  1  0
  7 25  1  0
  8  9  1  0
  8 26  1  0
  8 27  1  0
  9 10  1  0
  9 28  1  0
  9 29  1  0
 10 11  1  0
 10 30  1  1
 11 12  1  0
 11 13  1  0
 11 31  1  1
 12 32  1  0
 12 33  1  0
 12 34  1  0
 13 17  1  0
 13 14  1  0
 13 35  1  1
 14 15  1  0
 14 36  1  0
 14 37  1  0
 15 16  1  0
 15 38  1  6
 16 17  1  0
 17 18  2  0
M  END
>  <i_m_ct_stereo_status>  (176) 
1

>  <s_m_source_file>  (176) 
/var/tmp/pbs.5076255.sched01/tmppvoazpai/72cbyqjt17.sdf

>  <i_m_source_file_index>  (176) 
8

>  <i_lp_mmshare_version>  (176) 
48012

>  <i_f3d_flags>  (176) 
0

>  <s_epik_input>  (176) 
W0NIMl09Qz1bQ0hdQz0xW0NASF0oT0MyPU8pW0NIMl1bQ0BIXTJbQ0BIXShbQ0gzXSlbQ0BASF0oQzEzKVtDSDJdW0NIMl1bQ0BASF0zW0NIM10=

>  <s_epik_cmdline>  (176) 
J2VwaWtfcHl0aG9uJywgJy1waHQnLCAnMi4wJywgJy1waCcsICc3LjAnLCAnLXRuJywgJzgnLCAnLW1hJywgJzIwMCcsICctaW1hZScsICc8aW5maWxlLm1hZT4nLCAnLW9tYWUnLCAnPG91dGZpbGUubWFlPic=

>  <r_lp_tautomer_probability>  (176) 
1

>  <r_epik_Ionization_Penalty>  (176) 
0

>  <r_epik_Ionization_Penalty_Charging>  (176) 
0

>  <r_epik_Ionization_Penalty_Neutral>  (176) 
0

>  <r_epik_State_Penalty>  (176) 
-0

>  <r_epik_Charging_Adjusted_Penalty>  (176) 
0

>  <i_epik_Tot_Q>  (176) 
0

>  <i_epik_Tot_abs_Q>  (176) 
0

>  <s_epik_Chemistry_Notes>  (176) 
This compound has an ester and may undergo hydrolysis at high or low pH.

>  <s_lp_Force_Field>  (176) 
OPLS3e

>  <r_lp_Energy>  (176) 
5.42688

>  <b_lp_Chiralities_Consistent>  (176) 
1

>  <s_lp_Variant>  (176) 
64:0-1

>  <s_i_glide_gridfile>  (176) 
pfpi4k_grid

>  <i_i_glide_lignum>  (176) 
8

>  <i_i_glide_rotatable_bonds>  (176) 
1

>  <r_i_docking_score>  (176) 
-2.98224

>  <r_i_glide_ligand_efficiency>  (176) 
-0.16568

>  <r_i_glide_ligand_efficiency_sa>  (176) 
-0.434204

>  <r_i_glide_ligand_efficiency_ln>  (176) 
-0.766569

>  <r_i_glide_gscore>  (176) 
-2.98224

>  <r_i_glide_lipo>  (176) 
-0.261976

>  <r_i_glide_hbond>  (176) 
0

>  <r_i_glide_metal>  (176) 
-0

>  <r_i_glide_rewards>  (176) 
-1.82882

>  <r_i_glide_evdw>  (176) 
-20.3078

>  <r_i_glide_ecoul>  (176) 
-1.11518

>  <r_i_glide_erotb>  (176) 
0.291218

>  <r_i_glide_esite>  (176) 
0

>  <r_i_glide_emodel>  (176) 
-23.6727

>  <r_i_glide_energy>  (176) 
-21.4229

>  <r_i_glide_einternal>  (176) 
3.05955

>  <r_i_glide_intrahb_reward>  (176) 
-0

>  <i_i_glide_confnum>  (176) 
3

>  <i_i_glide_posenum>  (176) 
37

>  <r_i_glide_eff_state_penalty>  (176) 
0

>  <ligand_id>  (176) 
64

>  <original_smiles>  (176) 
C=C=CC1=C2C(C)CCC2C(C)C2CC1OC2=O

>  <smiles>  (176) 
[H]C([H])=C=C([H])C1=C2C([H])(C([H])([H])[H])C([H])([H])C([H])([H])C2([H])C([H])(C([H])([H])[H])C2([H])C(=O)OC1([H])C2([H])[H]

$$$$
64:0:1
     RDKit          3D

 38 40  0  0  1  0  0  0  0  0999 V2000
    3.1253   -2.7073   -3.6661 C   0  0  0  0  0  0  0  0  0  0  0  0
    2.7027   -3.2097   -2.5303 C   0  0  0  0  0  0  0  0  0  0  0  0
    2.3498   -3.6505   -1.3421 C   0  0  0  0  0  0  0  0  0  0  0  0
    3.2253   -4.1800   -0.3000 C   0  0  0  0  0  0  0  0  0  0  0  0
    4.4011   -3.5681    0.0284 C   0  0  0  0  0  0  0  0  0  0  0  0
    4.8781   -2.1906   -0.4430 C   0  0  1  0  0  0  0  0  0  0  0  0
    3.8485   -1.0528   -0.3062 C   0  0  0  0  0  0  0  0  0  0  0  0
    6.0975   -1.8572    0.4207 C   0  0  0  0  0  0  0  0  0  0  0  0
    6.6979   -3.2041    0.7875 C   0  0  0  0  0  0  0  0  0  0  0  0
    5.5016   -4.1585    0.9016 C   0  0  1  0  0  0  0  0  0  0  0  0
    5.0883   -4.5459    2.3544 C   0  0  1  0  0  0  0  0  0  0  0  0
    4.8899   -3.3276    3.2859 C   0  0  0  0  0  0  0  0  0  0  0  0
    3.9447   -5.6056    2.4380 C   0  0  2  0  0  0  0  0  0  0  0  0
    3.7121   -6.3598    1.1283 C   0  0  0  0  0  0  0  0  0  0  0  0
    2.7113   -5.4564    0.3898 C   0  0  1  0  0  0  0  0  0  0  0  0
    1.8857   -5.0769    1.4760 O   0  0  0  0  0  0  0  0  0  0  0  0
    2.5365   -5.0440    2.6372 C   0  0  0  0  0  0  0  0  0  0  0  0
    2.0814   -4.6701    3.7128 O   0  0  0  0  0  0  0  0  0  0  0  0
    3.3941   -1.6637   -3.7361 H   0  0  0  0  0  0  0  0  0  0  0  0
    3.2177   -3.3075   -4.5581 H   0  0  0  0  0  0  0  0  0  0  0  0
    1.2990   -3.6107   -1.1070 H   0  0  0  0  0  0  0  0  0  0  0  0
    5.2147   -2.2945   -1.4741 H   0  0  0  0  0  0  0  0  0  0  0  0
    3.0526   -1.0683   -1.0462 H   0  0  0  0  0  0  0  0  0  0  0  0
    4.3425   -0.0895   -0.4376 H   0  0  0  0  0  0  0  0  0  0  0  0
    3.3747   -1.0487    0.6757 H   0  0  0  0  0  0  0  0  0  0  0  0
    6.8047   -1.2001   -0.0857 H   0  0  0  0  0  0  0  0  0  0  0  0
    5.7805   -1.3480    1.3319 H   0  0  0  0  0  0  0  0  0  0  0  0
    7.3334   -3.5274   -0.0376 H   0  0  0  0  0  0  0  0  0  0  0  0
    7.3238   -3.1700    1.6761 H   0  0  0  0  0  0  0  0  0  0  0  0
    5.8626   -5.0548    0.4027 H   0  0  0  0  0  0  0  0  0  0  0  0
    5.9576   -5.0628    2.7650 H   0  0  0  0  0  0  0  0  0  0  0  0
    4.1071   -2.6620    2.9220 H   0  0  0  0  0  0  0  0  0  0  0  0
    5.8026   -2.7408    3.3763 H   0  0  0  0  0  0  0  0  0  0  0  0
    4.6230   -3.6443    4.2952 H   0  0  0  0  0  0  0  0  0  0  0  0
    4.1464   -6.3000    3.2523 H   0  0  0  0  0  0  0  0  0  0  0  0
    4.5917   -6.6462    0.5550 H   0  0  0  0  0  0  0  0  0  0  0  0
    3.2210   -7.3047    1.3636 H   0  0  0  0  0  0  0  0  0  0  0  0
    2.1349   -6.0405   -0.3251 H   0  0  0  0  0  0  0  0  0  0  0  0
  1  2  2  0
  1 19  1  0
  1 20  1  0
  2  3  2  0
  3  4  1  0
  3 21  1  0
  4 15  1  0
  4  5  2  0
  5 10  1  0
  5  6  1  0
  6  7  1  0
  6  8  1  0
  6 22  1  6
  7 23  1  0
  7 24  1  0
  7 25  1  0
  8  9  1  0
  8 26  1  0
  8 27  1  0
  9 10  1  0
  9 28  1  0
  9 29  1  0
 10 11  1  0
 10 30  1  6
 11 12  1  0
 11 13  1  0
 11 31  1  1
 12 32  1  0
 12 33  1  0
 12 34  1  0
 13 17  1  0
 13 14  1  0
 13 35  1  1
 14 15  1  0
 14 36  1  0
 14 37  1  0
 15 16  1  0
 15 38  1  6
 16 17  1  0
 17 18  2  0
M  END
>  <i_m_ct_stereo_status>  (177) 
1

>  <s_m_source_file>  (177) 
/var/tmp/pbs.5076255.sched01/tmppvoazpai/72cbyqjt17.sdf

>  <i_m_source_file_index>  (177) 
8

>  <i_lp_mmshare_version>  (177) 
48012

>  <i_f3d_flags>  (177) 
0

>  <s_epik_input>  (177) 
W0NIMl09Qz1bQ0hdQz0xW0NASF0oT0MyPU8pW0NIMl1bQ0BIXTJbQ0BIXShbQ0gzXSlbQ0BASF0oQzEzKVtDSDJdW0NIMl1bQ0BASF0zW0NIM10=

>  <s_epik_cmdline>  (177) 
J2VwaWtfcHl0aG9uJywgJy1waHQnLCAnMi4wJywgJy1waCcsICc3LjAnLCAnLXRuJywgJzgnLCAnLW1hJywgJzIwMCcsICctaW1hZScsICc8aW5maWxlLm1hZT4nLCAnLW9tYWUnLCAnPG91dGZpbGUubWFlPic=

>  <r_lp_tautomer_probability>  (177) 
1

>  <r_epik_Ionization_Penalty>  (177) 
0

>  <r_epik_Ionization_Penalty_Charging>  (177) 
0

>  <r_epik_Ionization_Penalty_Neutral>  (177) 
0

>  <r_epik_State_Penalty>  (177) 
-0

>  <r_epik_Charging_Adjusted_Penalty>  (177) 
0

>  <i_epik_Tot_Q>  (177) 
0

>  <i_epik_Tot_abs_Q>  (177) 
0

>  <s_epik_Chemistry_Notes>  (177) 
This compound has an ester and may undergo hydrolysis at high or low pH.

>  <s_lp_Force_Field>  (177) 
OPLS3e

>  <r_lp_Energy>  (177) 
5.42688

>  <b_lp_Chiralities_Consistent>  (177) 
1

>  <s_lp_Variant>  (177) 
64:0-1

>  <s_i_glide_gridfile>  (177) 
pfpi4k_grid

>  <i_i_glide_lignum>  (177) 
8

>  <i_i_glide_rotatable_bonds>  (177) 
1

>  <r_i_docking_score>  (177) 
-2.89131

>  <r_i_glide_ligand_efficiency>  (177) 
-0.160629

>  <r_i_glide_ligand_efficiency_sa>  (177) 
-0.420966

>  <r_i_glide_ligand_efficiency_ln>  (177) 
-0.743197

>  <r_i_glide_gscore>  (177) 
-2.89131

>  <r_i_glide_lipo>  (177) 
-0.623019

>  <r_i_glide_hbond>  (177) 
-0.0489151

>  <r_i_glide_metal>  (177) 
-0

>  <r_i_glide_rewards>  (177) 
-1.74321

>  <r_i_glide_evdw>  (177) 
-18.2629

>  <r_i_glide_ecoul>  (177) 
1.01371

>  <r_i_glide_erotb>  (177) 
0.291218

>  <r_i_glide_esite>  (177) 
-0.00629775

>  <r_i_glide_emodel>  (177) 
-19.3762

>  <r_i_glide_energy>  (177) 
-17.2492

>  <r_i_glide_einternal>  (177) 
2.97097

>  <r_i_glide_intrahb_reward>  (177) 
-0

>  <i_i_glide_confnum>  (177) 
2

>  <i_i_glide_posenum>  (177) 
2

>  <r_i_glide_eff_state_penalty>  (177) 
0

>  <ligand_id>  (177) 
64

>  <original_smiles>  (177) 
C=C=CC1=C2C(C)CCC2C(C)C2CC1OC2=O

>  <smiles>  (177) 
[H]C([H])=C=C([H])C1=C2C([H])(C([H])([H])[H])C([H])([H])C([H])([H])C2([H])C([H])(C([H])([H])[H])C2([H])C(=O)OC1([H])C2([H])[H]

$$$$
64:0:2
     RDKit          3D

 38 40  0  0  1  0  0  0  0  0999 V2000
    3.8587   -0.6428   -2.7860 C   0  0  0  0  0  0  0  0  0  0  0  0
    3.6453   -1.6142   -1.9310 C   0  0  0  0  0  0  0  0  0  0  0  0
    3.3806   -2.5711   -1.0679 C   0  0  0  0  0  0  0  0  0  0  0  0
    3.1639   -2.4139    0.3687 C   0  0  0  0  0  0  0  0  0  0  0  0
    3.0633   -3.5131    1.1711 C   0  0  0  0  0  0  0  0  0  0  0  0
    3.3555   -4.9694    0.7763 C   0  0  1  0  0  0  0  0  0  0  0  0
    4.7037   -5.2266    0.0631 C   0  0  0  0  0  0  0  0  0  0  0  0
    3.3499   -5.7532    2.0963 C   0  0  0  0  0  0  0  0  0  0  0  0
    2.4156   -4.9924    3.0204 C   0  0  0  0  0  0  0  0  0  0  0  0
    2.5795   -3.5183    2.6202 C   0  0  1  0  0  0  0  0  0  0  0  0
    3.3940   -2.6381    3.6163 C   0  0  1  0  0  0  0  0  0  0  0  0
    4.7665   -3.2438    3.9926 C   0  0  0  0  0  0  0  0  0  0  0  0
    3.4442   -1.1215    3.2453 C   0  0  2  0  0  0  0  0  0  0  0  0
    2.3775   -0.7007    2.2346 C   0  0  0  0  0  0  0  0  0  0  0  0
    3.0662   -0.9633    0.8894 C   0  0  1  0  0  0  0  0  0  0  0  0
    4.3788   -0.5219    1.1920 O   0  0  0  0  0  0  0  0  0  0  0  0
    4.6889   -0.6709    2.4782 C   0  0  0  0  0  0  0  0  0  0  0  0
    5.7782   -0.4444    2.9931 O   0  0  0  0  0  0  0  0  0  0  0  0
    3.0370   -0.1538   -3.2935 H   0  0  0  0  0  0  0  0  0  0  0  0
    4.8562   -0.2984   -3.0105 H   0  0  0  0  0  0  0  0  0  0  0  0
    3.2741   -3.5595   -1.4848 H   0  0  0  0  0  0  0  0  0  0  0  0
    2.5243   -5.3198    0.1645 H   0  0  0  0  0  0  0  0  0  0  0  0
    4.7265   -4.9264   -0.9824 H   0  0  0  0  0  0  0  0  0  0  0  0
    4.9288   -6.2941    0.0579 H   0  0  0  0  0  0  0  0  0  0  0  0
    5.5204   -4.7171    0.5754 H   0  0  0  0  0  0  0  0  0  0  0  0
    3.0617   -6.7972    1.9693 H   0  0  0  0  0  0  0  0  0  0  0  0
    4.3485   -5.7495    2.5356 H   0  0  0  0  0  0  0  0  0  0  0  0
    1.3959   -5.3118    2.8068 H   0  0  0  0  0  0  0  0  0  0  0  0
    2.5919   -5.1941    4.0764 H   0  0  0  0  0  0  0  0  0  0  0  0
    1.5532   -3.1591    2.6206 H   0  0  0  0  0  0  0  0  0  0  0  0
    2.8221   -2.6626    4.5461 H   0  0  0  0  0  0  0  0  0  0  0  0
    5.4031   -3.3771    3.1179 H   0  0  0  0  0  0  0  0  0  0  0  0
    4.6570   -4.2165    4.4704 H   0  0  0  0  0  0  0  0  0  0  0  0
    5.2957   -2.6066    4.7021 H   0  0  0  0  0  0  0  0  0  0  0  0
    3.3738   -0.5197    4.1491 H   0  0  0  0  0  0  0  0  0  0  0  0
    1.3872   -1.1406    2.3388 H   0  0  0  0  0  0  0  0  0  0  0  0
    2.2129    0.3737    2.3325 H   0  0  0  0  0  0  0  0  0  0  0  0
    2.6152   -0.3212    0.1324 H   0  0  0  0  0  0  0  0  0  0  0  0
  1  2  2  0
  1 19  1  0
  1 20  1  0
  2  3  2  0
  3  4  1  0
  3 21  1  0
  4 15  1  0
  4  5  2  0
  5 10  1  0
  5  6  1  0
  6  7  1  0
  6  8  1  0
  6 22  1  6
  7 23  1  0
  7 24  1  0
  7 25  1  0
  8  9  1  0
  8 26  1  0
  8 27  1  0
  9 10  1  0
  9 28  1  0
  9 29  1  0
 10 11  1  0
 10 30  1  6
 11 12  1  0
 11 13  1  0
 11 31  1  1
 12 32  1  0
 12 33  1  0
 12 34  1  0
 13 17  1  0
 13 14  1  0
 13 35  1  1
 14 15  1  0
 14 36  1  0
 14 37  1  0
 15 16  1  0
 15 38  1  6
 16 17  1  0
 17 18  2  0
M  END
>  <i_m_ct_stereo_status>  (178) 
1

>  <s_m_source_file>  (178) 
/var/tmp/pbs.5076255.sched01/tmppvoazpai/72cbyqjt17.sdf

>  <i_m_source_file_index>  (178) 
8

>  <i_lp_mmshare_version>  (178) 
48012

>  <i_f3d_flags>  (178) 
0

>  <s_epik_input>  (178) 
W0NIMl09Qz1bQ0hdQz0xW0NASF0oT0MyPU8pW0NIMl1bQ0BIXTJbQ0BIXShbQ0gzXSlbQ0BASF0oQzEzKVtDSDJdW0NIMl1bQ0BASF0zW0NIM10=

>  <s_epik_cmdline>  (178) 
J2VwaWtfcHl0aG9uJywgJy1waHQnLCAnMi4wJywgJy1waCcsICc3LjAnLCAnLXRuJywgJzgnLCAnLW1hJywgJzIwMCcsICctaW1hZScsICc8aW5maWxlLm1hZT4nLCAnLW9tYWUnLCAnPG91dGZpbGUubWFlPic=

>  <r_lp_tautomer_probability>  (178) 
1

>  <r_epik_Ionization_Penalty>  (178) 
0

>  <r_epik_Ionization_Penalty_Charging>  (178) 
0

>  <r_epik_Ionization_Penalty_Neutral>  (178) 
0

>  <r_epik_State_Penalty>  (178) 
-0

>  <r_epik_Charging_Adjusted_Penalty>  (178) 
0

>  <i_epik_Tot_Q>  (178) 
0

>  <i_epik_Tot_abs_Q>  (178) 
0

>  <s_epik_Chemistry_Notes>  (178) 
This compound has an ester and may undergo hydrolysis at high or low pH.

>  <s_lp_Force_Field>  (178) 
OPLS3e

>  <r_lp_Energy>  (178) 
5.42688

>  <b_lp_Chiralities_Consistent>  (178) 
1

>  <s_lp_Variant>  (178) 
64:0-1

>  <s_i_glide_gridfile>  (178) 
pfpi4k_grid

>  <i_i_glide_lignum>  (178) 
8

>  <i_i_glide_rotatable_bonds>  (178) 
1

>  <r_i_docking_score>  (178) 
-2.86322

>  <r_i_glide_ligand_efficiency>  (178) 
-0.159068

>  <r_i_glide_ligand_efficiency_sa>  (178) 
-0.416876

>  <r_i_glide_ligand_efficiency_ln>  (178) 
-0.735977

>  <r_i_glide_gscore>  (178) 
-2.86322

>  <r_i_glide_lipo>  (178) 
-0.122157

>  <r_i_glide_hbond>  (178) 
0

>  <r_i_glide_metal>  (178) 
-0

>  <r_i_glide_rewards>  (178) 
-1.86973

>  <r_i_glide_evdw>  (178) 
-18.7917

>  <r_i_glide_ecoul>  (178) 
-1.48647

>  <r_i_glide_erotb>  (178) 
0.291218

>  <r_i_glide_esite>  (178) 
0

>  <r_i_glide_emodel>  (178) 
-23.8886

>  <r_i_glide_energy>  (178) 
-20.2782

>  <r_i_glide_einternal>  (178) 
0.0248447

>  <r_i_glide_intrahb_reward>  (178) 
-0

>  <i_i_glide_confnum>  (178) 
1

>  <i_i_glide_posenum>  (178) 
12

>  <r_i_glide_eff_state_penalty>  (178) 
0

>  <ligand_id>  (178) 
64

>  <original_smiles>  (178) 
C=C=CC1=C2C(C)CCC2C(C)C2CC1OC2=O

>  <smiles>  (178) 
[H]C([H])=C=C([H])C1=C2C([H])(C([H])([H])[H])C([H])([H])C([H])([H])C2([H])C([H])(C([H])([H])[H])C2([H])C(=O)OC1([H])C2([H])[H]

$$$$
65:0:0
     RDKit          3D

 52 57  0  0  1  0  0  0  0  0999 V2000
    4.1289   -2.9640    0.6688 C   0  0  0  0  0  0  0  0  0  0  0  0
    4.8689   -3.8883    1.4496 O   0  0  0  0  0  0  0  0  0  0  0  0
    4.3140   -5.1160    1.7014 C   0  0  0  0  0  0  0  0  0  0  0  0
    3.0471   -5.5541    1.2196 C   0  0  0  0  0  0  0  0  0  0  0  0
    2.6376   -6.8989    1.3873 C   0  0  0  0  0  0  0  0  0  0  0  0
    3.4343   -7.8098    2.1112 C   0  0  0  0  0  0  0  0  0  0  0  0
    4.5805   -7.2824    2.7328 C   0  0  0  0  0  0  0  0  0  0  0  0
    5.0736   -6.0292    2.4610 C   0  0  0  0  0  0  0  0  0  0  0  0
    6.5446   -6.1193    2.8018 C   0  0  1  0  0  0  0  0  0  0  0  0
    6.6920   -7.1970    3.7211 O   0  0  0  0  0  0  0  0  0  0  0  0
    5.5846   -8.0760    3.5420 C   0  0  1  0  0  0  0  0  0  0  0  0
    5.1047   -8.4250    4.9726 C   0  0  0  0  0  0  0  0  0  0  0  0
    3.9312   -9.4008    4.9724 C   0  0  0  0  0  0  0  0  0  0  0  0
    4.1671  -10.5557    4.0511 N   0  0  1  0  0  0  0  0  0  0  0  0
    3.1115  -11.6188    4.1149 C   0  0  0  0  0  0  0  0  0  0  0  0
    1.7054  -11.0936    4.3552 C   0  0  0  0  0  0  0  0  0  0  0  0
    0.6020  -12.0488    4.7553 C   0  0  0  0  0  0  0  0  0  0  0  0
    0.5968  -11.4394    3.3737 C   0  0  0  0  0  0  0  0  0  0  0  0
    4.5670  -10.1280    2.6640 C   0  0  1  0  0  0  0  0  0  0  0  0
    3.3896   -9.3353    2.0168 C   0  0  0  0  0  0  0  0  0  0  0  0
    5.9233   -9.3332    2.7215 C   0  0  2  0  0  0  0  0  0  0  0  0
    6.8874  -10.1562    3.3734 O   0  0  0  0  0  0  0  0  0  0  0  0
    6.5168   -8.9831    1.3251 C   0  0  0  0  0  0  0  0  0  0  0  0
    7.7101   -7.9750    1.3204 C   0  0  0  0  0  0  0  0  0  0  0  0
    7.3413   -6.4975    1.5467 C   0  0  0  0  0  0  0  0  0  0  0  0
    7.6914   -5.6346    0.7423 O   0  0  0  0  0  0  0  0  0  0  0  0
    4.7050   -2.0444    0.5661 H   0  0  0  0  0  0  0  0  0  0  0  0
    3.1833   -2.7152    1.1502 H   0  0  0  0  0  0  0  0  0  0  0  0
    3.9384   -3.3543   -0.3314 H   0  0  0  0  0  0  0  0  0  0  0  0
    2.4306   -4.9074    0.6157 H   0  0  0  0  0  0  0  0  0  0  0  0
    1.7430   -7.2603    0.8915 H   0  0  0  0  0  0  0  0  0  0  0  0
    6.9078   -5.1885    3.2293 H   0  0  0  0  0  0  0  0  0  0  0  0
    5.9378   -8.8345    5.5564 H   0  0  0  0  0  0  0  0  0  0  0  0
    4.7949   -7.5204    5.4905 H   0  0  0  0  0  0  0  0  0  0  0  0
    3.7551   -9.7670    5.9814 H   0  0  0  0  0  0  0  0  0  0  0  0
    3.0413   -8.8529    4.6696 H   0  0  0  0  0  0  0  0  0  0  0  0
    3.1420  -12.2237    3.2136 H   0  0  0  0  0  0  0  0  0  0  0  0
    3.3745  -12.2875    4.9274 H   0  0  0  0  0  0  0  0  0  0  0  0
    1.6140  -10.1429    4.8775 H   0  0  0  0  0  0  0  0  0  0  0  0
    0.8382  -13.1029    4.8661 H   0  0  0  0  0  0  0  0  0  0  0  0
   -0.0833  -11.6641    5.5057 H   0  0  0  0  0  0  0  0  0  0  0  0
   -0.1169  -10.6455    3.1669 H   0  0  0  0  0  0  0  0  0  0  0  0
    0.8143  -12.0991    2.5323 H   0  0  0  0  0  0  0  0  0  0  0  0
    4.7437  -11.0367    2.0822 H   0  0  0  0  0  0  0  0  0  0  0  0
    2.4191   -9.6624    2.3931 H   0  0  0  0  0  0  0  0  0  0  0  0
    3.3782   -9.5940    0.9604 H   0  0  0  0  0  0  0  0  0  0  0  0
    6.6626  -10.2692    4.2838 H   0  0  0  0  0  0  0  0  0  0  0  0
    6.8560   -9.9107    0.8631 H   0  0  0  0  0  0  0  0  0  0  0  0
    5.7366   -8.6090    0.6572 H   0  0  0  0  0  0  0  0  0  0  0  0
    8.4629   -8.2597    2.0528 H   0  0  0  0  0  0  0  0  0  0  0  0
    8.2107   -8.0305    0.3533 H   0  0  0  0  0  0  0  0  0  0  0  0
    4.9832  -11.0500    4.4019 H   0  0  0  0  0  0  0  0  0  0  0  0
  1  2  1  0
  1 27  1  0
  1 28  1  0
  1 29  1  0
  2  3  1  0
  3  8  2  0
  3  4  1  0
  4  5  2  0
  4 30  1  0
  5  6  1  0
  5 31  1  0
  6 20  1  0
  6  7  2  0
  7 11  1  0
  7  8  1  0
  8  9  1  0
  9 25  1  0
  9 10  1  0
  9 32  1  1
 10 11  1  0
 11 21  1  0
 11 12  1  1
 12 13  1  0
 12 33  1  0
 12 34  1  0
 13 14  1  0
 13 35  1  0
 13 36  1  0
 14 15  1  0
 14 19  1  0
 14 52  1  1
 15 16  1  0
 15 37  1  0
 15 38  1  0
 16 18  1  0
 16 17  1  0
 16 39  1  0
 17 18  1  0
 17 40  1  0
 17 41  1  0
 18 42  1  0
 18 43  1  0
 19 20  1  0
 19 21  1  0
 19 44  1  6
 20 45  1  0
 20 46  1  0
 21 22  1  1
 21 23  1  0
 22 47  1  0
 23 24  1  0
 23 48  1  0
 23 49  1  0
 24 25  1  0
 24 50  1  0
 24 51  1  0
 25 26  2  0
M  CHG  1  14   1
M  END
>  <i_m_ct_stereo_status>  (179) 
1

>  <s_m_source_file>  (179) 
/var/tmp/pbs.5076255.sched01/tmppvoazpai/72cbyqjt17.sdf

>  <i_m_source_file_index>  (179) 
9

>  <i_lp_mmshare_version>  (179) 
48012

>  <i_f3d_flags>  (179) 
0

>  <s_epik_input>  (179) 
W0NAXTEyM2M0YzVbY0hdW2NIXWMoT1tDSDNdKWM0W0NAQEhdKE8xKUMoPU8pW0NIMl1bQ0gyXVtDQF0zKFtPSF0pW0NASF0oW0NIMl01KU4oW0NIMl1bQ0gyXTIpW0NIMl1bQ0hdNltDSDJdW0NIMl02

>  <s_epik_cmdline>  (179) 
J2VwaWtfcHl0aG9uJywgJy1waHQnLCAnMi4wJywgJy1waCcsICc3LjAnLCAnLXRuJywgJzgnLCAnLW1hJywgJzIwMCcsICctaW1hZScsICc8aW5maWxlLm1hZT4nLCAnLW9tYWUnLCAnPG91dGZpbGUubWFlPic=

>  <r_lp_tautomer_probability>  (179) 
1

>  <r_epik_Ionization_Penalty>  (179) 
0.0362296

>  <r_epik_Ionization_Penalty_Charging>  (179) 
0.0362295

>  <r_epik_Ionization_Penalty_Neutral>  (179) 
1.19174e-07

>  <r_epik_State_Penalty>  (179) 
0.0302523

>  <r_epik_Charging_Adjusted_Penalty>  (179) 
0.0664818

>  <i_epik_Tot_Q>  (179) 
1

>  <i_epik_Tot_abs_Q>  (179) 
1

>  <s_lp_Force_Field>  (179) 
OPLS3e

>  <r_lp_Energy>  (179) 
68.27

>  <b_lp_Chiralities_Consistent>  (179) 
1

>  <s_lp_Variant>  (179) 
65:0-1

>  <s_i_glide_gridfile>  (179) 
pfpi4k_grid

>  <i_i_glide_lignum>  (179) 
9

>  <i_i_glide_rotatable_bonds>  (179) 
4

>  <r_i_docking_score>  (179) 
-2.68032

>  <r_i_glide_ligand_efficiency>  (179) 
-0.103089

>  <r_i_glide_ligand_efficiency_sa>  (179) 
-0.305401

>  <r_i_glide_ligand_efficiency_ln>  (179) 
-0.629463

>  <r_i_glide_gscore>  (179) 
-2.68032

>  <r_i_glide_lipo>  (179) 
-0.226554

>  <r_i_glide_hbond>  (179) 
0

>  <r_i_glide_metal>  (179) 
-0

>  <r_i_glide_rewards>  (179) 
-1.0198

>  <r_i_glide_evdw>  (179) 
-21.1022

>  <r_i_glide_ecoul>  (179) 
-4.44768

>  <r_i_glide_erotb>  (179) 
0.301187

>  <r_i_glide_esite>  (179) 
-0.0128905

>  <r_i_glide_emodel>  (179) 
-27.7835

>  <r_i_glide_energy>  (179) 
-25.5499

>  <r_i_glide_einternal>  (179) 
5.67422

>  <r_i_glide_intrahb_reward>  (179) 
-0

>  <i_i_glide_confnum>  (179) 
1

>  <i_i_glide_posenum>  (179) 
36

>  <r_i_glide_eff_state_penalty>  (179) 
0

>  <ligand_id>  (179) 
65

>  <original_smiles>  (179) 
COc1ccc2c3c1C1OC34CCN(CC3CC3)C(C2)C4(O)CCC1=O

>  <smiles>  (179) 
[H]OC12C([H])([H])C([H])([H])C(=O)C3([H])OC14c1c3c(OC([H])([H])[H])c([H])c([H])c1C([H])([H])C2([H])[N+]([H])(C([H])([H])C1([H])C([H])([H])C1([H])[H])C([H])([H])C4([H])[H]

$$$$
65:0:1
     RDKit          3D

 52 57  0  0  1  0  0  0  0  0999 V2000
    5.2718   -0.2496    0.2941 C   0  0  0  0  0  0  0  0  0  0  0  0
    5.4554   -1.4472    1.0266 O   0  0  0  0  0  0  0  0  0  0  0  0
    4.4700   -2.3936    0.9568 C   0  0  0  0  0  0  0  0  0  0  0  0
    3.3906   -2.3780    0.0367 C   0  0  0  0  0  0  0  0  0  0  0  0
    2.5407   -3.4984   -0.0881 C   0  0  0  0  0  0  0  0  0  0  0  0
    2.6386   -4.5887    0.8044 C   0  0  0  0  0  0  0  0  0  0  0  0
    3.6048   -4.4722    1.8085 C   0  0  0  0  0  0  0  0  0  0  0  0
    4.5616   -3.4857    1.8366 C   0  0  0  0  0  0  0  0  0  0  0  0
    5.6939   -4.0840    2.6289 C   0  0  1  0  0  0  0  0  0  0  0  0
    5.1353   -5.0989    3.4519 O   0  0  0  0  0  0  0  0  0  0  0  0
    3.9247   -5.5282    2.8348 C   0  0  1  0  0  0  0  0  0  0  0  0
    2.8829   -5.6145    3.9687 C   0  0  0  0  0  0  0  0  0  0  0  0
    1.5303   -6.1490    3.5107 C   0  0  0  0  0  0  0  0  0  0  0  0
    1.6852   -7.3768    2.6762 N   0  0  1  0  0  0  0  0  0  0  0  0
    0.3894   -7.9993    2.2656 C   0  0  0  0  0  0  0  0  0  0  0  0
   -0.4969   -8.3627    3.4441 C   0  0  0  0  0  0  0  0  0  0  0  0
   -2.0074   -8.3667    3.2962 C   0  0  0  0  0  0  0  0  0  0  0  0
   -1.3505   -7.3036    4.1217 C   0  0  0  0  0  0  0  0  0  0  0  0
    2.6249   -7.1452    1.5301 C   0  0  1  0  0  0  0  0  0  0  0  0
    2.0708   -5.9957    0.6186 C   0  0  0  0  0  0  0  0  0  0  0  0
    4.0609   -6.8613    2.0840 C   0  0  2  0  0  0  0  0  0  0  0  0
    4.3474   -7.9180    2.9904 O   0  0  0  0  0  0  0  0  0  0  0  0
    5.1829   -6.8110    0.9935 C   0  0  0  0  0  0  0  0  0  0  0  0
    6.5730   -6.2899    1.4625 C   0  0  0  0  0  0  0  0  0  0  0  0
    6.6761   -4.7704    1.6682 C   0  0  0  0  0  0  0  0  0  0  0  0
    7.5398   -4.1228    1.0822 O   0  0  0  0  0  0  0  0  0  0  0  0
    6.1401    0.3792    0.4738 H   0  0  0  0  0  0  0  0  0  0  0  0
    4.3884    0.2843    0.6373 H   0  0  0  0  0  0  0  0  0  0  0  0
    5.1920   -0.4320   -0.7790 H   0  0  0  0  0  0  0  0  0  0  0  0
    3.2410   -1.5710   -0.6615 H   0  0  0  0  0  0  0  0  0  0  0  0
    1.8144   -3.5308   -0.8859 H   0  0  0  0  0  0  0  0  0  0  0  0
    6.1753   -3.3116    3.2194 H   0  0  0  0  0  0  0  0  0  0  0  0
    3.2575   -6.2826    4.7479 H   0  0  0  0  0  0  0  0  0  0  0  0
    2.7411   -4.6441    4.4477 H   0  0  0  0  0  0  0  0  0  0  0  0
    0.9929   -6.3730    4.4280 H   0  0  0  0  0  0  0  0  0  0  0  0
    0.9752   -5.3747    2.9759 H   0  0  0  0  0  0  0  0  0  0  0  0
   -0.1949   -7.3574    1.6072 H   0  0  0  0  0  0  0  0  0  0  0  0
    0.5883   -8.9131    1.7058 H   0  0  0  0  0  0  0  0  0  0  0  0
   -0.0890   -9.1452    4.0905 H   0  0  0  0  0  0  0  0  0  0  0  0
   -2.4473   -8.0698    2.3448 H   0  0  0  0  0  0  0  0  0  0  0  0
   -2.5671   -9.1026    3.8604 H   0  0  0  0  0  0  0  0  0  0  0  0
   -1.3910   -7.3720    5.2094 H   0  0  0  0  0  0  0  0  0  0  0  0
   -1.3189   -6.2920    3.7200 H   0  0  0  0  0  0  0  0  0  0  0  0
    2.6561   -8.0730    0.9582 H   0  0  0  0  0  0  0  0  0  0  0  0
    0.9850   -5.9401    0.6153 H   0  0  0  0  0  0  0  0  0  0  0  0
    2.3387   -6.2408   -0.4001 H   0  0  0  0  0  0  0  0  0  0  0  0
    4.5176   -8.7134    2.5047 H   0  0  0  0  0  0  0  0  0  0  0  0
    5.3145   -7.8129    0.5864 H   0  0  0  0  0  0  0  0  0  0  0  0
    4.8669   -6.2057    0.1390 H   0  0  0  0  0  0  0  0  0  0  0  0
    6.8879   -6.7948    2.3736 H   0  0  0  0  0  0  0  0  0  0  0  0
    7.3103   -6.5445    0.7044 H   0  0  0  0  0  0  0  0  0  0  0  0
    2.1613   -8.0557    3.2610 H   0  0  0  0  0  0  0  0  0  0  0  0
  1  2  1  0
  1 27  1  0
  1 28  1  0
  1 29  1  0
  2  3  1  0
  3  8  2  0
  3  4  1  0
  4  5  2  0
  4 30  1  0
  5  6  1  0
  5 31  1  0
  6 20  1  0
  6  7  2  0
  7 11  1  0
  7  8  1  0
  8  9  1  0
  9 25  1  0
  9 10  1  0
  9 32  1  1
 10 11  1  0
 11 21  1  0
 11 12  1  1
 12 13  1  0
 12 33  1  0
 12 34  1  0
 13 14  1  0
 13 35  1  0
 13 36  1  0
 14 15  1  0
 14 19  1  0
 14 52  1  1
 15 16  1  0
 15 37  1  0
 15 38  1  0
 16 18  1  0
 16 17  1  0
 16 39  1  0
 17 18  1  0
 17 40  1  0
 17 41  1  0
 18 42  1  0
 18 43  1  0
 19 20  1  0
 19 21  1  0
 19 44  1  6
 20 45  1  0
 20 46  1  0
 21 22  1  1
 21 23  1  0
 22 47  1  0
 23 24  1  0
 23 48  1  0
 23 49  1  0
 24 25  1  0
 24 50  1  0
 24 51  1  0
 25 26  2  0
M  CHG  1  14   1
M  END
>  <i_m_ct_stereo_status>  (180) 
1

>  <s_m_source_file>  (180) 
/var/tmp/pbs.5076255.sched01/tmppvoazpai/72cbyqjt17.sdf

>  <i_m_source_file_index>  (180) 
9

>  <i_lp_mmshare_version>  (180) 
48012

>  <i_f3d_flags>  (180) 
0

>  <s_epik_input>  (180) 
W0NAXTEyM2M0YzVbY0hdW2NIXWMoT1tDSDNdKWM0W0NAQEhdKE8xKUMoPU8pW0NIMl1bQ0gyXVtDQF0zKFtPSF0pW0NASF0oW0NIMl01KU4oW0NIMl1bQ0gyXTIpW0NIMl1bQ0hdNltDSDJdW0NIMl02

>  <s_epik_cmdline>  (180) 
J2VwaWtfcHl0aG9uJywgJy1waHQnLCAnMi4wJywgJy1waCcsICc3LjAnLCAnLXRuJywgJzgnLCAnLW1hJywgJzIwMCcsICctaW1hZScsICc8aW5maWxlLm1hZT4nLCAnLW9tYWUnLCAnPG91dGZpbGUubWFlPic=

>  <r_lp_tautomer_probability>  (180) 
1

>  <r_epik_Ionization_Penalty>  (180) 
0.0362296

>  <r_epik_Ionization_Penalty_Charging>  (180) 
0.0362295

>  <r_epik_Ionization_Penalty_Neutral>  (180) 
1.19174e-07

>  <r_epik_State_Penalty>  (180) 
0.0302523

>  <r_epik_Charging_Adjusted_Penalty>  (180) 
0.0664818

>  <i_epik_Tot_Q>  (180) 
1

>  <i_epik_Tot_abs_Q>  (180) 
1

>  <s_lp_Force_Field>  (180) 
OPLS3e

>  <r_lp_Energy>  (180) 
68.27

>  <b_lp_Chiralities_Consistent>  (180) 
1

>  <s_lp_Variant>  (180) 
65:0-1

>  <s_i_glide_gridfile>  (180) 
pfpi4k_grid

>  <i_i_glide_lignum>  (180) 
9

>  <i_i_glide_rotatable_bonds>  (180) 
4

>  <r_i_docking_score>  (180) 
-2.46195

>  <r_i_glide_ligand_efficiency>  (180) 
-0.0946903

>  <r_i_glide_ligand_efficiency_sa>  (180) 
-0.28052

>  <r_i_glide_ligand_efficiency_ln>  (180) 
-0.57818

>  <r_i_glide_gscore>  (180) 
-2.46195

>  <r_i_glide_lipo>  (180) 
-0.381256

>  <r_i_glide_hbond>  (180) 
0

>  <r_i_glide_metal>  (180) 
-0

>  <r_i_glide_rewards>  (180) 
-1.08116

>  <r_i_glide_evdw>  (180) 
-19.6261

>  <r_i_glide_ecoul>  (180) 
-2.01858

>  <r_i_glide_erotb>  (180) 
0.301187

>  <r_i_glide_esite>  (180) 
-0.0166304

>  <r_i_glide_emodel>  (180) 
-25.783

>  <r_i_glide_energy>  (180) 
-21.6447

>  <r_i_glide_einternal>  (180) 
1.36572

>  <r_i_glide_intrahb_reward>  (180) 
-0

>  <i_i_glide_confnum>  (180) 
1

>  <i_i_glide_posenum>  (180) 
11

>  <r_i_glide_eff_state_penalty>  (180) 
0

>  <ligand_id>  (180) 
65

>  <original_smiles>  (180) 
COc1ccc2c3c1C1OC34CCN(CC3CC3)C(C2)C4(O)CCC1=O

>  <smiles>  (180) 
[H]OC12C([H])([H])C([H])([H])C(=O)C3([H])OC14c1c3c(OC([H])([H])[H])c([H])c([H])c1C([H])([H])C2([H])[N+]([H])(C([H])([H])C1([H])C([H])([H])C1([H])[H])C([H])([H])C4([H])[H]

$$$$
65:0:2
     RDKit          3D

 52 57  0  0  1  0  0  0  0  0999 V2000
    5.4697   -0.3736    0.1212 C   0  0  0  0  0  0  0  0  0  0  0  0
    5.5587   -1.5131    0.9476 O   0  0  0  0  0  0  0  0  0  0  0  0
    4.5439   -2.4341    0.8753 C   0  0  0  0  0  0  0  0  0  0  0  0
    3.4840   -2.3977   -0.0693 C   0  0  0  0  0  0  0  0  0  0  0  0
    2.6008   -3.5004   -0.1927 C   0  0  0  0  0  0  0  0  0  0  0  0
    2.6568   -4.5760    0.7165 C   0  0  0  0  0  0  0  0  0  0  0  0
    3.6042   -4.4704    1.7421 C   0  0  0  0  0  0  0  0  0  0  0  0
    4.5890   -3.5071    1.7755 C   0  0  0  0  0  0  0  0  0  0  0  0
    5.6871   -4.1268    2.6017 C   0  0  1  0  0  0  0  0  0  0  0  0
    5.0829   -5.1166    3.4254 O   0  0  0  0  0  0  0  0  0  0  0  0
    3.8715   -5.5138    2.7888 C   0  0  1  0  0  0  0  0  0  0  0  0
    2.7967   -5.5599    3.9021 C   0  0  0  0  0  0  0  0  0  0  0  0
    1.4426   -6.0747    3.4126 C   0  0  0  0  0  0  0  0  0  0  0  0
    1.6036   -7.3109    2.6039 N   0  0  1  0  0  0  0  0  0  0  0  0
    0.3041   -7.8939    2.1674 C   0  0  0  0  0  0  0  0  0  0  0  0
   -0.5323   -8.4111    3.3195 C   0  0  0  0  0  0  0  0  0  0  0  0
   -2.0400   -8.5560    3.1698 C   0  0  0  0  0  0  0  0  0  0  0  0
   -1.4783   -7.4843    4.0616 C   0  0  0  0  0  0  0  0  0  0  0  0
    2.5707   -7.1192    1.4819 C   0  0  1  0  0  0  0  0  0  0  0  0
    2.0690   -5.9799    0.5375 C   0  0  0  0  0  0  0  0  0  0  0  0
    4.0038   -6.8513    2.0584 C   0  0  2  0  0  0  0  0  0  0  0  0
    4.2957   -7.8678    2.9939 O   0  0  0  0  0  0  0  0  0  0  0  0
    5.1510   -6.8544    0.9985 C   0  0  0  0  0  0  0  0  0  0  0  0
    6.5451   -6.3674    1.4942 C   0  0  0  0  0  0  0  0  0  0  0  0
    6.6782   -4.8477    1.6784 C   0  0  0  0  0  0  0  0  0  0  0  0
    7.5781   -4.2315    1.1108 O   0  0  0  0  0  0  0  0  0  0  0  0
    6.3498    0.2386    0.3016 H   0  0  0  0  0  0  0  0  0  0  0  0
    4.5851    0.2141    0.3667 H   0  0  0  0  0  0  0  0  0  0  0  0
    5.4557   -0.6363   -0.9373 H   0  0  0  0  0  0  0  0  0  0  0  0
    3.3783   -1.6035   -0.7845 H   0  0  0  0  0  0  0  0  0  0  0  0
    1.8956   -3.5274   -1.0100 H   0  0  0  0  0  0  0  0  0  0  0  0
    6.1742   -3.3577    3.1958 H   0  0  0  0  0  0  0  0  0  0  0  0
    3.1334   -6.2253    4.7014 H   0  0  0  0  0  0  0  0  0  0  0  0
    2.6668   -4.5797    4.3614 H   0  0  0  0  0  0  0  0  0  0  0  0
    0.8381   -6.2738    4.2946 H   0  0  0  0  0  0  0  0  0  0  0  0
    0.9259   -5.2949    2.8495 H   0  0  0  0  0  0  0  0  0  0  0  0
   -0.3048   -7.1941    1.5963 H   0  0  0  0  0  0  0  0  0  0  0  0
    0.5117   -8.7350    1.5219 H   0  0  0  0  0  0  0  0  0  0  0  0
   -0.0531   -9.1965    3.9094 H   0  0  0  0  0  0  0  0  0  0  0  0
   -2.5032   -8.2376    2.2357 H   0  0  0  0  0  0  0  0  0  0  0  0
   -2.5212   -9.3962    3.6691 H   0  0  0  0  0  0  0  0  0  0  0  0
   -1.5090   -7.6253    5.1410 H   0  0  0  0  0  0  0  0  0  0  0  0
   -1.5279   -6.4508    3.7232 H   0  0  0  0  0  0  0  0  0  0  0  0
    2.6056   -8.0587    0.9277 H   0  0  0  0  0  0  0  0  0  0  0  0
    0.9813   -5.9055    0.5053 H   0  0  0  0  0  0  0  0  0  0  0  0
    2.3456   -6.2446   -0.4682 H   0  0  0  0  0  0  0  0  0  0  0  0
    5.1476   -7.6785    3.3633 H   0  0  0  0  0  0  0  0  0  0  0  0
    5.2637   -7.8724    0.6201 H   0  0  0  0  0  0  0  0  0  0  0  0
    4.8715   -6.2615    0.1245 H   0  0  0  0  0  0  0  0  0  0  0  0
    6.8293   -6.8615    2.4196 H   0  0  0  0  0  0  0  0  0  0  0  0
    7.2934   -6.6542    0.7595 H   0  0  0  0  0  0  0  0  0  0  0  0
    2.0499   -8.0046    3.1974 H   0  0  0  0  0  0  0  0  0  0  0  0
  1  2  1  0
  1 27  1  0
  1 28  1  0
  1 29  1  0
  2  3  1  0
  3  8  2  0
  3  4  1  0
  4  5  2  0
  4 30  1  0
  5  6  1  0
  5 31  1  0
  6 20  1  0
  6  7  2  0
  7 11  1  0
  7  8  1  0
  8  9  1  0
  9 25  1  0
  9 10  1  0
  9 32  1  1
 10 11  1  0
 11 21  1  0
 11 12  1  1
 12 13  1  0
 12 33  1  0
 12 34  1  0
 13 14  1  0
 13 35  1  0
 13 36  1  0
 14 15  1  0
 14 19  1  0
 14 52  1  1
 15 16  1  0
 15 37  1  0
 15 38  1  0
 16 18  1  0
 16 17  1  0
 16 39  1  0
 17 18  1  0
 17 40  1  0
 17 41  1  0
 18 42  1  0
 18 43  1  0
 19 20  1  0
 19 21  1  0
 19 44  1  6
 20 45  1  0
 20 46  1  0
 21 22  1  1
 21 23  1  0
 22 47  1  0
 23 24  1  0
 23 48  1  0
 23 49  1  0
 24 25  1  0
 24 50  1  0
 24 51  1  0
 25 26  2  0
M  CHG  1  14   1
M  END
>  <i_m_ct_stereo_status>  (181) 
1

>  <s_m_source_file>  (181) 
/var/tmp/pbs.5076255.sched01/tmppvoazpai/72cbyqjt17.sdf

>  <i_m_source_file_index>  (181) 
9

>  <i_lp_mmshare_version>  (181) 
48012

>  <i_f3d_flags>  (181) 
0

>  <s_epik_input>  (181) 
W0NAXTEyM2M0YzVbY0hdW2NIXWMoT1tDSDNdKWM0W0NAQEhdKE8xKUMoPU8pW0NIMl1bQ0gyXVtDQF0zKFtPSF0pW0NASF0oW0NIMl01KU4oW0NIMl1bQ0gyXTIpW0NIMl1bQ0hdNltDSDJdW0NIMl02

>  <s_epik_cmdline>  (181) 
J2VwaWtfcHl0aG9uJywgJy1waHQnLCAnMi4wJywgJy1waCcsICc3LjAnLCAnLXRuJywgJzgnLCAnLW1hJywgJzIwMCcsICctaW1hZScsICc8aW5maWxlLm1hZT4nLCAnLW9tYWUnLCAnPG91dGZpbGUubWFlPic=

>  <r_lp_tautomer_probability>  (181) 
1

>  <r_epik_Ionization_Penalty>  (181) 
0.0362296

>  <r_epik_Ionization_Penalty_Charging>  (181) 
0.0362295

>  <r_epik_Ionization_Penalty_Neutral>  (181) 
1.19174e-07

>  <r_epik_State_Penalty>  (181) 
0.0302523

>  <r_epik_Charging_Adjusted_Penalty>  (181) 
0.0664818

>  <i_epik_Tot_Q>  (181) 
1

>  <i_epik_Tot_abs_Q>  (181) 
1

>  <s_lp_Force_Field>  (181) 
OPLS3e

>  <r_lp_Energy>  (181) 
68.27

>  <b_lp_Chiralities_Consistent>  (181) 
1

>  <s_lp_Variant>  (181) 
65:0-1

>  <s_i_glide_gridfile>  (181) 
pfpi4k_grid

>  <i_i_glide_lignum>  (181) 
9

>  <i_i_glide_rotatable_bonds>  (181) 
4

>  <r_i_docking_score>  (181) 
-2.34414

>  <r_i_glide_ligand_efficiency>  (181) 
-0.0901593

>  <r_i_glide_ligand_efficiency_sa>  (181) 
-0.267097

>  <r_i_glide_ligand_efficiency_ln>  (181) 
-0.550514

>  <r_i_glide_gscore>  (181) 
-2.34414

>  <r_i_glide_lipo>  (181) 
-0.323877

>  <r_i_glide_hbond>  (181) 
0

>  <r_i_glide_metal>  (181) 
-0

>  <r_i_glide_rewards>  (181) 
-1.08021

>  <r_i_glide_evdw>  (181) 
-19.1981

>  <r_i_glide_ecoul>  (181) 
-1.74737

>  <r_i_glide_erotb>  (181) 
0.301187

>  <r_i_glide_esite>  (181) 
-0.0192283

>  <r_i_glide_emodel>  (181) 
-25.5627

>  <r_i_glide_energy>  (181) 
-20.9455

>  <r_i_glide_einternal>  (181) 
0.431051

>  <r_i_glide_intrahb_reward>  (181) 
-0

>  <i_i_glide_confnum>  (181) 
1

>  <i_i_glide_posenum>  (181) 
7

>  <r_i_glide_eff_state_penalty>  (181) 
0

>  <ligand_id>  (181) 
65

>  <original_smiles>  (181) 
COc1ccc2c3c1C1OC34CCN(CC3CC3)C(C2)C4(O)CCC1=O

>  <smiles>  (181) 
[H]OC12C([H])([H])C([H])([H])C(=O)C3([H])OC14c1c3c(OC([H])([H])[H])c([H])c([H])c1C([H])([H])C2([H])[N+]([H])(C([H])([H])C1([H])C([H])([H])C1([H])[H])C([H])([H])C4([H])[H]

$$$$
65:1:0
     RDKit          3D

 51 56  0  0  1  0  0  0  0  0999 V2000
    4.5501   -3.7161   -2.7044 C   0  0  0  0  0  0  0  0  0  0  0  0
    4.5802   -2.6953   -1.7229 O   0  0  0  0  0  0  0  0  0  0  0  0
    3.8429   -2.8811   -0.5763 C   0  0  0  0  0  0  0  0  0  0  0  0
    3.2947   -4.1214   -0.1462 C   0  0  0  0  0  0  0  0  0  0  0  0
    2.7335   -4.2563    1.1479 C   0  0  0  0  0  0  0  0  0  0  0  0
    2.5954   -3.1324    1.9906 C   0  0  0  0  0  0  0  0  0  0  0  0
    2.9704   -1.8979    1.4433 C   0  0  0  0  0  0  0  0  0  0  0  0
    3.6684   -1.7659    0.2664 C   0  0  0  0  0  0  0  0  0  0  0  0
    4.4043   -0.4549    0.4158 C   0  0  1  0  0  0  0  0  0  0  0  0
    3.6751    0.3269    1.3533 O   0  0  0  0  0  0  0  0  0  0  0  0
    2.9149   -0.5693    2.1577 C   0  0  1  0  0  0  0  0  0  0  0  0
    1.4982    0.0379    2.2655 C   0  0  0  0  0  0  0  0  0  0  0  0
    0.5740   -0.8209    3.1284 C   0  0  0  0  0  0  0  0  0  0  0  0
    1.1553   -1.2458    4.4060 N   0  0  0  0  0  0  0  0  0  0  0  0
    0.9807   -0.3121    5.5126 C   0  0  0  0  0  0  0  0  0  0  0  0
   -0.4677   -0.0491    5.8583 C   0  0  0  0  0  0  0  0  0  0  0  0
   -1.1487    1.1904    5.3269 C   0  0  0  0  0  0  0  0  0  0  0  0
   -0.8187    1.0859    6.7939 C   0  0  0  0  0  0  0  0  0  0  0  0
    2.5221   -1.7796    4.2492 C   0  0  1  0  0  0  0  0  0  0  0  0
    2.3859   -3.1373    3.5072 C   0  0  0  0  0  0  0  0  0  0  0  0
    3.5334   -0.7968    3.5372 C   0  0  2  0  0  0  0  0  0  0  0  0
    3.6328    0.4353    4.2296 O   0  0  0  0  0  0  0  0  0  0  0  0
    4.9958   -1.3335    3.4661 C   0  0  0  0  0  0  0  0  0  0  0  0
    5.9618   -0.5238    2.5562 C   0  0  0  0  0  0  0  0  0  0  0  0
    5.7814   -0.7263    1.0377 C   0  0  0  0  0  0  0  0  0  0  0  0
    6.7242   -1.0807    0.3299 O   0  0  0  0  0  0  0  0  0  0  0  0
    5.1673   -3.4175   -3.5505 H   0  0  0  0  0  0  0  0  0  0  0  0
    3.5318   -3.8600   -3.0649 H   0  0  0  0  0  0  0  0  0  0  0  0
    4.9480   -4.6553   -2.3247 H   0  0  0  0  0  0  0  0  0  0  0  0
    3.4037   -5.0215   -0.7251 H   0  0  0  0  0  0  0  0  0  0  0  0
    2.4614   -5.2369    1.5147 H   0  0  0  0  0  0  0  0  0  0  0  0
    4.5091    0.0485   -0.5424 H   0  0  0  0  0  0  0  0  0  0  0  0
    1.5572    1.0378    2.7001 H   0  0  0  0  0  0  0  0  0  0  0  0
    1.0585    0.1699    1.2785 H   0  0  0  0  0  0  0  0  0  0  0  0
   -0.3659   -0.2942    3.2765 H   0  0  0  0  0  0  0  0  0  0  0  0
    0.3145   -1.7067    2.5526 H   0  0  0  0  0  0  0  0  0  0  0  0
    1.4501   -0.7317    6.4039 H   0  0  0  0  0  0  0  0  0  0  0  0
    1.4704    0.6371    5.3058 H   0  0  0  0  0  0  0  0  0  0  0  0
   -1.0783   -0.9473    5.9428 H   0  0  0  0  0  0  0  0  0  0  0  0
   -0.5456    1.8466    4.7019 H   0  0  0  0  0  0  0  0  0  0  0  0
   -2.1861    1.0870    5.0219 H   0  0  0  0  0  0  0  0  0  0  0  0
   -1.6488    0.9457    7.4822 H   0  0  0  0  0  0  0  0  0  0  0  0
    0.0074    1.6853    7.1721 H   0  0  0  0  0  0  0  0  0  0  0  0
    2.9090   -1.9994    5.2442 H   0  0  0  0  0  0  0  0  0  0  0  0
    1.4212   -3.6037    3.7326 H   0  0  0  0  0  0  0  0  0  0  0  0
    3.1432   -3.8069    3.9090 H   0  0  0  0  0  0  0  0  0  0  0  0
    4.0362    1.0625    3.6422 H   0  0  0  0  0  0  0  0  0  0  0  0
    5.4074   -1.3402    4.4765 H   0  0  0  0  0  0  0  0  0  0  0  0
    5.0195   -2.3755    3.1466 H   0  0  0  0  0  0  0  0  0  0  0  0
    5.8984    0.5354    2.7972 H   0  0  0  0  0  0  0  0  0  0  0  0
    6.9858   -0.8063    2.7826 H   0  0  0  0  0  0  0  0  0  0  0  0
  1  2  1  0
  1 27  1  0
  1 28  1  0
  1 29  1  0
  2  3  1  0
  3  8  2  0
  3  4  1  0
  4  5  2  0
  4 30  1  0
  5  6  1  0
  5 31  1  0
  6 20  1  0
  6  7  2  0
  7 11  1  0
  7  8  1  0
  8  9  1  0
  9 25  1  0
  9 10  1  0
  9 32  1  6
 10 11  1  0
 11 21  1  0
 11 12  1  1
 12 13  1  0
 12 33  1  0
 12 34  1  0
 13 14  1  0
 13 35  1  0
 13 36  1  0
 14 15  1  0
 14 19  1  0
 15 16  1  0
 15 37  1  0
 15 38  1  0
 16 18  1  0
 16 17  1  0
 16 39  1  0
 17 18  1  0
 17 40  1  0
 17 41  1  0
 18 42  1  0
 18 43  1  0
 19 20  1  0
 19 21  1  0
 19 44  1  1
 20 45  1  0
 20 46  1  0
 21 22  1  1
 21 23  1  0
 22 47  1  0
 23 24  1  0
 23 48  1  0
 23 49  1  0
 24 25  1  0
 24 50  1  0
 24 51  1  0
 25 26  2  0
M  END
>  <i_m_ct_stereo_status>  (182) 
1

>  <s_m_source_file>  (182) 
/var/tmp/pbs.5076255.sched01/tmppvoazpai/72cbyqjt17.sdf

>  <i_m_source_file_index>  (182) 
10

>  <i_lp_mmshare_version>  (182) 
48012

>  <i_f3d_flags>  (182) 
0

>  <s_epik_input>  (182) 
W0NAXTEyM2M0YzVbY0hdW2NIXWMoT1tDSDNdKWM0W0NAQEhdKE8xKUMoPU8pW0NIMl1bQ0gyXVtDQF0zKFtPSF0pW0NASF0oW0NIMl01KU4oW0NIMl1bQ0gyXTIpW0NIMl1bQ0hdNltDSDJdW0NIMl02

>  <s_epik_cmdline>  (182) 
J2VwaWtfcHl0aG9uJywgJy1waHQnLCAnMi4wJywgJy1waCcsICc3LjAnLCAnLXRuJywgJzgnLCAnLW1hJywgJzIwMCcsICctaW1hZScsICc8aW5maWxlLm1hZT4nLCAnLW9tYWUnLCAnPG91dGZpbGUubWFlPic=

>  <r_lp_tautomer_probability>  (182) 
1

>  <r_epik_Ionization_Penalty>  (182) 
1.6737

>  <r_epik_Ionization_Penalty_Charging>  (182) 
0

>  <r_epik_Ionization_Penalty_Neutral>  (182) 
1.6737

>  <r_epik_State_Penalty>  (182) 
1.77756

>  <r_epik_Charging_Adjusted_Penalty>  (182) 
1.77756

>  <i_epik_Tot_Q>  (182) 
0

>  <i_epik_Tot_abs_Q>  (182) 
0

>  <s_lp_Force_Field>  (182) 
OPLS3e

>  <r_lp_Energy>  (182) 
75.4691

>  <b_lp_Chiralities_Consistent>  (182) 
1

>  <s_lp_Variant>  (182) 
65:0-2

>  <s_i_glide_gridfile>  (182) 
pfpi4k_grid

>  <i_i_glide_lignum>  (182) 
10

>  <i_i_glide_rotatable_bonds>  (182) 
4

>  <r_i_docking_score>  (182) 
-2.55353

>  <r_i_glide_ligand_efficiency>  (182) 
-0.0982126

>  <r_i_glide_ligand_efficiency_sa>  (182) 
-0.290954

>  <r_i_glide_ligand_efficiency_ln>  (182) 
-0.599687

>  <r_i_glide_gscore>  (182) 
-2.55353

>  <r_i_glide_lipo>  (182) 
-0.260244

>  <r_i_glide_hbond>  (182) 
-0.0229341

>  <r_i_glide_metal>  (182) 
-0

>  <r_i_glide_rewards>  (182) 
-1.12814

>  <r_i_glide_evdw>  (182) 
-21.1954

>  <r_i_glide_ecoul>  (182) 
-2.56767

>  <r_i_glide_erotb>  (182) 
0.302709

>  <r_i_glide_esite>  (182) 
0

>  <r_i_glide_emodel>  (182) 
-27.305

>  <r_i_glide_energy>  (182) 
-23.7631

>  <r_i_glide_einternal>  (182) 
0.501361

>  <r_i_glide_intrahb_reward>  (182) 
-0

>  <i_i_glide_confnum>  (182) 
2

>  <i_i_glide_posenum>  (182) 
4

>  <r_i_glide_eff_state_penalty>  (182) 
0

>  <ligand_id>  (182) 
65

>  <original_smiles>  (182) 
COc1ccc2c3c1C1OC34CCN(CC3CC3)C(C2)C4(O)CCC1=O

>  <smiles>  (182) 
[H]OC12C([H])([H])C([H])([H])C(=O)C3([H])OC14c1c3c(OC([H])([H])[H])c([H])c([H])c1C([H])([H])C2([H])N(C([H])([H])C1([H])C([H])([H])C1([H])[H])C([H])([H])C4([H])[H]

$$$$
65:1:1
     RDKit          3D

 51 56  0  0  1  0  0  0  0  0999 V2000
    3.8409   -5.7732    0.1809 C   0  0  0  0  0  0  0  0  0  0  0  0
    3.7371   -4.3624    0.2834 O   0  0  0  0  0  0  0  0  0  0  0  0
    3.0352   -3.8396    1.3425 C   0  0  0  0  0  0  0  0  0  0  0  0
    2.3667   -4.6095    2.3362 C   0  0  0  0  0  0  0  0  0  0  0  0
    1.8342   -3.9891    3.4975 C   0  0  0  0  0  0  0  0  0  0  0  0
    1.8534   -2.5837    3.6298 C   0  0  0  0  0  0  0  0  0  0  0  0
    2.3526   -1.8593    2.5361 C   0  0  0  0  0  0  0  0  0  0  0  0
    3.0152   -2.4356    1.4762 C   0  0  0  0  0  0  0  0  0  0  0  0
    3.9063   -1.3336    0.9507 C   0  0  1  0  0  0  0  0  0  0  0  0
    3.3156   -0.0951    1.3354 O   0  0  0  0  0  0  0  0  0  0  0  0
    2.4856   -0.3560    2.4648 C   0  0  1  0  0  0  0  0  0  0  0  0
    1.1490    0.3856    2.2186 C   0  0  0  0  0  0  0  0  0  0  0  0
    0.1674    0.2041    3.3783 C   0  0  0  0  0  0  0  0  0  0  0  0
    0.7571    0.4290    4.7045 N   0  0  0  0  0  0  0  0  0  0  0  0
    0.7389    1.8102    5.1679 C   0  0  0  0  0  0  0  0  0  0  0  0
   -0.6543    2.3758    5.3288 C   0  0  0  0  0  0  0  0  0  0  0  0
   -1.2326    3.2770    4.2627 C   0  0  0  0  0  0  0  0  0  0  0  0
   -0.8415    3.8494    5.6021 C   0  0  0  0  0  0  0  0  0  0  0  0
    2.0486   -0.2673    4.8694 C   0  0  1  0  0  0  0  0  0  0  0  0
    1.7256   -1.7849    4.9294 C   0  0  0  0  0  0  0  0  0  0  0  0
    3.1339    0.0847    3.7781 C   0  0  2  0  0  0  0  0  0  0  0  0
    3.4026    1.4762    3.7598 O   0  0  0  0  0  0  0  0  0  0  0  0
    4.5233   -0.5840    4.0230 C   0  0  0  0  0  0  0  0  0  0  0  0
    5.5443   -0.4807    2.8551 C   0  0  0  0  0  0  0  0  0  0  0  0
    5.2792   -1.4038    1.6493 C   0  0  0  0  0  0  0  0  0  0  0  0
    6.1592   -2.1555    1.2314 O   0  0  0  0  0  0  0  0  0  0  0  0
    4.4227   -6.0204   -0.7055 H   0  0  0  0  0  0  0  0  0  0  0  0
    2.8590   -6.2332    0.0797 H   0  0  0  0  0  0  0  0  0  0  0  0
    4.3527   -6.1936    1.0458 H   0  0  0  0  0  0  0  0  0  0  0  0
    2.3489   -5.6881    2.2926 H   0  0  0  0  0  0  0  0  0  0  0  0
    1.4708   -4.5984    4.3147 H   0  0  0  0  0  0  0  0  0  0  0  0
    4.0195   -1.4023   -0.1325 H   0  0  0  0  0  0  0  0  0  0  0  0
    1.3374    1.4508    2.0777 H   0  0  0  0  0  0  0  0  0  0  0  0
    0.6848    0.0475    1.2909 H   0  0  0  0  0  0  0  0  0  0  0  0
   -0.6951    0.8476    3.2208 H   0  0  0  0  0  0  0  0  0  0  0  0
   -0.2276   -0.8101    3.3293 H   0  0  0  0  0  0  0  0  0  0  0  0
    1.2175    1.8622    6.1477 H   0  0  0  0  0  0  0  0  0  0  0  0
    1.3041    2.4561    4.4974 H   0  0  0  0  0  0  0  0  0  0  0  0
   -1.3491    1.7108    5.8410 H   0  0  0  0  0  0  0  0  0  0  0  0
   -0.5940    3.4799    3.4025 H   0  0  0  0  0  0  0  0  0  0  0  0
   -2.2912    3.1602    4.0415 H   0  0  0  0  0  0  0  0  0  0  0  0
   -1.6433    4.1358    6.2796 H   0  0  0  0  0  0  0  0  0  0  0  0
    0.0612    4.4565    5.6561 H   0  0  0  0  0  0  0  0  0  0  0  0
    2.4521    0.0107    5.8432 H   0  0  0  0  0  0  0  0  0  0  0  0
    0.7301   -1.9473    5.3540 H   0  0  0  0  0  0  0  0  0  0  0  0
    2.4224   -2.2367    5.6307 H   0  0  0  0  0  0  0  0  0  0  0  0
    3.9159    1.6776    2.9871 H   0  0  0  0  0  0  0  0  0  0  0  0
    4.9711   -0.1182    4.9015 H   0  0  0  0  0  0  0  0  0  0  0  0
    4.4135   -1.6389    4.2917 H   0  0  0  0  0  0  0  0  0  0  0  0
    5.6122    0.5400    2.4941 H   0  0  0  0  0  0  0  0  0  0  0  0
    6.5342   -0.7194    3.2316 H   0  0  0  0  0  0  0  0  0  0  0  0
  1  2  1  0
  1 27  1  0
  1 28  1  0
  1 29  1  0
  2  3  1  0
  3  8  2  0
  3  4  1  0
  4  5  2  0
  4 30  1  0
  5  6  1  0
  5 31  1  0
  6 20  1  0
  6  7  2  0
  7 11  1  0
  7  8  1  0
  8  9  1  0
  9 25  1  0
  9 10  1  0
  9 32  1  6
 10 11  1  0
 11 21  1  0
 11 12  1  6
 12 13  1  0
 12 33  1  0
 12 34  1  0
 13 14  1  0
 13 35  1  0
 13 36  1  0
 14 15  1  0
 14 19  1  0
 15 16  1  0
 15 37  1  0
 15 38  1  0
 16 18  1  0
 16 17  1  0
 16 39  1  0
 17 18  1  0
 17 40  1  0
 17 41  1  0
 18 42  1  0
 18 43  1  0
 19 20  1  0
 19 21  1  0
 19 44  1  1
 20 45  1  0
 20 46  1  0
 21 22  1  6
 21 23  1  0
 22 47  1  0
 23 24  1  0
 23 48  1  0
 23 49  1  0
 24 25  1  0
 24 50  1  0
 24 51  1  0
 25 26  2  0
M  END
>  <i_m_ct_stereo_status>  (183) 
1

>  <s_m_source_file>  (183) 
/var/tmp/pbs.5076255.sched01/tmppvoazpai/72cbyqjt17.sdf

>  <i_m_source_file_index>  (183) 
10

>  <i_lp_mmshare_version>  (183) 
48012

>  <i_f3d_flags>  (183) 
0

>  <s_epik_input>  (183) 
W0NAXTEyM2M0YzVbY0hdW2NIXWMoT1tDSDNdKWM0W0NAQEhdKE8xKUMoPU8pW0NIMl1bQ0gyXVtDQF0zKFtPSF0pW0NASF0oW0NIMl01KU4oW0NIMl1bQ0gyXTIpW0NIMl1bQ0hdNltDSDJdW0NIMl02

>  <s_epik_cmdline>  (183) 
J2VwaWtfcHl0aG9uJywgJy1waHQnLCAnMi4wJywgJy1waCcsICc3LjAnLCAnLXRuJywgJzgnLCAnLW1hJywgJzIwMCcsICctaW1hZScsICc8aW5maWxlLm1hZT4nLCAnLW9tYWUnLCAnPG91dGZpbGUubWFlPic=

>  <r_lp_tautomer_probability>  (183) 
1

>  <r_epik_Ionization_Penalty>  (183) 
1.6737

>  <r_epik_Ionization_Penalty_Charging>  (183) 
0

>  <r_epik_Ionization_Penalty_Neutral>  (183) 
1.6737

>  <r_epik_State_Penalty>  (183) 
1.77756

>  <r_epik_Charging_Adjusted_Penalty>  (183) 
1.77756

>  <i_epik_Tot_Q>  (183) 
0

>  <i_epik_Tot_abs_Q>  (183) 
0

>  <s_lp_Force_Field>  (183) 
OPLS3e

>  <r_lp_Energy>  (183) 
75.4691

>  <b_lp_Chiralities_Consistent>  (183) 
1

>  <s_lp_Variant>  (183) 
65:0-2

>  <s_i_glide_gridfile>  (183) 
pfpi4k_grid

>  <i_i_glide_lignum>  (183) 
10

>  <i_i_glide_rotatable_bonds>  (183) 
4

>  <r_i_docking_score>  (183) 
-2.20507

>  <r_i_glide_ligand_efficiency>  (183) 
-0.0848103

>  <r_i_glide_ligand_efficiency_sa>  (183) 
-0.25125

>  <r_i_glide_ligand_efficiency_ln>  (183) 
-0.517853

>  <r_i_glide_gscore>  (183) 
-2.20507

>  <r_i_glide_lipo>  (183) 
-0.168398

>  <r_i_glide_hbond>  (183) 
0

>  <r_i_glide_metal>  (183) 
-0

>  <r_i_glide_rewards>  (183) 
-1.13189

>  <r_i_glide_evdw>  (183) 
-19.7279

>  <r_i_glide_ecoul>  (183) 
-1.47398

>  <r_i_glide_erotb>  (183) 
0.302709

>  <r_i_glide_esite>  (183) 
0

>  <r_i_glide_emodel>  (183) 
-24.5387

>  <r_i_glide_energy>  (183) 
-21.2019

>  <r_i_glide_einternal>  (183) 
0.0659922

>  <r_i_glide_intrahb_reward>  (183) 
-0

>  <i_i_glide_confnum>  (183) 
2

>  <i_i_glide_posenum>  (183) 
38

>  <r_i_glide_eff_state_penalty>  (183) 
0

>  <ligand_id>  (183) 
65

>  <original_smiles>  (183) 
COc1ccc2c3c1C1OC34CCN(CC3CC3)C(C2)C4(O)CCC1=O

>  <smiles>  (183) 
[H]OC12C([H])([H])C([H])([H])C(=O)C3([H])OC14c1c3c(OC([H])([H])[H])c([H])c([H])c1C([H])([H])C2([H])N(C([H])([H])C1([H])C([H])([H])C1([H])[H])C([H])([H])C4([H])[H]

$$$$
65:1:2
     RDKit          3D

 51 56  0  0  1  0  0  0  0  0999 V2000
    4.1166   -3.9091    4.4444 C   0  0  0  0  0  0  0  0  0  0  0  0
    3.8373   -2.6611    3.8447 O   0  0  0  0  0  0  0  0  0  0  0  0
    2.6133   -2.0786    4.1039 C   0  0  0  0  0  0  0  0  0  0  0  0
    1.6177   -2.6306    4.9507 C   0  0  0  0  0  0  0  0  0  0  0  0
    0.4708   -1.8748    5.3226 C   0  0  0  0  0  0  0  0  0  0  0  0
    0.2344   -0.5978    4.7352 C   0  0  0  0  0  0  0  0  0  0  0  0
    1.1589   -0.1839    3.7819 C   0  0  0  0  0  0  0  0  0  0  0  0
    2.3504   -0.8269    3.4996 C   0  0  0  0  0  0  0  0  0  0  0  0
    3.2388    0.2571    2.9419 C   0  0  1  0  0  0  0  0  0  0  0  0
    2.3833    1.2402    2.3739 O   0  0  0  0  0  0  0  0  0  0  0  0
    1.1248    1.1441    3.0330 C   0  0  1  0  0  0  0  0  0  0  0  0
    0.0482    1.2081    1.9289 C   0  0  0  0  0  0  0  0  0  0  0  0
   -1.3764    1.1397    2.5014 C   0  0  0  0  0  0  0  0  0  0  0  0
   -1.5965    2.0252    3.6439 N   0  0  0  0  0  0  0  0  0  0  0  0
   -2.0437    3.3601    3.2981 C   0  0  0  0  0  0  0  0  0  0  0  0
   -3.5425    3.4152    3.0887 C   0  0  0  0  0  0  0  0  0  0  0  0
   -4.2154    3.0568    1.7887 C   0  0  0  0  0  0  0  0  0  0  0  0
   -4.1335    4.4995    2.1990 C   0  0  0  0  0  0  0  0  0  0  0  0
   -0.5297    1.9264    4.6388 C   0  0  1  0  0  0  0  0  0  0  0  0
   -0.6590    0.5182    5.2838 C   0  0  0  0  0  0  0  0  0  0  0  0
    0.9044    2.2279    4.0845 C   0  0  2  0  0  0  0  0  0  0  0  0
    0.9224    3.5199    3.5024 O   0  0  0  0  0  0  0  0  0  0  0  0
    2.0145    2.2315    5.1797 C   0  0  0  0  0  0  0  0  0  0  0  0
    3.4749    2.2659    4.6557 C   0  0  0  0  0  0  0  0  0  0  0  0
    4.0041    0.9369    4.0954 C   0  0  0  0  0  0  0  0  0  0  0  0
    5.0489    0.4473    4.5208 O   0  0  0  0  0  0  0  0  0  0  0  0
    5.1112   -4.2291    4.1367 H   0  0  0  0  0  0  0  0  0  0  0  0
    3.4064   -4.6666    4.1202 H   0  0  0  0  0  0  0  0  0  0  0  0
    4.1092   -3.8400    5.5304 H   0  0  0  0  0  0  0  0  0  0  0  0
    1.7595   -3.5857    5.4456 H   0  0  0  0  0  0  0  0  0  0  0  0
   -0.1913   -2.2370    6.0917 H   0  0  0  0  0  0  0  0  0  0  0  0
    3.9264   -0.1498    2.2046 H   0  0  0  0  0  0  0  0  0  0  0  0
    0.1593    2.1368    1.3609 H   0  0  0  0  0  0  0  0  0  0  0  0
    0.2207    0.4056    1.2169 H   0  0  0  0  0  0  0  0  0  0  0  0
   -2.0760    1.3225    1.6983 H   0  0  0  0  0  0  0  0  0  0  0  0
   -1.5537    0.1176    2.8143 H   0  0  0  0  0  0  0  0  0  0  0  0
   -1.8158    4.0486    4.1098 H   0  0  0  0  0  0  0  0  0  0  0  0
   -1.5192    3.7162    2.4174 H   0  0  0  0  0  0  0  0  0  0  0  0
   -4.1052    3.1594    3.9834 H   0  0  0  0  0  0  0  0  0  0  0  0
   -3.5821    2.6785    1.0120 H   0  0  0  0  0  0  0  0  0  0  0  0
   -5.1854    2.5711    1.8379 H   0  0  0  0  0  0  0  0  0  0  0  0
   -5.0771    4.9665    2.4803 H   0  0  0  0  0  0  0  0  0  0  0  0
   -3.4297    5.1627    1.7050 H   0  0  0  0  0  0  0  0  0  0  0  0
   -0.7467    2.6364    5.4342 H   0  0  0  0  0  0  0  0  0  0  0  0
   -1.6955    0.1775    5.2733 H   0  0  0  0  0  0  0  0  0  0  0  0
   -0.3872    0.6159    6.3330 H   0  0  0  0  0  0  0  0  0  0  0  0
    0.5731    3.4817    2.6128 H   0  0  0  0  0  0  0  0  0  0  0  0
    1.8592    3.1059    5.8115 H   0  0  0  0  0  0  0  0  0  0  0  0
    1.9117    1.3778    5.8500 H   0  0  0  0  0  0  0  0  0  0  0  0
    3.6003    3.0478    3.9077 H   0  0  0  0  0  0  0  0  0  0  0  0
    4.1284    2.5322    5.4875 H   0  0  0  0  0  0  0  0  0  0  0  0
  1  2  1  0
  1 27  1  0
  1 28  1  0
  1 29  1  0
  2  3  1  0
  3  8  2  0
  3  4  1  0
  4  5  2  0
  4 30  1  0
  5  6  1  0
  5 31  1  0
  6 20  1  0
  6  7  2  0
  7 11  1  0
  7  8  1  0
  8  9  1  0
  9 25  1  0
  9 10  1  0
  9 32  1  6
 10 11  1  0
 11 21  1  0
 11 12  1  6
 12 13  1  0
 12 33  1  0
 12 34  1  0
 13 14  1  0
 13 35  1  0
 13 36  1  0
 14 15  1  0
 14 19  1  0
 15 16  1  0
 15 37  1  0
 15 38  1  0
 16 18  1  0
 16 17  1  0
 16 39  1  0
 17 18  1  0
 17 40  1  0
 17 41  1  0
 18 42  1  0
 18 43  1  0
 19 20  1  0
 19 21  1  0
 19 44  1  1
 20 45  1  0
 20 46  1  0
 21 22  1  6
 21 23  1  0
 22 47  1  0
 23 24  1  0
 23 48  1  0
 23 49  1  0
 24 25  1  0
 24 50  1  0
 24 51  1  0
 25 26  2  0
M  END
>  <i_m_ct_stereo_status>  (184) 
1

>  <s_m_source_file>  (184) 
/var/tmp/pbs.5076255.sched01/tmppvoazpai/72cbyqjt17.sdf

>  <i_m_source_file_index>  (184) 
10

>  <i_lp_mmshare_version>  (184) 
48012

>  <i_f3d_flags>  (184) 
0

>  <s_epik_input>  (184) 
W0NAXTEyM2M0YzVbY0hdW2NIXWMoT1tDSDNdKWM0W0NAQEhdKE8xKUMoPU8pW0NIMl1bQ0gyXVtDQF0zKFtPSF0pW0NASF0oW0NIMl01KU4oW0NIMl1bQ0gyXTIpW0NIMl1bQ0hdNltDSDJdW0NIMl02

>  <s_epik_cmdline>  (184) 
J2VwaWtfcHl0aG9uJywgJy1waHQnLCAnMi4wJywgJy1waCcsICc3LjAnLCAnLXRuJywgJzgnLCAnLW1hJywgJzIwMCcsICctaW1hZScsICc8aW5maWxlLm1hZT4nLCAnLW9tYWUnLCAnPG91dGZpbGUubWFlPic=

>  <r_lp_tautomer_probability>  (184) 
1

>  <r_epik_Ionization_Penalty>  (184) 
1.6737

>  <r_epik_Ionization_Penalty_Charging>  (184) 
0

>  <r_epik_Ionization_Penalty_Neutral>  (184) 
1.6737

>  <r_epik_State_Penalty>  (184) 
1.77756

>  <r_epik_Charging_Adjusted_Penalty>  (184) 
1.77756

>  <i_epik_Tot_Q>  (184) 
0

>  <i_epik_Tot_abs_Q>  (184) 
0

>  <s_lp_Force_Field>  (184) 
OPLS3e

>  <r_lp_Energy>  (184) 
75.4691

>  <b_lp_Chiralities_Consistent>  (184) 
1

>  <s_lp_Variant>  (184) 
65:0-2

>  <s_i_glide_gridfile>  (184) 
pfpi4k_grid

>  <i_i_glide_lignum>  (184) 
10

>  <i_i_glide_rotatable_bonds>  (184) 
4

>  <r_i_docking_score>  (184) 
-1.92929

>  <r_i_glide_ligand_efficiency>  (184) 
-0.0742034

>  <r_i_glide_ligand_efficiency_sa>  (184) 
-0.219827

>  <r_i_glide_ligand_efficiency_ln>  (184) 
-0.453087

>  <r_i_glide_gscore>  (184) 
-1.92929

>  <r_i_glide_lipo>  (184) 
-0.0567161

>  <r_i_glide_hbond>  (184) 
0

>  <r_i_glide_metal>  (184) 
-0

>  <r_i_glide_rewards>  (184) 
-0.985722

>  <r_i_glide_evdw>  (184) 
-19.6804

>  <r_i_glide_ecoul>  (184) 
-1.34264

>  <r_i_glide_erotb>  (184) 
0.302709

>  <r_i_glide_esite>  (184) 
-0.00414276

>  <r_i_glide_emodel>  (184) 
-22.1706

>  <r_i_glide_energy>  (184) 
-21.0231

>  <r_i_glide_einternal>  (184) 
3.05919

>  <r_i_glide_intrahb_reward>  (184) 
-0

>  <i_i_glide_confnum>  (184) 
1

>  <i_i_glide_posenum>  (184) 
32

>  <r_i_glide_eff_state_penalty>  (184) 
0

>  <ligand_id>  (184) 
65

>  <original_smiles>  (184) 
COc1ccc2c3c1C1OC34CCN(CC3CC3)C(C2)C4(O)CCC1=O

>  <smiles>  (184) 
[H]OC12C([H])([H])C([H])([H])C(=O)C3([H])OC14c1c3c(OC([H])([H])[H])c([H])c([H])c1C([H])([H])C2([H])N(C([H])([H])C1([H])C([H])([H])C1([H])[H])C([H])([H])C4([H])[H]

$$$$
68:0:0
     RDKit          3D

 92 99  0  0  1  0  0  0  0  0999 V2000
    4.4358   -1.8299    6.3202 C   0  0  0  0  0  0  0  0  0  0  0  0
    4.3364   -2.9563    5.4589 O   0  0  0  0  0  0  0  0  0  0  0  0
    3.6513   -3.0380    4.1911 C   0  0  1  0  0  0  0  0  0  0  0  0
    2.2065   -2.8125    4.4703 C   0  0  1  0  0  0  0  0  0  0  0  0
    1.6865   -3.8967    5.2961 C   0  0  1  0  0  0  0  0  0  0  0  0
    0.2366   -3.8799    4.9722 C   0  0  1  0  0  0  0  0  0  0  0  0
   -0.0112   -2.3424    4.6719 C   0  0  1  0  0  0  0  0  0  0  0  0
   -0.9424   -1.7838    5.5792 O   0  0  0  0  0  0  0  0  0  0  0  0
    1.4007   -1.6117    4.8124 C   0  0  2  0  0  0  0  0  0  0  0  0
    1.8279   -0.5226    3.8010 C   0  0  0  0  0  0  0  0  0  0  0  0
    3.3921   -0.4635    3.6370 C   0  0  0  0  0  0  0  0  0  0  0  0
    4.1013   -1.8331    3.2102 C   0  0  2  0  0  0  0  0  0  0  0  0
    4.4123   -1.8630    1.6185 C   0  0  0  0  0  0  0  0  0  0  0  0
    3.3779   -1.0619    0.7568 C   0  0  0  0  0  0  0  0  0  0  0  0
    5.7256   -1.0492    1.4019 C   0  0  0  0  0  0  0  0  0  0  0  0
    4.5603   -3.2948    0.9683 C   0  0  1  0  0  0  0  0  0  0  0  0
    4.6857   -3.2251   -0.5986 C   0  0  0  0  0  0  0  0  0  0  0  0
    5.8089   -3.8431    1.4334 O   0  0  0  0  0  0  0  0  0  0  0  0
    6.3198   -5.0526    1.0679 C   0  0  0  0  0  0  0  0  0  0  0  0
    7.7776   -5.2172    1.4726 C   0  0  0  0  0  0  0  0  0  0  0  0
    5.7291   -5.9502    0.4807 O   0  0  0  0  0  0  0  0  0  0  0  0
    3.2906   -4.1182    1.3084 C   0  0  0  0  0  0  0  0  0  0  0  0
    3.3858   -5.1494    2.4259 C   0  0  0  0  0  0  0  0  0  0  0  0
    3.1142   -6.4256    2.0506 C   0  0  0  0  0  0  0  0  0  0  0  0
    3.0632   -7.6127    2.8878 C   0  0  0  0  0  0  0  0  0  0  0  0
    3.9261   -7.8098    3.8836 C   0  0  0  0  0  0  0  0  0  0  0  0
    5.1015   -6.9064    4.1022 C   0  0  0  0  0  0  0  0  0  0  0  0
    4.7642   -5.4969    4.6622 C   0  0  0  0  0  0  0  0  0  0  0  0
    4.5168   -5.7610    6.1815 C   0  0  0  0  0  0  0  0  0  0  0  0
    6.1264   -4.7584    4.5688 C   0  0  0  0  0  0  0  0  0  0  0  0
    3.5428   -4.6842    3.9074 C   0  0  1  0  0  0  0  0  0  0  0  0
    2.1173   -5.0960    4.5609 C   0  0  2  0  0  0  0  0  0  0  0  0
    0.6667   -4.9723    3.9219 C   0  0  1  0  0  0  0  0  0  0  0  0
   -0.0397   -6.1917    4.0953 O   0  0  0  0  0  0  0  0  0  0  0  0
   -0.0949   -7.0778    3.0842 C   0  0  0  0  0  0  0  0  0  0  0  0
   -0.2230   -6.7544    1.9025 O   0  0  0  0  0  0  0  0  0  0  0  0
    0.1056   -8.4639    3.5584 C   0  0  0  0  0  0  0  0  0  0  0  0
    0.2601   -9.6614    2.9201 C   0  0  0  0  0  0  0  0  0  0  0  0
    0.5973  -10.6380    3.9355 C   0  0  0  0  0  0  0  0  0  0  0  0
    0.6114   -9.9917    5.1287 C   0  0  0  0  0  0  0  0  0  0  0  0
    0.2843   -8.6790    4.9007 N   0  0  0  0  0  0  0  0  0  0  0  0
    1.2140   -0.7643    2.5802 O   0  0  0  0  0  0  0  0  0  0  0  0
    0.6326    0.4583    2.1665 C   0  0  0  0  0  0  0  0  0  0  0  0
    0.2911    1.0810    3.5054 C   0  0  0  0  0  0  0  0  0  0  0  0
    1.4042    0.7088    4.2917 O   0  0  0  0  0  0  0  0  0  0  0  0
    0.3126   -7.9384    5.5762 H   0  0  0  0  0  0  0  0  0  0  0  0
    4.9108   -2.1666    7.2411 H   0  0  0  0  0  0  0  0  0  0  0  0
    3.4784   -1.4150    6.6172 H   0  0  0  0  0  0  0  0  0  0  0  0
    5.0846   -1.0576    5.9131 H   0  0  0  0  0  0  0  0  0  0  0  0
    1.8848   -2.9279    3.4331 H   0  0  0  0  0  0  0  0  0  0  0  0
    1.9386   -3.8534    6.3563 H   0  0  0  0  0  0  0  0  0  0  0  0
   -0.3481   -4.2988    5.7922 H   0  0  0  0  0  0  0  0  0  0  0  0
   -0.4190   -2.2239    3.6775 H   0  0  0  0  0  0  0  0  0  0  0  0
   -1.0413   -0.8728    5.3552 H   0  0  0  0  0  0  0  0  0  0  0  0
    1.5664   -1.2762    5.8343 H   0  0  0  0  0  0  0  0  0  0  0  0
    3.6784    0.3740    3.0103 H   0  0  0  0  0  0  0  0  0  0  0  0
    3.7694   -0.1222    4.5919 H   0  0  0  0  0  0  0  0  0  0  0  0
    5.1203   -1.7184    3.5877 H   0  0  0  0  0  0  0  0  0  0  0  0
    3.7194   -0.8893   -0.2627 H   0  0  0  0  0  0  0  0  0  0  0  0
    3.2087   -0.0485    1.0926 H   0  0  0  0  0  0  0  0  0  0  0  0
    2.4135   -1.5536    0.6686 H   0  0  0  0  0  0  0  0  0  0  0  0
    5.9652   -0.9108    0.3498 H   0  0  0  0  0  0  0  0  0  0  0  0
    6.5924   -1.5109    1.8735 H   0  0  0  0  0  0  0  0  0  0  0  0
    5.6331   -0.0490    1.8193 H   0  0  0  0  0  0  0  0  0  0  0  0
    3.7832   -2.8490   -1.0778 H   0  0  0  0  0  0  0  0  0  0  0  0
    4.8297   -4.2037   -1.0545 H   0  0  0  0  0  0  0  0  0  0  0  0
    5.5242   -2.6115   -0.9219 H   0  0  0  0  0  0  0  0  0  0  0  0
    8.1102   -4.3711    2.0724 H   0  0  0  0  0  0  0  0  0  0  0  0
    8.4061   -5.2675    0.5854 H   0  0  0  0  0  0  0  0  0  0  0  0
    7.9157   -6.1328    2.0477 H   0  0  0  0  0  0  0  0  0  0  0  0
    2.4153   -3.4982    1.4739 H   0  0  0  0  0  0  0  0  0  0  0  0
    3.0122   -4.6481    0.3995 H   0  0  0  0  0  0  0  0  0  0  0  0
    2.9126   -6.6277    1.0118 H   0  0  0  0  0  0  0  0  0  0  0  0
    2.3064   -8.3493    2.7131 H   0  0  0  0  0  0  0  0  0  0  0  0
    3.8427   -8.6753    4.5199 H   0  0  0  0  0  0  0  0  0  0  0  0
    5.8128   -7.4319    4.7439 H   0  0  0  0  0  0  0  0  0  0  0  0
    5.5982   -6.8296    3.1379 H   0  0  0  0  0  0  0  0  0  0  0  0
    4.1238   -4.9058    6.7260 H   0  0  0  0  0  0  0  0  0  0  0  0
    5.4474   -6.0411    6.6780 H   0  0  0  0  0  0  0  0  0  0  0  0
    3.8348   -6.5904    6.3607 H   0  0  0  0  0  0  0  0  0  0  0  0
    6.3775   -4.2270    5.4892 H   0  0  0  0  0  0  0  0  0  0  0  0
    6.1083   -4.0167    3.7811 H   0  0  0  0  0  0  0  0  0  0  0  0
    6.9696   -5.4251    4.3761 H   0  0  0  0  0  0  0  0  0  0  0  0
    2.1377   -5.9616    5.2182 H   0  0  0  0  0  0  0  0  0  0  0  0
    0.6698   -4.5951    2.8993 H   0  0  0  0  0  0  0  0  0  0  0  0
    0.2075   -9.8419    1.8646 H   0  0  0  0  0  0  0  0  0  0  0  0
    0.8189  -11.6785    3.7918 H   0  0  0  0  0  0  0  0  0  0  0  0
    0.8180  -10.3535    6.1444 H   0  0  0  0  0  0  0  0  0  0  0  0
    1.3556    1.0746    1.6303 H   0  0  0  0  0  0  0  0  0  0  0  0
   -0.2334    0.2972    1.5262 H   0  0  0  0  0  0  0  0  0  0  0  0
    0.1656    2.1621    3.4638 H   0  0  0  0  0  0  0  0  0  0  0  0
   -0.6046    0.6270    3.9259 H   0  0  0  0  0  0  0  0  0  0  0  0
  1  2  1  0
  1 47  1  0
  1 48  1  0
  1 49  1  0
  3  2  1  1
  3 12  1  0
  3 31  1  0
  3  4  1  0
  4  9  1  0
  4  5  1  0
  4 50  1  6
  5 32  1  0
  5  6  1  0
  5 51  1  1
  6 33  1  0
  6  7  1  0
  6 52  1  1
  7  8  1  0
  7  9  1  0
  7 53  1  6
  8 54  1  0
  9 10  1  0
  9 55  1  1
 10 45  1  0
 10 11  1  0
 10 42  1  0
 11 12  1  0
 11 56  1  0
 11 57  1  0
 12 13  1  0
 12 58  1  1
 13 14  1  0
 13 15  1  0
 13 16  1  0
 14 59  1  0
 14 60  1  0
 14 61  1  0
 15 62  1  0
 15 63  1  0
 15 64  1  0
 16 17  1  0
 16 18  1  1
 16 22  1  0
 17 65  1  0
 17 66  1  0
 17 67  1  0
 18 19  1  0
 19 20  1  0
 19 21  2  0
 20 68  1  0
 20 69  1  0
 20 70  1  0
 22 23  1  0
 22 71  1  0
 22 72  1  0
 23 31  1  0
 23 24  2  0
 24 25  1  0
 24 73  1  0
 25 26  2  0
 25 74  1  0
 26 27  1  0
 26 75  1  0
 27 28  1  0
 27 76  1  0
 27 77  1  0
 28 29  1  0
 28 30  1  0
 31 28  1  1
 29 78  1  0
 29 79  1  0
 29 80  1  0
 30 81  1  0
 30 82  1  0
 30 83  1  0
 31 32  1  0
 32 33  1  0
 32 84  1  1
 33 34  1  0
 33 85  1  6
 34 35  1  0
 35 36  2  0
 35 37  1  0
 37 41  1  0
 37 38  2  0
 38 39  1  0
 38 86  1  0
 39 40  2  0
 39 87  1  0
 40 41  1  0
 40 88  1  0
 41 46  1  0
 42 43  1  0
 43 44  1  0
 43 89  1  0
 43 90  1  0
 44 45  1  0
 44 91  1  0
 44 92  1  0
M  END
>  <i_m_ct_stereo_status>  (185) 
1

>  <s_m_source_file>  (185) 
/var/tmp/pbs.5076255.sched01/tmppvoazpai/72cbyqjt17.sdf

>  <i_m_source_file_index>  (185) 
13

>  <i_lp_mmshare_version>  (185) 
48012

>  <i_f3d_flags>  (185) 
0

>  <s_epik_input>  (185) 
TzFbQ0gyXVtDSDJdT0MxMltDQEBIXTNbQ0BIXTRbQ0BAXTUoT1tDSDNdKVtDQF02KEMoW0NIMl1bQ0BAXShbQ0gzXSkoQyhbQ0gzXSkoW0NIM10pW0NASF01W0NIMl0yKU9DKD1PKVtDSDNdKT1bQ0hdW0NIXT1bQ0hdW0NIMl1DNihbQ0gzXSlbQ0gzXSlbQ0BIXTdbQ0BASF00W0NAQEhdKFtDQEhdM1tPSF0pW0NAQEhdN09DKD1PKWM4W2NIXVtjSF1bY0hdW25IXTg=

>  <s_epik_cmdline>  (185) 
J2VwaWtfcHl0aG9uJywgJy1waHQnLCAnMi4wJywgJy1waCcsICc3LjAnLCAnLXRuJywgJzgnLCAnLW1hJywgJzIwMCcsICctaW1hZScsICc8aW5maWxlLm1hZT4nLCAnLW9tYWUnLCAnPG91dGZpbGUubWFlPic=

>  <r_lp_tautomer_probability>  (185) 
1

>  <r_epik_Ionization_Penalty>  (185) 
6.733e-07

>  <r_epik_Ionization_Penalty_Charging>  (185) 
0

>  <r_epik_Ionization_Penalty_Neutral>  (185) 
6.733e-07

>  <r_epik_State_Penalty>  (185) 
-0

>  <r_epik_Charging_Adjusted_Penalty>  (185) 
0

>  <i_epik_Tot_Q>  (185) 
0

>  <i_epik_Tot_abs_Q>  (185) 
0

>  <s_epik_Chemistry_Notes>  (185) 
This compound has an ester and may undergo hydrolysis at high or low pH.

>  <s_lp_Force_Field>  (185) 
OPLS3e

>  <r_lp_Energy>  (185) 
177.415

>  <b_lp_Chiralities_Consistent>  (185) 
1

>  <s_lp_Variant>  (185) 
68:0-1

>  <s_i_glide_gridfile>  (185) 
pfpi4k_grid

>  <i_i_glide_lignum>  (185) 
13

>  <i_i_glide_rotatable_bonds>  (185) 
7

>  <r_i_docking_score>  (185) 
-3.07864

>  <r_i_glide_ligand_efficiency>  (185) 
-0.0684143

>  <r_i_glide_ligand_efficiency_sa>  (185) 
-0.243342

>  <r_i_glide_ligand_efficiency_ln>  (185) 
-0.640495

>  <r_i_glide_gscore>  (185) 
-3.07864

>  <r_i_glide_lipo>  (185) 
-0.377192

>  <r_i_glide_hbond>  (185) 
-0.164019

>  <r_i_glide_metal>  (185) 
-0

>  <r_i_glide_rewards>  (185) 
-0.132807

>  <r_i_glide_evdw>  (185) 
-33.2014

>  <r_i_glide_ecoul>  (185) 
-4.79245

>  <r_i_glide_erotb>  (185) 
0.0854294

>  <r_i_glide_esite>  (185) 
-0.111116

>  <r_i_glide_emodel>  (185) 
-39.6174

>  <r_i_glide_energy>  (185) 
-37.9938

>  <r_i_glide_einternal>  (185) 
10.4332

>  <r_i_glide_intrahb_reward>  (185) 
-0

>  <i_i_glide_confnum>  (185) 
4

>  <i_i_glide_posenum>  (185) 
25

>  <r_i_glide_eff_state_penalty>  (185) 
0

>  <ligand_id>  (185) 
68

>  <original_smiles>  (185) 
COC12C3C4C5C(O)C3C3(CC1C(C)(C)C(C)(OC(C)=O)CC1=CC=CCC(C)(C)C12C4C5OC(=O)c1ccc[nH]1)OCCO3

>  <smiles>  (185) 
[H]OC1([H])C2([H])C([H])(OC(=O)c3c([H])c([H])c([H])n3[H])C3([H])C2([H])C2([H])C1([H])C1(OC([H])([H])C([H])([H])O1)C([H])([H])C1([H])C2(OC([H])([H])[H])C32C(=C([H])C([H])=C([H])C([H])([H])C2(C([H])([H])[H])C([H])([H])[H])C([H])([H])C(OC(=O)C([H])([H])[H])(C([H])([H])[H])C1(C([H])([H])[H])C([H])([H])[H]

$$$$
68:0:1
     RDKit          3D

 92 99  0  0  1  0  0  0  0  0999 V2000
    4.5675   -3.0575    6.5568 C   0  0  0  0  0  0  0  0  0  0  0  0
    4.4439   -3.8006    5.3561 O   0  0  0  0  0  0  0  0  0  0  0  0
    3.6594   -3.4486    4.1949 C   0  0  1  0  0  0  0  0  0  0  0  0
    2.2330   -3.4288    4.6198 C   0  0  1  0  0  0  0  0  0  0  0  0
    1.8214   -4.7656    5.0394 C   0  0  1  0  0  0  0  0  0  0  0  0
    0.3488   -4.7178    4.8358 C   0  0  1  0  0  0  0  0  0  0  0  0
    0.0351   -3.1873    5.1150 C   0  0  1  0  0  0  0  0  0  0  0  0
   -0.8297   -3.0512    6.2328 O   0  0  0  0  0  0  0  0  0  0  0  0
    1.4311   -2.4772    5.4221 C   0  0  2  0  0  0  0  0  0  0  0  0
    1.7494   -1.0749    4.8513 C   0  0  0  0  0  0  0  0  0  0  0  0
    3.2968   -0.8748    4.6217 C   0  0  0  0  0  0  0  0  0  0  0  0
    4.0010   -1.9536    3.6768 C   0  0  2  0  0  0  0  0  0  0  0  0
    4.1695   -1.3853    2.1590 C   0  0  0  0  0  0  0  0  0  0  0  0
    3.0361   -0.3881    1.7363 C   0  0  0  0  0  0  0  0  0  0  0  0
    5.4367   -0.4788    2.1771 C   0  0  0  0  0  0  0  0  0  0  0  0
    4.2901   -2.4458    0.9960 C   0  0  1  0  0  0  0  0  0  0  0  0
    4.3034   -1.7561   -0.4186 C   0  0  0  0  0  0  0  0  0  0  0  0
    5.5553   -3.1249    1.1549 O   0  0  0  0  0  0  0  0  0  0  0  0
    6.0948   -4.1010    0.3479 C   0  0  0  0  0  0  0  0  0  0  0  0
    5.2174   -4.6212   -0.7960 C   0  0  0  0  0  0  0  0  0  0  0  0
    7.2339   -4.5670    0.5441 O   0  0  0  0  0  0  0  0  0  0  0  0
    3.0659   -3.3961    1.1507 C   0  0  0  0  0  0  0  0  0  0  0  0
    3.3252   -4.7656    1.7964 C   0  0  0  0  0  0  0  0  0  0  0  0
    3.0653   -5.8367    1.0009 C   0  0  0  0  0  0  0  0  0  0  0  0
    3.1416   -7.2344    1.3073 C   0  0  0  0  0  0  0  0  0  0  0  0
    4.0677   -7.7455    2.1199 C   0  0  0  0  0  0  0  0  0  0  0  0
    5.2364   -6.9350    2.6054 C   0  0  0  0  0  0  0  0  0  0  0  0
    4.8909   -5.8392    3.6628 C   0  0  0  0  0  0  0  0  0  0  0  0
    4.7727   -6.6596    4.9917 C   0  0  0  0  0  0  0  0  0  0  0  0
    6.2180   -5.0446    3.7508 C   0  0  0  0  0  0  0  0  0  0  0  0
    3.5827   -4.8831    3.3389 C   0  0  1  0  0  0  0  0  0  0  0  0
    2.2272   -5.6005    3.8881 C   0  0  2  0  0  0  0  0  0  0  0  0
    0.7161   -5.3623    3.4433 C   0  0  1  0  0  0  0  0  0  0  0  0
    0.0715   -6.6136    3.2250 O   0  0  0  0  0  0  0  0  0  0  0  0
    0.3301   -7.3446    2.1316 C   0  0  0  0  0  0  0  0  0  0  0  0
    0.3196   -6.9014    0.9702 O   0  0  0  0  0  0  0  0  0  0  0  0
    0.7196   -8.7194    2.4976 C   0  0  0  0  0  0  0  0  0  0  0  0
    1.6671   -9.6068    2.0678 C   0  0  0  0  0  0  0  0  0  0  0  0
    1.6240  -10.7477    2.9447 C   0  0  0  0  0  0  0  0  0  0  0  0
    0.6106  -10.5422    3.8333 C   0  0  0  0  0  0  0  0  0  0  0  0
    0.0890   -9.3095    3.5518 N   0  0  0  0  0  0  0  0  0  0  0  0
    1.0525   -0.8971    3.6701 O   0  0  0  0  0  0  0  0  0  0  0  0
    0.4011    0.3493    3.7665 C   0  0  0  0  0  0  0  0  0  0  0  0
    0.1507    0.4275    5.2646 C   0  0  0  0  0  0  0  0  0  0  0  0
    1.3366   -0.1269    5.7847 O   0  0  0  0  0  0  0  0  0  0  0  0
   -0.6772   -8.8633    4.0707 H   0  0  0  0  0  0  0  0  0  0  0  0
    5.1330   -3.6686    7.2565 H   0  0  0  0  0  0  0  0  0  0  0  0
    3.6243   -2.8455    7.0477 H   0  0  0  0  0  0  0  0  0  0  0  0
    5.1473   -2.1490    6.4188 H   0  0  0  0  0  0  0  0  0  0  0  0
    1.8254   -3.1988    3.6334 H   0  0  0  0  0  0  0  0  0  0  0  0
    2.1725   -5.0668    6.0311 H   0  0  0  0  0  0  0  0  0  0  0  0
   -0.1714   -5.4238    5.4785 H   0  0  0  0  0  0  0  0  0  0  0  0
   -0.4541   -2.7499    4.2471 H   0  0  0  0  0  0  0  0  0  0  0  0
   -0.4541   -3.5143    6.9603 H   0  0  0  0  0  0  0  0  0  0  0  0
    1.6749   -2.5244    6.4774 H   0  0  0  0  0  0  0  0  0  0  0  0
    3.4988    0.1461    4.3301 H   0  0  0  0  0  0  0  0  0  0  0  0
    3.7324   -0.8819    5.6088 H   0  0  0  0  0  0  0  0  0  0  0  0
    5.0405   -1.9316    4.0025 H   0  0  0  0  0  0  0  0  0  0  0  0
    3.2859    0.1733    0.8400 H   0  0  0  0  0  0  0  0  0  0  0  0
    2.8608    0.4227    2.4292 H   0  0  0  0  0  0  0  0  0  0  0  0
    2.0805   -0.8628    1.5222 H   0  0  0  0  0  0  0  0  0  0  0  0
    5.5945    0.0489    1.2388 H   0  0  0  0  0  0  0  0  0  0  0  0
    6.3532   -1.0322    2.3850 H   0  0  0  0  0  0  0  0  0  0  0  0
    5.3591    0.2991    2.9374 H   0  0  0  0  0  0  0  0  0  0  0  0
    3.3492   -1.2928   -0.6352 H   0  0  0  0  0  0  0  0  0  0  0  0
    4.4630   -2.4083   -1.2645 H   0  0  0  0  0  0  0  0  0  0  0  0
    5.0749   -1.0012   -0.4923 H   0  0  0  0  0  0  0  0  0  0  0  0
    4.2611   -4.1004   -0.8666 H   0  0  0  0  0  0  0  0  0  0  0  0
    5.0111   -5.6827   -0.6568 H   0  0  0  0  0  0  0  0  0  0  0  0
    5.7152   -4.4800   -1.7502 H   0  0  0  0  0  0  0  0  0  0  0  0
    2.1911   -2.9335    1.6165 H   0  0  0  0  0  0  0  0  0  0  0  0
    2.6788   -3.5780    0.1495 H   0  0  0  0  0  0  0  0  0  0  0  0
    2.7690   -5.6462   -0.0121 H   0  0  0  0  0  0  0  0  0  0  0  0
    2.3433   -7.8285    0.8749 H   0  0  0  0  0  0  0  0  0  0  0  0
    4.0727   -8.7824    2.4014 H   0  0  0  0  0  0  0  0  0  0  0  0
    6.0149   -7.6328    2.9663 H   0  0  0  0  0  0  0  0  0  0  0  0
    5.6553   -6.4878    1.7016 H   0  0  0  0  0  0  0  0  0  0  0  0
    4.3954   -6.0839    5.8324 H   0  0  0  0  0  0  0  0  0  0  0  0
    5.7483   -7.0489    5.2934 H   0  0  0  0  0  0  0  0  0  0  0  0
    4.1321   -7.5397    4.9006 H   0  0  0  0  0  0  0  0  0  0  0  0
    6.5233   -4.8775    4.7840 H   0  0  0  0  0  0  0  0  0  0  0  0
    6.1243   -4.0719    3.2873 H   0  0  0  0  0  0  0  0  0  0  0  0
    7.0615   -5.5489    3.2696 H   0  0  0  0  0  0  0  0  0  0  0  0
    2.3430   -6.6477    4.1743 H   0  0  0  0  0  0  0  0  0  0  0  0
    0.6304   -4.6715    2.6130 H   0  0  0  0  0  0  0  0  0  0  0  0
    2.3700   -9.5315    1.2429 H   0  0  0  0  0  0  0  0  0  0  0  0
    2.2669  -11.6001    2.8918 H   0  0  0  0  0  0  0  0  0  0  0  0
    0.2094  -11.1638    4.6289 H   0  0  0  0  0  0  0  0  0  0  0  0
    1.0488    1.1667    3.4410 H   0  0  0  0  0  0  0  0  0  0  0  0
   -0.5158    0.3645    3.1759 H   0  0  0  0  0  0  0  0  0  0  0  0
   -0.0235    1.4447    5.6240 H   0  0  0  0  0  0  0  0  0  0  0  0
   -0.6926   -0.2054    5.5436 H   0  0  0  0  0  0  0  0  0  0  0  0
  1  2  1  0
  1 47  1  0
  1 48  1  0
  1 49  1  0
  3  2  1  1
  3 12  1  0
  3 31  1  0
  3  4  1  0
  4  9  1  0
  4  5  1  0
  4 50  1  6
  5 32  1  0
  5  6  1  0
  5 51  1  1
  6 33  1  0
  6  7  1  0
  6 52  1  1
  7  8  1  0
  7  9  1  0
  7 53  1  6
  8 54  1  0
  9 10  1  0
  9 55  1  1
 10 45  1  0
 10 11  1  0
 10 42  1  0
 11 12  1  0
 11 56  1  0
 11 57  1  0
 12 13  1  0
 12 58  1  1
 13 14  1  0
 13 15  1  0
 13 16  1  0
 14 59  1  0
 14 60  1  0
 14 61  1  0
 15 62  1  0
 15 63  1  0
 15 64  1  0
 16 17  1  0
 16 18  1  1
 16 22  1  0
 17 65  1  0
 17 66  1  0
 17 67  1  0
 18 19  1  0
 19 20  1  0
 19 21  2  0
 20 68  1  0
 20 69  1  0
 20 70  1  0
 22 23  1  0
 22 71  1  0
 22 72  1  0
 23 31  1  0
 23 24  2  0
 24 25  1  0
 24 73  1  0
 25 26  2  0
 25 74  1  0
 26 27  1  0
 26 75  1  0
 27 28  1  0
 27 76  1  0
 27 77  1  0
 28 29  1  0
 28 30  1  0
 31 28  1  6
 29 78  1  0
 29 79  1  0
 29 80  1  0
 30 81  1  0
 30 82  1  0
 30 83  1  0
 31 32  1  0
 32 33  1  0
 32 84  1  1
 33 34  1  0
 33 85  1  6
 34 35  1  0
 35 36  2  0
 35 37  1  0
 37 41  1  0
 37 38  2  0
 38 39  1  0
 38 86  1  0
 39 40  2  0
 39 87  1  0
 40 41  1  0
 40 88  1  0
 41 46  1  0
 42 43  1  0
 43 44  1  0
 43 89  1  0
 43 90  1  0
 44 45  1  0
 44 91  1  0
 44 92  1  0
M  END
>  <i_m_ct_stereo_status>  (186) 
1

>  <s_m_source_file>  (186) 
/var/tmp/pbs.5076255.sched01/tmppvoazpai/72cbyqjt17.sdf

>  <i_m_source_file_index>  (186) 
13

>  <i_lp_mmshare_version>  (186) 
48012

>  <i_f3d_flags>  (186) 
0

>  <s_epik_input>  (186) 
TzFbQ0gyXVtDSDJdT0MxMltDQEBIXTNbQ0BIXTRbQ0BAXTUoT1tDSDNdKVtDQF02KEMoW0NIMl1bQ0BAXShbQ0gzXSkoQyhbQ0gzXSkoW0NIM10pW0NASF01W0NIMl0yKU9DKD1PKVtDSDNdKT1bQ0hdW0NIXT1bQ0hdW0NIMl1DNihbQ0gzXSlbQ0gzXSlbQ0BIXTdbQ0BASF00W0NAQEhdKFtDQEhdM1tPSF0pW0NAQEhdN09DKD1PKWM4W2NIXVtjSF1bY0hdW25IXTg=

>  <s_epik_cmdline>  (186) 
J2VwaWtfcHl0aG9uJywgJy1waHQnLCAnMi4wJywgJy1waCcsICc3LjAnLCAnLXRuJywgJzgnLCAnLW1hJywgJzIwMCcsICctaW1hZScsICc8aW5maWxlLm1hZT4nLCAnLW9tYWUnLCAnPG91dGZpbGUubWFlPic=

>  <r_lp_tautomer_probability>  (186) 
1

>  <r_epik_Ionization_Penalty>  (186) 
6.733e-07

>  <r_epik_Ionization_Penalty_Charging>  (186) 
0

>  <r_epik_Ionization_Penalty_Neutral>  (186) 
6.733e-07

>  <r_epik_State_Penalty>  (186) 
-0

>  <r_epik_Charging_Adjusted_Penalty>  (186) 
0

>  <i_epik_Tot_Q>  (186) 
0

>  <i_epik_Tot_abs_Q>  (186) 
0

>  <s_epik_Chemistry_Notes>  (186) 
This compound has an ester and may undergo hydrolysis at high or low pH.

>  <s_lp_Force_Field>  (186) 
OPLS3e

>  <r_lp_Energy>  (186) 
177.415

>  <b_lp_Chiralities_Consistent>  (186) 
1

>  <s_lp_Variant>  (186) 
68:0-1

>  <s_i_glide_gridfile>  (186) 
pfpi4k_grid

>  <i_i_glide_lignum>  (186) 
13

>  <i_i_glide_rotatable_bonds>  (186) 
7

>  <r_i_docking_score>  (186) 
-2.59301

>  <r_i_glide_ligand_efficiency>  (186) 
-0.0576225

>  <r_i_glide_ligand_efficiency_sa>  (186) 
-0.204957

>  <r_i_glide_ligand_efficiency_ln>  (186) 
-0.539462

>  <r_i_glide_gscore>  (186) 
-2.59301

>  <r_i_glide_lipo>  (186) 
-0.372834

>  <r_i_glide_hbond>  (186) 
-0.120266

>  <r_i_glide_metal>  (186) 
-0

>  <r_i_glide_rewards>  (186) 
-0.122639

>  <r_i_glide_evdw>  (186) 
-34.5606

>  <r_i_glide_ecoul>  (186) 
-4.73583

>  <r_i_glide_erotb>  (186) 
0.0854294

>  <r_i_glide_esite>  (186) 
-0.100858

>  <r_i_glide_emodel>  (186) 
-32.3704

>  <r_i_glide_energy>  (186) 
-39.2965

>  <r_i_glide_einternal>  (186) 
17.9711

>  <r_i_glide_intrahb_reward>  (186) 
-0

>  <i_i_glide_confnum>  (186) 
4

>  <i_i_glide_posenum>  (186) 
17

>  <r_i_glide_eff_state_penalty>  (186) 
0

>  <ligand_id>  (186) 
68

>  <original_smiles>  (186) 
COC12C3C4C5C(O)C3C3(CC1C(C)(C)C(C)(OC(C)=O)CC1=CC=CCC(C)(C)C12C4C5OC(=O)c1ccc[nH]1)OCCO3

>  <smiles>  (186) 
[H]OC1([H])C2([H])C([H])(OC(=O)c3c([H])c([H])c([H])n3[H])C3([H])C2([H])C2([H])C1([H])C1(OC([H])([H])C([H])([H])O1)C([H])([H])C1([H])C2(OC([H])([H])[H])C32C(=C([H])C([H])=C([H])C([H])([H])C2(C([H])([H])[H])C([H])([H])[H])C([H])([H])C(OC(=O)C([H])([H])[H])(C([H])([H])[H])C1(C([H])([H])[H])C([H])([H])[H]

$$$$
68:0:2
     RDKit          3D

 92 99  0  0  1  0  0  0  0  0999 V2000
    5.6937   -3.2189    5.2684 C   0  0  0  0  0  0  0  0  0  0  0  0
    4.4657   -2.5874    5.5755 O   0  0  0  0  0  0  0  0  0  0  0  0
    3.1659   -2.9463    5.0657 C   0  0  1  0  0  0  0  0  0  0  0  0
    3.1211   -2.4580    3.6534 C   0  0  1  0  0  0  0  0  0  0  0  0
    3.1946   -0.9985    3.6554 C   0  0  1  0  0  0  0  0  0  0  0  0
    2.5450   -0.6524    2.3787 C   0  0  1  0  0  0  0  0  0  0  0  0
    2.8939   -1.9018    1.4726 C   0  0  1  0  0  0  0  0  0  0  0  0
    3.6584   -1.4998    0.3480 O   0  0  0  0  0  0  0  0  0  0  0  0
    3.7404   -2.9268    2.3892 C   0  0  2  0  0  0  0  0  0  0  0  0
    3.4921   -4.4525    2.2946 C   0  0  0  0  0  0  0  0  0  0  0  0
    3.7832   -5.1389    3.7205 C   0  0  0  0  0  0  0  0  0  0  0  0
    2.9850   -4.5499    4.9609 C   0  0  2  0  0  0  0  0  0  0  0  0
    1.6991   -5.4716    5.3166 C   0  0  0  0  0  0  0  0  0  0  0  0
    1.0637   -6.1844    4.0680 C   0  0  0  0  0  0  0  0  0  0  0  0
    2.2316   -6.7012    6.1167 C   0  0  0  0  0  0  0  0  0  0  0  0
    0.5454   -4.7643    6.1224 C   0  0  1  0  0  0  0  0  0  0  0  0
   -0.7199   -5.6823    6.2506 C   0  0  0  0  0  0  0  0  0  0  0  0
    1.0284   -4.5313    7.4552 O   0  0  0  0  0  0  0  0  0  0  0  0
    0.3151   -3.9777    8.4656 C   0  0  0  0  0  0  0  0  0  0  0  0
    1.0876   -3.9737    9.7759 C   0  0  0  0  0  0  0  0  0  0  0  0
   -0.8188   -3.5010    8.3932 O   0  0  0  0  0  0  0  0  0  0  0  0
    0.1382   -3.4838    5.3488 C   0  0  0  0  0  0  0  0  0  0  0  0
    0.6496   -2.1374    5.8445 C   0  0  0  0  0  0  0  0  0  0  0  0
   -0.3168   -1.2447    6.1626 C   0  0  0  0  0  0  0  0  0  0  0  0
   -0.1222    0.1170    6.6442 C   0  0  0  0  0  0  0  0  0  0  0  0
    0.8496    0.4576    7.4859 C   0  0  0  0  0  0  0  0  0  0  0  0
    1.7387   -0.5693    8.1202 C   0  0  0  0  0  0  0  0  0  0  0  0
    2.7668   -1.2384    7.1547 C   0  0  0  0  0  0  0  0  0  0  0  0
    3.8726   -0.1496    6.9929 C   0  0  0  0  0  0  0  0  0  0  0  0
    3.3958   -2.3661    8.0235 C   0  0  0  0  0  0  0  0  0  0  0  0
    2.1590   -1.7814    5.7231 C   0  0  1  0  0  0  0  0  0  0  0  0
    2.1615   -0.6139    4.6207 C   0  0  2  0  0  0  0  0  0  0  0  0
    1.2738   -0.4994    3.3024 C   0  0  1  0  0  0  0  0  0  0  0  0
    0.6926    0.7875    3.2399 O   0  0  0  0  0  0  0  0  0  0  0  0
   -0.6168    0.9209    3.4501 C   0  0  0  0  0  0  0  0  0  0  0  0
   -1.3595   -0.0432    3.6793 O   0  0  0  0  0  0  0  0  0  0  0  0
   -1.0685    2.3225    3.4345 C   0  0  0  0  0  0  0  0  0  0  0  0
   -0.4245    3.4939    3.6203 C   0  0  0  0  0  0  0  0  0  0  0  0
   -1.3927    4.5448    3.3640 C   0  0  0  0  0  0  0  0  0  0  0  0
   -2.5872    3.9384    3.1208 C   0  0  0  0  0  0  0  0  0  0  0  0
   -2.4033    2.5826    3.2193 N   0  0  0  0  0  0  0  0  0  0  0  0
    2.2122   -4.7458    1.8894 O   0  0  0  0  0  0  0  0  0  0  0  0
    2.2625   -5.8513    0.9863 C   0  0  0  0  0  0  0  0  0  0  0  0
    3.7585   -6.1945    0.9359 C   0  0  0  0  0  0  0  0  0  0  0  0
    4.3648   -4.9871    1.3586 O   0  0  0  0  0  0  0  0  0  0  0  0
   -3.1043    1.8511    3.0539 H   0  0  0  0  0  0  0  0  0  0  0  0
    6.4886   -2.6529    5.7518 H   0  0  0  0  0  0  0  0  0  0  0  0
    5.8771   -3.2034    4.1996 H   0  0  0  0  0  0  0  0  0  0  0  0
    5.7534   -4.2319    5.6641 H   0  0  0  0  0  0  0  0  0  0  0  0
    2.0966   -2.8108    3.4637 H   0  0  0  0  0  0  0  0  0  0  0  0
    4.1984   -0.5581    3.8182 H   0  0  0  0  0  0  0  0  0  0  0  0
    2.8973    0.3208    2.0269 H   0  0  0  0  0  0  0  0  0  0  0  0
    1.9946   -2.3694    1.0925 H   0  0  0  0  0  0  0  0  0  0  0  0
    3.0862   -1.0567   -0.2518 H   0  0  0  0  0  0  0  0  0  0  0  0
    4.7977   -2.6835    2.3718 H   0  0  0  0  0  0  0  0  0  0  0  0
    3.7081   -6.2096    3.6573 H   0  0  0  0  0  0  0  0  0  0  0  0
    4.8407   -5.0468    3.8494 H   0  0  0  0  0  0  0  0  0  0  0  0
    3.6183   -4.8265    5.8099 H   0  0  0  0  0  0  0  0  0  0  0  0
    0.3268   -6.9392    4.3545 H   0  0  0  0  0  0  0  0  0  0  0  0
    1.7763   -6.7573    3.4889 H   0  0  0  0  0  0  0  0  0  0  0  0
    0.5433   -5.5000    3.4007 H   0  0  0  0  0  0  0  0  0  0  0  0
    1.4638   -7.4547    6.2959 H   0  0  0  0  0  0  0  0  0  0  0  0
    2.6659   -6.4315    7.0791 H   0  0  0  0  0  0  0  0  0  0  0  0
    3.0076   -7.2170    5.5516 H   0  0  0  0  0  0  0  0  0  0  0  0
   -1.1960   -5.8976    5.2936 H   0  0  0  0  0  0  0  0  0  0  0  0
   -1.5226   -5.2358    6.8359 H   0  0  0  0  0  0  0  0  0  0  0  0
   -0.4748   -6.6321    6.7237 H   0  0  0  0  0  0  0  0  0  0  0  0
    2.1071   -4.3322    9.6205 H   0  0  0  0  0  0  0  0  0  0  0  0
    0.6022   -4.6054   10.5170 H   0  0  0  0  0  0  0  0  0  0  0  0
    1.1355   -2.9559   10.1564 H   0  0  0  0  0  0  0  0  0  0  0  0
    0.3318   -3.5415    4.2828 H   0  0  0  0  0  0  0  0  0  0  0  0
   -0.9368   -3.4343    5.3842 H   0  0  0  0  0  0  0  0  0  0  0  0
   -1.3401   -1.5859    6.1848 H   0  0  0  0  0  0  0  0  0  0  0  0
   -0.7601    0.8811    6.2527 H   0  0  0  0  0  0  0  0  0  0  0  0
    1.0176    1.4994    7.7537 H   0  0  0  0  0  0  0  0  0  0  0  0
    2.2432   -0.0934    8.9671 H   0  0  0  0  0  0  0  0  0  0  0  0
    1.0746   -1.3124    8.5544 H   0  0  0  0  0  0  0  0  0  0  0  0
    4.6166   -0.3757    6.2305 H   0  0  0  0  0  0  0  0  0  0  0  0
    4.4187   -0.0230    7.9284 H   0  0  0  0  0  0  0  0  0  0  0  0
    3.4677    0.8328    6.7508 H   0  0  0  0  0  0  0  0  0  0  0  0
    4.4850   -2.3764    7.9562 H   0  0  0  0  0  0  0  0  0  0  0  0
    3.0728   -3.3543    7.7134 H   0  0  0  0  0  0  0  0  0  0  0  0
    3.1688   -2.2509    9.0831 H   0  0  0  0  0  0  0  0  0  0  0  0
    2.3442    0.3911    5.0095 H   0  0  0  0  0  0  0  0  0  0  0  0
    0.5855   -1.3453    3.1681 H   0  0  0  0  0  0  0  0  0  0  0  0
    0.6378    3.6071    3.8146 H   0  0  0  0  0  0  0  0  0  0  0  0
   -1.1606    5.5948    3.3036 H   0  0  0  0  0  0  0  0  0  0  0  0
   -3.5569    4.3367    2.8263 H   0  0  0  0  0  0  0  0  0  0  0  0
    1.6700   -6.6964    1.3646 H   0  0  0  0  0  0  0  0  0  0  0  0
    1.9048   -5.5383   -0.0053 H   0  0  0  0  0  0  0  0  0  0  0  0
    4.0103   -6.9848    1.6536 H   0  0  0  0  0  0  0  0  0  0  0  0
    4.0856   -6.5179   -0.0535 H   0  0  0  0  0  0  0  0  0  0  0  0
  1  2  1  0
  1 47  1  0
  1 48  1  0
  1 49  1  0
  3  2  1  1
  3 12  1  0
  3 31  1  0
  3  4  1  0
  4  9  1  0
  4  5  1  0
  4 50  1  6
  5 32  1  0
  5  6  1  0
  5 51  1  1
  6 33  1  0
  6  7  1  0
  6 52  1  6
  7  8  1  0
  7  9  1  0
  7 53  1  6
  8 54  1  0
  9 10  1  0
  9 55  1  1
 10 45  1  0
 10 11  1  0
 10 42  1  0
 11 12  1  0
 11 56  1  0
 11 57  1  0
 12 13  1  0
 12 58  1  1
 13 14  1  0
 13 15  1  0
 13 16  1  0
 14 59  1  0
 14 60  1  0
 14 61  1  0
 15 62  1  0
 15 63  1  0
 15 64  1  0
 16 17  1  0
 16 18  1  1
 16 22  1  0
 17 65  1  0
 17 66  1  0
 17 67  1  0
 18 19  1  0
 19 20  1  0
 19 21  2  0
 20 68  1  0
 20 69  1  0
 20 70  1  0
 22 23  1  0
 22 71  1  0
 22 72  1  0
 23 31  1  0
 23 24  2  0
 24 25  1  0
 24 73  1  0
 25 26  2  0
 25 74  1  0
 26 27  1  0
 26 75  1  0
 27 28  1  0
 27 76  1  0
 27 77  1  0
 28 29  1  0
 28 30  1  0
 31 28  1  1
 29 78  1  0
 29 79  1  0
 29 80  1  0
 30 81  1  0
 30 82  1  0
 30 83  1  0
 31 32  1  0
 32 33  1  0
 32 84  1  1
 33 34  1  0
 33 85  1  6
 34 35  1  0
 35 36  2  0
 35 37  1  0
 37 41  1  0
 37 38  2  0
 38 39  1  0
 38 86  1  0
 39 40  2  0
 39 87  1  0
 40 41  1  0
 40 88  1  0
 41 46  1  0
 42 43  1  0
 43 44  1  0
 43 89  1  0
 43 90  1  0
 44 45  1  0
 44 91  1  0
 44 92  1  0
M  END
>  <i_m_ct_stereo_status>  (187) 
1

>  <s_m_source_file>  (187) 
/var/tmp/pbs.5076255.sched01/tmppvoazpai/72cbyqjt17.sdf

>  <i_m_source_file_index>  (187) 
13

>  <i_lp_mmshare_version>  (187) 
48012

>  <i_f3d_flags>  (187) 
0

>  <s_epik_input>  (187) 
TzFbQ0gyXVtDSDJdT0MxMltDQEBIXTNbQ0BIXTRbQ0BAXTUoT1tDSDNdKVtDQF02KEMoW0NIMl1bQ0BAXShbQ0gzXSkoQyhbQ0gzXSkoW0NIM10pW0NASF01W0NIMl0yKU9DKD1PKVtDSDNdKT1bQ0hdW0NIXT1bQ0hdW0NIMl1DNihbQ0gzXSlbQ0gzXSlbQ0BIXTdbQ0BASF00W0NAQEhdKFtDQEhdM1tPSF0pW0NAQEhdN09DKD1PKWM4W2NIXVtjSF1bY0hdW25IXTg=

>  <s_epik_cmdline>  (187) 
J2VwaWtfcHl0aG9uJywgJy1waHQnLCAnMi4wJywgJy1waCcsICc3LjAnLCAnLXRuJywgJzgnLCAnLW1hJywgJzIwMCcsICctaW1hZScsICc8aW5maWxlLm1hZT4nLCAnLW9tYWUnLCAnPG91dGZpbGUubWFlPic=

>  <r_lp_tautomer_probability>  (187) 
1

>  <r_epik_Ionization_Penalty>  (187) 
6.733e-07

>  <r_epik_Ionization_Penalty_Charging>  (187) 
0

>  <r_epik_Ionization_Penalty_Neutral>  (187) 
6.733e-07

>  <r_epik_State_Penalty>  (187) 
-0

>  <r_epik_Charging_Adjusted_Penalty>  (187) 
0

>  <i_epik_Tot_Q>  (187) 
0

>  <i_epik_Tot_abs_Q>  (187) 
0

>  <s_epik_Chemistry_Notes>  (187) 
This compound has an ester and may undergo hydrolysis at high or low pH.

>  <s_lp_Force_Field>  (187) 
OPLS3e

>  <r_lp_Energy>  (187) 
177.415

>  <b_lp_Chiralities_Consistent>  (187) 
1

>  <s_lp_Variant>  (187) 
68:0-1

>  <s_i_glide_gridfile>  (187) 
pfpi4k_grid

>  <i_i_glide_lignum>  (187) 
13

>  <i_i_glide_rotatable_bonds>  (187) 
7

>  <r_i_docking_score>  (187) 
-2.58449

>  <r_i_glide_ligand_efficiency>  (187) 
-0.0574331

>  <r_i_glide_ligand_efficiency_sa>  (187) 
-0.204283

>  <r_i_glide_ligand_efficiency_ln>  (187) 
-0.537689

>  <r_i_glide_gscore>  (187) 
-2.58449

>  <r_i_glide_lipo>  (187) 
-0.117803

>  <r_i_glide_hbond>  (187) 
-0.444043

>  <r_i_glide_metal>  (187) 
-0

>  <r_i_glide_rewards>  (187) 
-0.000840758

>  <r_i_glide_evdw>  (187) 
-25.8293

>  <r_i_glide_ecoul>  (187) 
-4.91228

>  <r_i_glide_erotb>  (187) 
0.0854294

>  <r_i_glide_esite>  (187) 
-0.0789285

>  <r_i_glide_emodel>  (187) 
-33.8483

>  <r_i_glide_energy>  (187) 
-30.7415

>  <r_i_glide_einternal>  (187) 
3.62028

>  <r_i_glide_intrahb_reward>  (187) 
-0

>  <i_i_glide_confnum>  (187) 
1

>  <i_i_glide_posenum>  (187) 
2

>  <r_i_glide_eff_state_penalty>  (187) 
0

>  <ligand_id>  (187) 
68

>  <original_smiles>  (187) 
COC12C3C4C5C(O)C3C3(CC1C(C)(C)C(C)(OC(C)=O)CC1=CC=CCC(C)(C)C12C4C5OC(=O)c1ccc[nH]1)OCCO3

>  <smiles>  (187) 
[H]OC1([H])C2([H])C([H])(OC(=O)c3c([H])c([H])c([H])n3[H])C3([H])C2([H])C2([H])C1([H])C1(OC([H])([H])C([H])([H])O1)C([H])([H])C1([H])C2(OC([H])([H])[H])C32C(=C([H])C([H])=C([H])C([H])([H])C2(C([H])([H])[H])C([H])([H])[H])C([H])([H])C(OC(=O)C([H])([H])[H])(C([H])([H])[H])C1(C([H])([H])[H])C([H])([H])[H]

$$$$
69:1:0
     RDKit          3D

 70 76  0  0  1  0  0  0  0  0999 V2000
    1.4681   -7.0594    1.3239 C   0  0  0  0  0  0  0  0  0  0  0  0
    1.9791   -6.3030    2.5369 C   0  0  0  0  0  0  0  0  0  0  0  0
    3.2167   -5.7701    2.6207 C   0  0  0  0  0  0  0  0  0  0  0  0
    3.7132   -4.9248    3.7935 C   0  0  2  0  0  0  0  0  0  0  0  0
    3.2376   -5.5972    5.0678 C   0  0  2  0  0  0  0  0  0  0  0  0
    2.6901   -6.9004    5.2925 O   0  0  0  0  0  0  0  0  0  0  0  0
    1.7606   -5.8493    5.0094 C   0  0  2  0  0  0  0  0  0  0  0  0
    1.0715   -6.1548    3.7019 C   0  0  0  0  0  0  0  0  0  0  0  0
   -0.1424   -6.3054    3.6562 O   0  0  0  0  0  0  0  0  0  0  0  0
    0.9902   -4.9645    5.9747 C   0  0  1  0  0  0  0  0  0  0  0  0
    1.4890   -5.0758    7.2979 O   0  0  0  0  0  0  0  0  0  0  0  0
    1.1107   -3.4828    5.4946 C   0  0  0  0  0  0  0  0  0  0  0  0
    2.5734   -2.9845    5.1747 C   0  0  2  0  0  0  0  0  0  0  0  0
    2.8732   -1.5030    5.4188 C   0  0  1  0  0  0  0  0  0  0  0  0
    2.6780   -1.0188    6.8676 C   0  0  0  0  0  0  0  0  0  0  0  0
    4.3407   -1.4525    5.0041 C   0  0  0  0  0  0  0  0  0  0  0  0
    4.4482   -2.3331    3.7566 C   0  0  1  0  0  0  0  0  0  0  0  0
    3.2478   -3.3694    3.7717 C   0  0  1  0  0  0  0  0  0  0  0  0
    2.2343   -3.0305    2.5966 C   0  0  0  0  0  0  0  0  0  0  0  0
    2.5914   -3.1756    1.0680 C   0  0  0  0  0  0  0  0  0  0  0  0
    3.5830   -2.2898    0.2888 C   0  0  2  0  0  0  0  0  0  0  0  0
    3.8481   -2.8201   -1.1681 C   0  0  0  0  0  0  0  0  0  0  0  0
    2.5349   -3.1086   -1.9450 C   0  0  0  0  0  0  0  0  0  0  0  0
    4.6016   -1.7734   -2.0198 C   0  0  0  0  0  0  0  0  0  0  0  0
    4.6593   -4.1253   -1.0863 C   0  0  1  0  0  0  0  0  0  0  0  0
    5.0110   -4.4876   -2.3984 O   0  0  0  0  0  0  0  0  0  0  0  0
    5.9270   -4.0293   -0.2377 C   0  0  0  0  0  0  0  0  0  0  0  0
    5.6539   -3.4411    1.1510 C   0  0  0  0  0  0  0  0  0  0  0  0
    4.8028   -2.1682    1.1860 C   0  0  1  0  0  0  0  0  0  0  0  0
    5.7656   -1.0180    1.0192 C   0  0  0  0  0  0  0  0  0  0  0  0
    6.3056   -0.4582    0.0866 O   0  0  0  0  0  0  0  0  0  0  0  0
    5.8644   -0.8187    2.3613 O   0  0  0  0  0  0  0  0  0  0  0  0
    4.5595   -1.4382    2.5036 C   0  0  2  0  0  0  0  0  0  0  0  0
    3.5140   -0.4476    2.5067 O   0  0  0  0  0  0  0  0  0  0  0  0
    0.5410   -6.6188    0.9617 H   0  0  0  0  0  0  0  0  0  0  0  0
    1.2985   -8.1234    1.5191 H   0  0  0  0  0  0  0  0  0  0  0  0
    2.1944   -6.9758    0.5172 H   0  0  0  0  0  0  0  0  0  0  0  0
    3.9091   -5.9049    1.8058 H   0  0  0  0  0  0  0  0  0  0  0  0
    4.8001   -5.0177    3.8081 H   0  0  0  0  0  0  0  0  0  0  0  0
    3.7524   -5.3080    5.9764 H   0  0  0  0  0  0  0  0  0  0  0  0
   -0.0595   -5.2681    6.0095 H   0  0  0  0  0  0  0  0  0  0  0  0
    1.4834   -5.9872    7.5465 H   0  0  0  0  0  0  0  0  0  0  0  0
    0.4341   -3.3140    4.6559 H   0  0  0  0  0  0  0  0  0  0  0  0
    0.6982   -2.8711    6.2903 H   0  0  0  0  0  0  0  0  0  0  0  0
    3.1876   -3.3686    5.9875 H   0  0  0  0  0  0  0  0  0  0  0  0
    2.2877   -0.8774    4.7486 H   0  0  0  0  0  0  0  0  0  0  0  0
    3.1917   -1.6602    7.5854 H   0  0  0  0  0  0  0  0  0  0  0  0
    1.6258   -0.9930    7.1442 H   0  0  0  0  0  0  0  0  0  0  0  0
    3.0677   -0.0086    6.9978 H   0  0  0  0  0  0  0  0  0  0  0  0
    4.7168   -0.4363    4.8618 H   0  0  0  0  0  0  0  0  0  0  0  0
    4.9605   -1.9027    5.7780 H   0  0  0  0  0  0  0  0  0  0  0  0
    5.3798   -2.8869    3.8474 H   0  0  0  0  0  0  0  0  0  0  0  0
    1.3651   -3.6605    2.7207 H   0  0  0  0  0  0  0  0  0  0  0  0
    1.7697   -2.0614    2.7606 H   0  0  0  0  0  0  0  0  0  0  0  0
    2.7055   -4.2140    0.8008 H   0  0  0  0  0  0  0  0  0  0  0  0
    1.7018   -2.8765    0.5547 H   0  0  0  0  0  0  0  0  0  0  0  0
    3.1054   -1.3187    0.1414 H   0  0  0  0  0  0  0  0  0  0  0  0
    2.6969   -3.3694   -2.9903 H   0  0  0  0  0  0  0  0  0  0  0  0
    1.8809   -2.2583   -2.0043 H   0  0  0  0  0  0  0  0  0  0  0  0
    1.9749   -3.9321   -1.5063 H   0  0  0  0  0  0  0  0  0  0  0  0
    4.5543   -1.9917   -3.0876 H   0  0  0  0  0  0  0  0  0  0  0  0
    5.6591   -1.7628   -1.7886 H   0  0  0  0  0  0  0  0  0  0  0  0
    4.2053   -0.7718   -1.8672 H   0  0  0  0  0  0  0  0  0  0  0  0
    4.0438   -4.9366   -0.6903 H   0  0  0  0  0  0  0  0  0  0  0  0
    4.3768   -5.1295   -2.6694 H   0  0  0  0  0  0  0  0  0  0  0  0
    6.3333   -5.0330   -0.1132 H   0  0  0  0  0  0  0  0  0  0  0  0
    6.6927   -3.4538   -0.7586 H   0  0  0  0  0  0  0  0  0  0  0  0
    5.1325   -4.1958    1.7046 H   0  0  0  0  0  0  0  0  0  0  0  0
    6.6020   -3.3068    1.6729 H   0  0  0  0  0  0  0  0  0  0  0  0
    3.6215    0.1226    1.7579 H   0  0  0  0  0  0  0  0  0  0  0  0
  1  2  1  0
  1 35  1  0
  1 36  1  0
  1 37  1  0
  2  8  1  0
  2  3  2  0
  3  4  1  0
  3 38  1  0
  4 18  1  0
  4  5  1  0
  4 39  1  1
  5  7  1  0
  5  6  1  0
  5 40  1  1
  7  6  1  1
  7  8  1  0
  7 10  1  0
  8  9  2  0
 10 11  1  0
 10 12  1  0
 10 41  1  1
 11 42  1  0
 12 13  1  0
 12 43  1  0
 12 44  1  0
 13 18  1  0
 13 14  1  0
 13 45  1  1
 14 15  1  0
 14 16  1  0
 14 46  1  6
 15 47  1  0
 15 48  1  0
 15 49  1  0
 16 17  1  0
 16 50  1  0
 16 51  1  0
 17 33  1  0
 17 18  1  0
 17 52  1  1
 18 19  1  6
 19 20  1  0
 19 53  1  0
 19 54  1  0
 20 21  1  0
 20 55  1  0
 20 56  1  0
 21 29  1  0
 21 22  1  0
 21 57  1  6
 22 23  1  0
 22 24  1  0
 22 25  1  0
 23 58  1  0
 23 59  1  0
 23 60  1  0
 24 61  1  0
 24 62  1  0
 24 63  1  0
 25 26  1  0
 25 27  1  0
 25 64  1  1
 26 65  1  0
 27 28  1  0
 27 66  1  0
 27 67  1  0
 29 28  1  1
 28 68  1  0
 28 69  1  0
 29 33  1  0
 29 30  1  0
 30 31  2  0
 30 32  1  0
 32 33  1  0
 33 34  1  6
 34 70  1  0
M  END
>  <i_m_ct_stereo_status>  (188) 
1

>  <s_m_source_file>  (188) 
/var/tmp/pbs.5076255.sched01/tmppvoazpai/72cbyqjt17.sdf

>  <i_m_source_file_index>  (188) 
15

>  <i_lp_mmshare_version>  (188) 
48012

>  <i_f3d_flags>  (188) 
0

>  <s_epik_input>  (188) 
Tz1DMUMoW0NIM10pPVtDSF1bQ0BIXShbQ0BIXShPMilbQ0BAXTEyMylbQ0BAXTQ1W0NASF0oW0NIMl1bQ0BASF0zW09IXSlbQ0BASF0oW0NIM10pW0NIMl1bQ0BASF00W0NAXTYoW09IXSlbQ0BdNyhDKD1PKU82KVtDQEhdKFtDSDJdW0NIMl01KUMoW0NIM10pKFtDSDNdKVtDQEBIXShbT0hdKVtDSDJdW0NIMl03

>  <s_epik_cmdline>  (188) 
J2VwaWtfcHl0aG9uJywgJy1waHQnLCAnMi4wJywgJy1waCcsICc3LjAnLCAnLXRuJywgJzgnLCAnLW1hJywgJzIwMCcsICctaW1hZScsICc8aW5maWxlLm1hZT4nLCAnLW9tYWUnLCAnPG91dGZpbGUubWFlPic=

>  <r_lp_tautomer_probability>  (188) 
1

>  <r_epik_Ionization_Penalty>  (188) 
2.24739e-05

>  <r_epik_Ionization_Penalty_Charging>  (188) 
0

>  <r_epik_Ionization_Penalty_Neutral>  (188) 
2.24739e-05

>  <r_epik_State_Penalty>  (188) 
-0

>  <r_epik_Charging_Adjusted_Penalty>  (188) 
0

>  <i_epik_Tot_Q>  (188) 
0

>  <i_epik_Tot_abs_Q>  (188) 
0

>  <s_epik_Chemistry_Notes>  (188) 
This compound has an ester and may undergo hydrolysis at high or low pH.

>  <s_lp_Force_Field>  (188) 
OPLS3e

>  <r_lp_Energy>  (188) 
104.689

>  <b_lp_Chiralities_Consistent>  (188) 
1

>  <s_lp_Variant>  (188) 
69:0-2

>  <s_i_glide_gridfile>  (188) 
pfpi4k_grid

>  <i_i_glide_lignum>  (188) 
15

>  <i_i_glide_rotatable_bonds>  (188) 
3

>  <r_i_docking_score>  (188) 
-3.14839

>  <r_i_glide_ligand_efficiency>  (188) 
-0.0925996

>  <r_i_glide_ligand_efficiency_sa>  (188) 
-0.299987

>  <r_i_glide_ligand_efficiency_ln>  (188) 
-0.695567

>  <r_i_glide_gscore>  (188) 
-3.14839

>  <r_i_glide_lipo>  (188) 
-0.217206

>  <r_i_glide_hbond>  (188) 
-0.408032

>  <r_i_glide_metal>  (188) 
-0

>  <r_i_glide_rewards>  (188) 
-0.417473

>  <r_i_glide_evdw>  (188) 
-22.3117

>  <r_i_glide_ecoul>  (188) 
-6.47385

>  <r_i_glide_erotb>  (188) 
0

>  <r_i_glide_esite>  (188) 
-0.019012

>  <r_i_glide_emodel>  (188) 
-31.4587

>  <r_i_glide_energy>  (188) 
-28.7856

>  <r_i_glide_einternal>  (188) 
1.32783

>  <r_i_glide_intrahb_reward>  (188) 
-0

>  <i_i_glide_confnum>  (188) 
2

>  <i_i_glide_posenum>  (188) 
4

>  <r_i_glide_eff_state_penalty>  (188) 
0

>  <ligand_id>  (188) 
69

>  <original_smiles>  (188) 
CC1=CC2C3OC3(C1=O)C(O)CC1C(C)CC3C21CCC1C(C)(C)C(O)CCC12C(=O)OC32O

>  <smiles>  (188) 
[H]OC1([H])C([H])([H])C2([H])C([H])(C([H])([H])[H])C([H])([H])C3([H])C4(O[H])OC(=O)C45C([H])([H])C([H])([H])C([H])(O[H])C(C([H])([H])[H])(C([H])([H])[H])C5([H])C([H])([H])C([H])([H])C32C2([H])C([H])=C(C([H])([H])[H])C(=O)C13OC23[H]

$$$$
69:1:1
     RDKit          3D

 70 76  0  0  1  0  0  0  0  0999 V2000
    1.3457   -6.6888    0.6510 C   0  0  0  0  0  0  0  0  0  0  0  0
    1.9244   -6.1693    1.9269 C   0  0  0  0  0  0  0  0  0  0  0  0
    3.1822   -5.6990    2.0338 C   0  0  0  0  0  0  0  0  0  0  0  0
    3.7309   -5.0099    3.2861 C   0  0  2  0  0  0  0  0  0  0  0  0
    3.2485   -5.8002    4.4957 C   0  0  2  0  0  0  0  0  0  0  0  0
    2.6614   -7.1132    4.5980 O   0  0  0  0  0  0  0  0  0  0  0  0
    1.7598   -6.0067    4.4205 C   0  0  2  0  0  0  0  0  0  0  0  0
    1.0441   -6.1876    3.1031 C   0  0  0  0  0  0  0  0  0  0  0  0
   -0.1791   -6.3217    3.0244 O   0  0  0  0  0  0  0  0  0  0  0  0
    1.0275   -5.1806    5.4636 C   0  0  1  0  0  0  0  0  0  0  0  0
    1.5007   -5.4370    6.7700 O   0  0  0  0  0  0  0  0  0  0  0  0
    1.1822   -3.6586    5.1409 C   0  0  0  0  0  0  0  0  0  0  0  0
    2.6544   -3.1734    4.8619 C   0  0  2  0  0  0  0  0  0  0  0  0
    3.0113   -1.7418    5.2641 C   0  0  1  0  0  0  0  0  0  0  0  0
    2.8348   -1.4127    6.7572 C   0  0  0  0  0  0  0  0  0  0  0  0
    4.4882   -1.7099    4.8510 C   0  0  0  0  0  0  0  0  0  0  0  0
    4.5554   -2.4498    3.5123 C   0  0  1  0  0  0  0  0  0  0  0  0
    3.3205   -3.4369    3.4256 C   0  0  1  0  0  0  0  0  0  0  0  0
    2.2970   -2.9508    2.2947 C   0  0  0  0  0  0  0  0  0  0  0  0
    2.6078   -2.9608    0.7391 C   0  0  0  0  0  0  0  0  0  0  0  0
    3.6557   -2.0403    0.0481 C   0  0  2  0  0  0  0  0  0  0  0  0
    3.9380   -2.4230   -1.4662 C   0  0  0  0  0  0  0  0  0  0  0  0
    2.6215   -2.6177   -2.2786 C   0  0  0  0  0  0  0  0  0  0  0  0
    4.7257   -1.2961   -2.1778 C   0  0  0  0  0  0  0  0  0  0  0  0
    4.7078   -3.7457   -1.5123 C   0  0  1  0  0  0  0  0  0  0  0  0
    5.0358   -4.0815   -2.8335 O   0  0  0  0  0  0  0  0  0  0  0  0
    5.9700   -3.7656   -0.6516 C   0  0  0  0  0  0  0  0  0  0  0  0
    5.7089   -3.3454    0.8020 C   0  0  0  0  0  0  0  0  0  0  0  0
    4.8917   -2.0545    0.9731 C   0  0  1  0  0  0  0  0  0  0  0  0
    5.9520   -0.9102    0.9076 C   0  0  0  0  0  0  0  0  0  0  0  0
    6.5978   -0.3408    0.0916 O   0  0  0  0  0  0  0  0  0  0  0  0
    5.9789   -0.8315    2.2902 O   0  0  0  0  0  0  0  0  0  0  0  0
    4.6833   -1.4384    2.3571 C   0  0  2  0  0  0  0  0  0  0  0  0
    3.6919   -0.4044    2.4947 O   0  0  0  0  0  0  0  0  0  0  0  0
    0.4187   -6.2244    0.3465 H   0  0  0  0  0  0  0  0  0  0  0  0
    1.1836   -7.7693    0.7225 H   0  0  0  0  0  0  0  0  0  0  0  0
    2.0875   -6.4828   -0.1169 H   0  0  0  0  0  0  0  0  0  0  0  0
    3.8633   -5.7625    1.1905 H   0  0  0  0  0  0  0  0  0  0  0  0
    4.8201   -5.1237    3.2735 H   0  0  0  0  0  0  0  0  0  0  0  0
    3.7992   -5.6122    5.4196 H   0  0  0  0  0  0  0  0  0  0  0  0
   -0.0311   -5.4405    5.4667 H   0  0  0  0  0  0  0  0  0  0  0  0
    2.4388   -5.3208    6.7876 H   0  0  0  0  0  0  0  0  0  0  0  0
    0.5240   -3.3817    4.3201 H   0  0  0  0  0  0  0  0  0  0  0  0
    0.7861   -3.1091    5.9920 H   0  0  0  0  0  0  0  0  0  0  0  0
    3.2546   -3.6739    5.6139 H   0  0  0  0  0  0  0  0  0  0  0  0
    2.4421   -1.0288    4.6676 H   0  0  0  0  0  0  0  0  0  0  0  0
    3.3285   -2.1465    7.3946 H   0  0  0  0  0  0  0  0  0  0  0  0
    1.7836   -1.3792    7.0344 H   0  0  0  0  0  0  0  0  0  0  0  0
    3.2619   -0.4379    6.9892 H   0  0  0  0  0  0  0  0  0  0  0  0
    4.8902   -0.6922    4.8131 H   0  0  0  0  0  0  0  0  0  0  0  0
    5.0963   -2.2519    5.5847 H   0  0  0  0  0  0  0  0  0  0  0  0
    5.4661   -3.0368    3.5317 H   0  0  0  0  0  0  0  0  0  0  0  0
    1.4111   -3.5748    2.3705 H   0  0  0  0  0  0  0  0  0  0  0  0
    1.8846   -1.9773    2.5562 H   0  0  0  0  0  0  0  0  0  0  0  0
    2.7606   -3.9661    0.3905 H   0  0  0  0  0  0  0  0  0  0  0  0
    1.6706   -2.7028    0.2642 H   0  0  0  0  0  0  0  0  0  0  0  0
    3.2430   -1.0267    0.0408 H   0  0  0  0  0  0  0  0  0  0  0  0
    2.8252   -2.8171   -3.3336 H   0  0  0  0  0  0  0  0  0  0  0  0
    2.0557   -1.6947   -2.3051 H   0  0  0  0  0  0  0  0  0  0  0  0
    2.0258   -3.4552   -1.9003 H   0  0  0  0  0  0  0  0  0  0  0  0
    4.6681   -1.3863   -3.2595 H   0  0  0  0  0  0  0  0  0  0  0  0
    5.7879   -1.3304   -1.9567 H   0  0  0  0  0  0  0  0  0  0  0  0
    4.3612   -0.3022   -1.9157 H   0  0  0  0  0  0  0  0  0  0  0  0
    4.0780   -4.5497   -1.1708 H   0  0  0  0  0  0  0  0  0  0  0  0
    4.4540   -4.7924   -3.1109 H   0  0  0  0  0  0  0  0  0  0  0  0
    6.3297   -4.7845   -0.6078 H   0  0  0  0  0  0  0  0  0  0  0  0
    6.7635   -3.1655   -1.1025 H   0  0  0  0  0  0  0  0  0  0  0  0
    5.1622   -4.1350    1.2856 H   0  0  0  0  0  0  0  0  0  0  0  0
    6.6622   -3.2863    1.3333 H   0  0  0  0  0  0  0  0  0  0  0  0
    3.8374    0.2311    1.8058 H   0  0  0  0  0  0  0  0  0  0  0  0
  1  2  1  0
  1 35  1  0
  1 36  1  0
  1 37  1  0
  2  8  1  0
  2  3  2  0
  3  4  1  0
  3 38  1  0
  4 18  1  0
  4  5  1  0
  4 39  1  6
  5  7  1  0
  5  6  1  0
  5 40  1  1
  7  6  1  1
  7  8  1  0
  7 10  1  0
  8  9  2  0
 10 11  1  0
 10 12  1  0
 10 41  1  1
 11 42  1  0
 12 13  1  0
 12 43  1  0
 12 44  1  0
 13 18  1  0
 13 14  1  0
 13 45  1  1
 14 15  1  0
 14 16  1  0
 14 46  1  6
 15 47  1  0
 15 48  1  0
 15 49  1  0
 16 17  1  0
 16 50  1  0
 16 51  1  0
 17 33  1  0
 17 18  1  0
 17 52  1  1
 18 19  1  6
 19 20  1  0
 19 53  1  0
 19 54  1  0
 20 21  1  0
 20 55  1  0
 20 56  1  0
 21 29  1  0
 21 22  1  0
 21 57  1  6
 22 23  1  0
 22 24  1  0
 22 25  1  0
 23 58  1  0
 23 59  1  0
 23 60  1  0
 24 61  1  0
 24 62  1  0
 24 63  1  0
 25 26  1  0
 25 27  1  0
 25 64  1  1
 26 65  1  0
 27 28  1  0
 27 66  1  0
 27 67  1  0
 29 28  1  1
 28 68  1  0
 28 69  1  0
 29 33  1  0
 29 30  1  0
 30 31  2  0
 30 32  1  0
 32 33  1  0
 33 34  1  6
 34 70  1  0
M  END
>  <i_m_ct_stereo_status>  (189) 
1

>  <s_m_source_file>  (189) 
/var/tmp/pbs.5076255.sched01/tmppvoazpai/72cbyqjt17.sdf

>  <i_m_source_file_index>  (189) 
15

>  <i_lp_mmshare_version>  (189) 
48012

>  <i_f3d_flags>  (189) 
0

>  <s_epik_input>  (189) 
Tz1DMUMoW0NIM10pPVtDSF1bQ0BIXShbQ0BIXShPMilbQ0BAXTEyMylbQ0BAXTQ1W0NASF0oW0NIMl1bQ0BASF0zW09IXSlbQ0BASF0oW0NIM10pW0NIMl1bQ0BASF00W0NAXTYoW09IXSlbQ0BdNyhDKD1PKU82KVtDQEhdKFtDSDJdW0NIMl01KUMoW0NIM10pKFtDSDNdKVtDQEBIXShbT0hdKVtDSDJdW0NIMl03

>  <s_epik_cmdline>  (189) 
J2VwaWtfcHl0aG9uJywgJy1waHQnLCAnMi4wJywgJy1waCcsICc3LjAnLCAnLXRuJywgJzgnLCAnLW1hJywgJzIwMCcsICctaW1hZScsICc8aW5maWxlLm1hZT4nLCAnLW9tYWUnLCAnPG91dGZpbGUubWFlPic=

>  <r_lp_tautomer_probability>  (189) 
1

>  <r_epik_Ionization_Penalty>  (189) 
2.24739e-05

>  <r_epik_Ionization_Penalty_Charging>  (189) 
0

>  <r_epik_Ionization_Penalty_Neutral>  (189) 
2.24739e-05

>  <r_epik_State_Penalty>  (189) 
-0

>  <r_epik_Charging_Adjusted_Penalty>  (189) 
0

>  <i_epik_Tot_Q>  (189) 
0

>  <i_epik_Tot_abs_Q>  (189) 
0

>  <s_epik_Chemistry_Notes>  (189) 
This compound has an ester and may undergo hydrolysis at high or low pH.

>  <s_lp_Force_Field>  (189) 
OPLS3e

>  <r_lp_Energy>  (189) 
104.689

>  <b_lp_Chiralities_Consistent>  (189) 
1

>  <s_lp_Variant>  (189) 
69:0-2

>  <s_i_glide_gridfile>  (189) 
pfpi4k_grid

>  <i_i_glide_lignum>  (189) 
15

>  <i_i_glide_rotatable_bonds>  (189) 
3

>  <r_i_docking_score>  (189) 
-3.06608

>  <r_i_glide_ligand_efficiency>  (189) 
-0.0901788

>  <r_i_glide_ligand_efficiency_sa>  (189) 
-0.292144

>  <r_i_glide_ligand_efficiency_ln>  (189) 
-0.677383

>  <r_i_glide_gscore>  (189) 
-3.06608

>  <r_i_glide_lipo>  (189) 
-0.20382

>  <r_i_glide_hbond>  (189) 
-0.464738

>  <r_i_glide_metal>  (189) 
-0

>  <r_i_glide_rewards>  (189) 
-0.422734

>  <r_i_glide_evdw>  (189) 
-19.4346

>  <r_i_glide_ecoul>  (189) 
-6.46192

>  <r_i_glide_erotb>  (189) 
0

>  <r_i_glide_esite>  (189) 
-0.0337717

>  <r_i_glide_emodel>  (189) 
-28.3135

>  <r_i_glide_energy>  (189) 
-25.8965

>  <r_i_glide_einternal>  (189) 
1.37412

>  <r_i_glide_intrahb_reward>  (189) 
-0

>  <i_i_glide_confnum>  (189) 
1

>  <i_i_glide_posenum>  (189) 
17

>  <r_i_glide_eff_state_penalty>  (189) 
0

>  <ligand_id>  (189) 
69

>  <original_smiles>  (189) 
CC1=CC2C3OC3(C1=O)C(O)CC1C(C)CC3C21CCC1C(C)(C)C(O)CCC12C(=O)OC32O

>  <smiles>  (189) 
[H]OC1([H])C([H])([H])C2([H])C([H])(C([H])([H])[H])C([H])([H])C3([H])C4(O[H])OC(=O)C45C([H])([H])C([H])([H])C([H])(O[H])C(C([H])([H])[H])(C([H])([H])[H])C5([H])C([H])([H])C([H])([H])C32C2([H])C([H])=C(C([H])([H])[H])C(=O)C13OC23[H]

$$$$
69:1:2
     RDKit          3D

 70 76  0  0  1  0  0  0  0  0999 V2000
    1.5388   -7.0955    1.3244 C   0  0  0  0  0  0  0  0  0  0  0  0
    2.0645   -6.3641    2.5532 C   0  0  0  0  0  0  0  0  0  0  0  0
    3.2894   -5.8285    2.6277 C   0  0  0  0  0  0  0  0  0  0  0  0
    3.7916   -4.9913    3.8109 C   0  0  2  0  0  0  0  0  0  0  0  0
    3.3353   -5.6959    5.0869 C   0  0  2  0  0  0  0  0  0  0  0  0
    2.7883   -7.0051    5.2968 O   0  0  0  0  0  0  0  0  0  0  0  0
    1.8595   -5.9506    5.0328 C   0  0  2  0  0  0  0  0  0  0  0  0
    1.1533   -6.2189    3.7151 C   0  0  0  0  0  0  0  0  0  0  0  0
   -0.0726   -6.2731    3.6418 O   0  0  0  0  0  0  0  0  0  0  0  0
    1.1022   -5.0697    6.0191 C   0  0  1  0  0  0  0  0  0  0  0  0
    1.6110   -5.1995    7.3343 O   0  0  0  0  0  0  0  0  0  0  0  0
    1.2101   -3.5772    5.5615 C   0  0  0  0  0  0  0  0  0  0  0  0
    2.6632   -3.0694    5.2277 C   0  0  2  0  0  0  0  0  0  0  0  0
    2.9675   -1.5930    5.4931 C   0  0  1  0  0  0  0  0  0  0  0  0
    2.7856   -1.1342    6.9511 C   0  0  0  0  0  0  0  0  0  0  0  0
    4.4353   -1.5387    5.0699 C   0  0  0  0  0  0  0  0  0  0  0  0
    4.5296   -2.3987    3.7966 C   0  0  1  0  0  0  0  0  0  0  0  0
    3.3213   -3.4378    3.8136 C   0  0  1  0  0  0  0  0  0  0  0  0
    2.2889   -3.0836    2.6509 C   0  0  0  0  0  0  0  0  0  0  0  0
    2.6169   -3.2087    1.1086 C   0  0  0  0  0  0  0  0  0  0  0  0
    3.6184   -2.3143    0.3391 C   0  0  2  0  0  0  0  0  0  0  0  0
    3.8751   -2.8167   -1.1304 C   0  0  0  0  0  0  0  0  0  0  0  0
    2.5575   -3.1098   -1.8932 C   0  0  0  0  0  0  0  0  0  0  0  0
    4.6242   -1.7563   -1.9689 C   0  0  0  0  0  0  0  0  0  0  0  0
    4.6892   -4.1209   -1.0740 C   0  0  1  0  0  0  0  0  0  0  0  0
    5.0174   -4.4968   -2.3895 O   0  0  0  0  0  0  0  0  0  0  0  0
    5.9669   -4.0362   -0.2369 C   0  0  0  0  0  0  0  0  0  0  0  0
    5.7065   -3.4791    1.1649 C   0  0  0  0  0  0  0  0  0  0  0  0
    4.8635   -2.1978    1.2118 C   0  0  1  0  0  0  0  0  0  0  0  0
    5.8210   -1.0274    1.0397 C   0  0  0  0  0  0  0  0  0  0  0  0
    6.3677   -0.4470    0.1080 O   0  0  0  0  0  0  0  0  0  0  0  0
    5.9256   -0.8361    2.3898 O   0  0  0  0  0  0  0  0  0  0  0  0
    4.6319   -1.4904    2.5564 C   0  0  2  0  0  0  0  0  0  0  0  0
    3.6102   -0.4946    2.5883 O   0  0  0  0  0  0  0  0  0  0  0  0
    0.6077   -6.6541    0.9790 H   0  0  0  0  0  0  0  0  0  0  0  0
    1.3696   -8.1570    1.5100 H   0  0  0  0  0  0  0  0  0  0  0  0
    2.2640   -7.0037    0.5185 H   0  0  0  0  0  0  0  0  0  0  0  0
    3.9744   -5.9516    1.7985 H   0  0  0  0  0  0  0  0  0  0  0  0
    4.8761   -5.0781    3.8120 H   0  0  0  0  0  0  0  0  0  0  0  0
    3.8686   -5.4068    5.9930 H   0  0  0  0  0  0  0  0  0  0  0  0
    0.0523   -5.3722    6.0592 H   0  0  0  0  0  0  0  0  0  0  0  0
    1.6035   -6.1202    7.5700 H   0  0  0  0  0  0  0  0  0  0  0  0
    0.5308   -3.3999    4.7283 H   0  0  0  0  0  0  0  0  0  0  0  0
    0.7988   -2.9745    6.3670 H   0  0  0  0  0  0  0  0  0  0  0  0
    3.2832   -3.4744    6.0216 H   0  0  0  0  0  0  0  0  0  0  0  0
    2.3670   -0.9606    4.8407 H   0  0  0  0  0  0  0  0  0  0  0  0
    3.3072   -1.7876    7.6516 H   0  0  0  0  0  0  0  0  0  0  0  0
    1.7357   -1.1133    7.2357 H   0  0  0  0  0  0  0  0  0  0  0  0
    3.1758   -0.1269    7.0943 H   0  0  0  0  0  0  0  0  0  0  0  0
    4.8090   -0.5206    4.9408 H   0  0  0  0  0  0  0  0  0  0  0  0
    5.0644   -1.9973    5.8352 H   0  0  0  0  0  0  0  0  0  0  0  0
    5.4618   -2.9545    3.8697 H   0  0  0  0  0  0  0  0  0  0  0  0
    1.4221   -3.7210    2.7735 H   0  0  0  0  0  0  0  0  0  0  0  0
    1.8406   -2.1086    2.8287 H   0  0  0  0  0  0  0  0  0  0  0  0
    2.7607   -4.2457    0.8375 H   0  0  0  0  0  0  0  0  0  0  0  0
    1.7091   -2.9293    0.6124 H   0  0  0  0  0  0  0  0  0  0  0  0
    3.1482   -1.3313    0.2332 H   0  0  0  0  0  0  0  0  0  0  0  0
    2.7142   -3.3528   -2.9433 H   0  0  0  0  0  0  0  0  0  0  0  0
    1.8960   -2.2600   -1.9393 H   0  0  0  0  0  0  0  0  0  0  0  0
    2.0075   -3.9444   -1.4595 H   0  0  0  0  0  0  0  0  0  0  0  0
    4.5649   -1.9573   -3.0396 H   0  0  0  0  0  0  0  0  0  0  0  0
    5.6864   -1.7457   -1.7521 H   0  0  0  0  0  0  0  0  0  0  0  0
    4.2283   -0.7536   -1.7980 H   0  0  0  0  0  0  0  0  0  0  0  0
    4.0845   -4.9393   -0.6853 H   0  0  0  0  0  0  0  0  0  0  0  0
    4.3634   -5.1273   -2.6749 H   0  0  0  0  0  0  0  0  0  0  0  0
    6.3817   -5.0392   -0.1262 H   0  0  0  0  0  0  0  0  0  0  0  0
    6.7286   -3.4526   -0.7525 H   0  0  0  0  0  0  0  0  0  0  0  0
    5.1863   -4.2319    1.7221 H   0  0  0  0  0  0  0  0  0  0  0  0
    6.6574   -3.3456    1.6815 H   0  0  0  0  0  0  0  0  0  0  0  0
    3.8998    0.2147    3.1512 H   0  0  0  0  0  0  0  0  0  0  0  0
  1  2  1  0
  1 35  1  0
  1 36  1  0
  1 37  1  0
  2  8  1  0
  2  3  2  0
  3  4  1  0
  3 38  1  0
  4 18  1  0
  4  5  1  0
  4 39  1  1
  5  7  1  0
  5  6  1  0
  5 40  1  1
  7  6  1  1
  7  8  1  0
  7 10  1  0
  8  9  2  0
 10 11  1  0
 10 12  1  0
 10 41  1  1
 11 42  1  0
 12 13  1  0
 12 43  1  0
 12 44  1  0
 13 18  1  0
 13 14  1  0
 13 45  1  1
 14 15  1  0
 14 16  1  0
 14 46  1  6
 15 47  1  0
 15 48  1  0
 15 49  1  0
 16 17  1  0
 16 50  1  0
 16 51  1  0
 17 33  1  0
 17 18  1  0
 17 52  1  1
 18 19  1  6
 19 20  1  0
 19 53  1  0
 19 54  1  0
 20 21  1  0
 20 55  1  0
 20 56  1  0
 21 29  1  0
 21 22  1  0
 21 57  1  6
 22 23  1  0
 22 24  1  0
 22 25  1  0
 23 58  1  0
 23 59  1  0
 23 60  1  0
 24 61  1  0
 24 62  1  0
 24 63  1  0
 25 26  1  0
 25 27  1  0
 25 64  1  1
 26 65  1  0
 27 28  1  0
 27 66  1  0
 27 67  1  0
 29 28  1  1
 28 68  1  0
 28 69  1  0
 29 33  1  0
 29 30  1  0
 30 31  2  0
 30 32  1  0
 32 33  1  0
 33 34  1  6
 34 70  1  0
M  END
>  <i_m_ct_stereo_status>  (190) 
1

>  <s_m_source_file>  (190) 
/var/tmp/pbs.5076255.sched01/tmppvoazpai/72cbyqjt17.sdf

>  <i_m_source_file_index>  (190) 
15

>  <i_lp_mmshare_version>  (190) 
48012

>  <i_f3d_flags>  (190) 
0

>  <s_epik_input>  (190) 
Tz1DMUMoW0NIM10pPVtDSF1bQ0BIXShbQ0BIXShPMilbQ0BAXTEyMylbQ0BAXTQ1W0NASF0oW0NIMl1bQ0BASF0zW09IXSlbQ0BASF0oW0NIM10pW0NIMl1bQ0BASF00W0NAXTYoW09IXSlbQ0BdNyhDKD1PKU82KVtDQEhdKFtDSDJdW0NIMl01KUMoW0NIM10pKFtDSDNdKVtDQEBIXShbT0hdKVtDSDJdW0NIMl03

>  <s_epik_cmdline>  (190) 
J2VwaWtfcHl0aG9uJywgJy1waHQnLCAnMi4wJywgJy1waCcsICc3LjAnLCAnLXRuJywgJzgnLCAnLW1hJywgJzIwMCcsICctaW1hZScsICc8aW5maWxlLm1hZT4nLCAnLW9tYWUnLCAnPG91dGZpbGUubWFlPic=

>  <r_lp_tautomer_probability>  (190) 
1

>  <r_epik_Ionization_Penalty>  (190) 
2.24739e-05

>  <r_epik_Ionization_Penalty_Charging>  (190) 
0

>  <r_epik_Ionization_Penalty_Neutral>  (190) 
2.24739e-05

>  <r_epik_State_Penalty>  (190) 
-0

>  <r_epik_Charging_Adjusted_Penalty>  (190) 
0

>  <i_epik_Tot_Q>  (190) 
0

>  <i_epik_Tot_abs_Q>  (190) 
0

>  <s_epik_Chemistry_Notes>  (190) 
This compound has an ester and may undergo hydrolysis at high or low pH.

>  <s_lp_Force_Field>  (190) 
OPLS3e

>  <r_lp_Energy>  (190) 
104.689

>  <b_lp_Chiralities_Consistent>  (190) 
1

>  <s_lp_Variant>  (190) 
69:0-2

>  <s_i_glide_gridfile>  (190) 
pfpi4k_grid

>  <i_i_glide_lignum>  (190) 
15

>  <i_i_glide_rotatable_bonds>  (190) 
3

>  <r_i_docking_score>  (190) 
-3.04936

>  <r_i_glide_ligand_efficiency>  (190) 
-0.089687

>  <r_i_glide_ligand_efficiency_sa>  (190) 
-0.290551

>  <r_i_glide_ligand_efficiency_ln>  (190) 
-0.673689

>  <r_i_glide_gscore>  (190) 
-3.04936

>  <r_i_glide_lipo>  (190) 
-0.228707

>  <r_i_glide_hbond>  (190) 
-0.402488

>  <r_i_glide_metal>  (190) 
-0

>  <r_i_glide_rewards>  (190) 
-0.427643

>  <r_i_glide_evdw>  (190) 
-21.1838

>  <r_i_glide_ecoul>  (190) 
-6.09849

>  <r_i_glide_erotb>  (190) 
0

>  <r_i_glide_esite>  (190) 
-0.0165541

>  <r_i_glide_emodel>  (190) 
-29.0185

>  <r_i_glide_energy>  (190) 
-27.2823

>  <r_i_glide_einternal>  (190) 
2.04148

>  <r_i_glide_intrahb_reward>  (190) 
-0

>  <i_i_glide_confnum>  (190) 
1

>  <i_i_glide_posenum>  (190) 
9

>  <r_i_glide_eff_state_penalty>  (190) 
0

>  <ligand_id>  (190) 
69

>  <original_smiles>  (190) 
CC1=CC2C3OC3(C1=O)C(O)CC1C(C)CC3C21CCC1C(C)(C)C(O)CCC12C(=O)OC32O

>  <smiles>  (190) 
[H]OC1([H])C([H])([H])C2([H])C([H])(C([H])([H])[H])C([H])([H])C3([H])C4(O[H])OC(=O)C45C([H])([H])C([H])([H])C([H])(O[H])C(C([H])([H])[H])(C([H])([H])[H])C5([H])C([H])([H])C([H])([H])C32C2([H])C([H])=C(C([H])([H])[H])C(=O)C13OC23[H]

$$$$
70:0:0
     RDKit          3D

 14 15  0  0  1  0  0  0  0  0999 V2000
    4.7361   -1.0603    0.5745 C   0  0  0  0  0  0  0  0  0  0  0  0
    6.0252   -1.3513    0.0796 C   0  0  0  0  0  0  0  0  0  0  0  0
    6.2576   -1.9145   -1.1041 N   0  0  0  0  0  0  0  0  0  0  0  0
    5.1861   -2.2622   -1.8453 C   0  0  0  0  0  0  0  0  0  0  0  0
    5.1547   -2.8482   -3.0427 N   0  0  0  0  0  0  0  0  0  0  0  0
    3.8100   -2.9776   -3.3762 C   0  0  0  0  0  0  0  0  0  0  0  0
    3.0153   -2.4530   -2.3950 C   0  0  0  0  0  0  0  0  0  0  0  0
    3.8672   -2.0006   -1.4029 N   0  0  0  0  0  0  0  0  0  0  0  0
    3.6474   -1.3990   -0.1979 C   0  0  0  0  0  0  0  0  0  0  0  0
    4.5975   -0.5691    1.5299 H   0  0  0  0  0  0  0  0  0  0  0  0
    6.9007   -1.0877    0.6713 H   0  0  0  0  0  0  0  0  0  0  0  0
    3.5150   -3.4380   -4.3116 H   0  0  0  0  0  0  0  0  0  0  0  0
    1.9461   -2.3481   -2.2894 H   0  0  0  0  0  0  0  0  0  0  0  0
    2.6170   -1.2002    0.0865 H   0  0  0  0  0  0  0  0  0  0  0  0
  1  9  2  0
  1  2  1  0
  1 10  1  0
  2  3  2  0
  2 11  1  0
  3  4  1  0
  4  8  1  0
  4  5  2  0
  5  6  1  0
  6  7  2  0
  6 12  1  0
  7  8  1  0
  7 13  1  0
  8  9  1  0
  9 14  1  0
M  END
>  <i_m_ct_stereo_status>  (191) 
1

>  <s_m_source_file>  (191) 
/var/tmp/pbs.5076255.sched01/tmppvoazpai/72cbyqjt17.sdf

>  <i_m_source_file_index>  (191) 
16

>  <i_lp_mmshare_version>  (191) 
48012

>  <i_f3d_flags>  (191) 
0

>  <s_epik_input>  (191) 
bjFbY0hdW2NIXVtjSF1uKGMxMilbY0hdW2NIXW4y

>  <s_epik_cmdline>  (191) 
J2VwaWtfcHl0aG9uJywgJy1waHQnLCAnMi4wJywgJy1waCcsICc3LjAnLCAnLXRuJywgJzgnLCAnLW1hJywgJzIwMCcsICctaW1hZScsICc8aW5maWxlLm1hZT4nLCAnLW9tYWUnLCAnPG91dGZpbGUubWFlPic=

>  <r_lp_tautomer_probability>  (191) 
1

>  <r_epik_Ionization_Penalty>  (191) 
0.000283514

>  <r_epik_Ionization_Penalty_Charging>  (191) 
0.000283514

>  <r_epik_Ionization_Penalty_Neutral>  (191) 
3.26343e-12

>  <r_epik_State_Penalty>  (191) 
-0

>  <r_epik_Charging_Adjusted_Penalty>  (191) 
0.000283514

>  <i_epik_Tot_Q>  (191) 
0

>  <i_epik_Tot_abs_Q>  (191) 
0

>  <s_lp_Force_Field>  (191) 
OPLS3e

>  <r_lp_Energy>  (191) 
15.6776

>  <b_lp_Chiralities_Consistent>  (191) 
1

>  <s_lp_Variant>  (191) 
70:0-1

>  <s_i_glide_gridfile>  (191) 
pfpi4k_grid

>  <i_i_glide_lignum>  (191) 
16

>  <i_i_glide_rotatable_bonds>  (191) 
0

>  <r_i_docking_score>  (191) 
-4.03315

>  <r_i_glide_ligand_efficiency>  (191) 
-0.448128

>  <r_i_glide_ligand_efficiency_sa>  (191) 
-0.932143

>  <r_i_glide_ligand_efficiency_ln>  (191) 
-1.26145

>  <r_i_glide_gscore>  (191) 
-4.03315

>  <r_i_glide_lipo>  (191) 
-0.215884

>  <r_i_glide_hbond>  (191) 
-0.139259

>  <r_i_glide_metal>  (191) 
-0

>  <r_i_glide_rewards>  (191) 
-2.25

>  <r_i_glide_evdw>  (191) 
-15.6297

>  <r_i_glide_ecoul>  (191) 
-3.91576

>  <r_i_glide_erotb>  (191) 
0

>  <r_i_glide_esite>  (191) 
-0.0591557

>  <r_i_glide_emodel>  (191) 
-25.5547

>  <r_i_glide_energy>  (191) 
-19.5455

>  <r_i_glide_einternal>  (191) 
0

>  <r_i_glide_intrahb_reward>  (191) 
-0

>  <i_i_glide_confnum>  (191) 
2

>  <i_i_glide_posenum>  (191) 
7

>  <r_i_glide_eff_state_penalty>  (191) 
0

>  <ligand_id>  (191) 
70

>  <original_smiles>  (191) 
c1cnc2nccn2c1

>  <smiles>  (191) 
[H]c1nc2nc([H])c([H])n2c([H])c1[H]

$$$$
70:0:1
     RDKit          3D

 14 15  0  0  1  0  0  0  0  0999 V2000
    2.5033   -9.7849    2.2532 C   0  0  0  0  0  0  0  0  0  0  0  0
    2.7334   -8.5047    1.7008 C   0  0  0  0  0  0  0  0  0  0  0  0
    1.8282   -7.5297    1.6701 N   0  0  0  0  0  0  0  0  0  0  0  0
    0.6174   -7.8071    2.1827 C   0  0  0  0  0  0  0  0  0  0  0  0
   -0.4557   -7.0074    2.2623 N   0  0  0  0  0  0  0  0  0  0  0  0
   -1.4439   -7.7607    2.8891 C   0  0  0  0  0  0  0  0  0  0  0  0
   -0.9807   -9.0086    3.1899 C   0  0  0  0  0  0  0  0  0  0  0  0
    0.3284   -9.0723    2.7545 N   0  0  0  0  0  0  0  0  0  0  0  0
    1.2669  -10.0596    2.7953 C   0  0  0  0  0  0  0  0  0  0  0  0
    3.2731  -10.5490    2.2287 H   0  0  0  0  0  0  0  0  0  0  0  0
    3.6988   -8.2719    1.2619 H   0  0  0  0  0  0  0  0  0  0  0  0
   -2.4254   -7.3514    3.0927 H   0  0  0  0  0  0  0  0  0  0  0  0
   -1.4294   -9.8554    3.6791 H   0  0  0  0  0  0  0  0  0  0  0  0
    0.9928  -11.0182    3.2299 H   0  0  0  0  0  0  0  0  0  0  0  0
  1  9  2  0
  1  2  1  0
  1 10  1  0
  2  3  2  0
  2 11  1  0
  3  4  1  0
  4  8  1  0
  4  5  2  0
  5  6  1  0
  6  7  2  0
  6 12  1  0
  7  8  1  0
  7 13  1  0
  8  9  1  0
  9 14  1  0
M  END
>  <i_m_ct_stereo_status>  (192) 
1

>  <s_m_source_file>  (192) 
/var/tmp/pbs.5076255.sched01/tmppvoazpai/72cbyqjt17.sdf

>  <i_m_source_file_index>  (192) 
16

>  <i_lp_mmshare_version>  (192) 
48012

>  <i_f3d_flags>  (192) 
0

>  <s_epik_input>  (192) 
bjFbY0hdW2NIXVtjSF1uKGMxMilbY0hdW2NIXW4y

>  <s_epik_cmdline>  (192) 
J2VwaWtfcHl0aG9uJywgJy1waHQnLCAnMi4wJywgJy1waCcsICc3LjAnLCAnLXRuJywgJzgnLCAnLW1hJywgJzIwMCcsICctaW1hZScsICc8aW5maWxlLm1hZT4nLCAnLW9tYWUnLCAnPG91dGZpbGUubWFlPic=

>  <r_lp_tautomer_probability>  (192) 
1

>  <r_epik_Ionization_Penalty>  (192) 
0.000283514

>  <r_epik_Ionization_Penalty_Charging>  (192) 
0.000283514

>  <r_epik_Ionization_Penalty_Neutral>  (192) 
3.26343e-12

>  <r_epik_State_Penalty>  (192) 
-0

>  <r_epik_Charging_Adjusted_Penalty>  (192) 
0.000283514

>  <i_epik_Tot_Q>  (192) 
0

>  <i_epik_Tot_abs_Q>  (192) 
0

>  <s_lp_Force_Field>  (192) 
OPLS3e

>  <r_lp_Energy>  (192) 
15.6776

>  <b_lp_Chiralities_Consistent>  (192) 
1

>  <s_lp_Variant>  (192) 
70:0-1

>  <s_i_glide_gridfile>  (192) 
pfpi4k_grid

>  <i_i_glide_lignum>  (192) 
16

>  <i_i_glide_rotatable_bonds>  (192) 
0

>  <r_i_docking_score>  (192) 
-4.00361

>  <r_i_glide_ligand_efficiency>  (192) 
-0.444846

>  <r_i_glide_ligand_efficiency_sa>  (192) 
-0.925316

>  <r_i_glide_ligand_efficiency_ln>  (192) 
-1.25221

>  <r_i_glide_gscore>  (192) 
-4.00361

>  <r_i_glide_lipo>  (192) 
-0.123899

>  <r_i_glide_hbond>  (192) 
-0.138179

>  <r_i_glide_metal>  (192) 
-0

>  <r_i_glide_rewards>  (192) 
-2.25

>  <r_i_glide_evdw>  (192) 
-14.7145

>  <r_i_glide_ecoul>  (192) 
-4.5369

>  <r_i_glide_erotb>  (192) 
0

>  <r_i_glide_esite>  (192) 
-0.0752702

>  <r_i_glide_emodel>  (192) 
-25.215

>  <r_i_glide_energy>  (192) 
-19.2514

>  <r_i_glide_einternal>  (192) 
0

>  <r_i_glide_intrahb_reward>  (192) 
-0

>  <i_i_glide_confnum>  (192) 
1

>  <i_i_glide_posenum>  (192) 
1

>  <r_i_glide_eff_state_penalty>  (192) 
0

>  <ligand_id>  (192) 
70

>  <original_smiles>  (192) 
c1cnc2nccn2c1

>  <smiles>  (192) 
[H]c1nc2nc([H])c([H])n2c([H])c1[H]

$$$$
70:0:2
     RDKit          3D

 14 15  0  0  1  0  0  0  0  0999 V2000
    0.5730   -8.1256    6.4454 C   0  0  0  0  0  0  0  0  0  0  0  0
    0.2988   -6.7636    6.1699 C   0  0  0  0  0  0  0  0  0  0  0  0
   -0.2130   -6.3248    5.0256 N   0  0  0  0  0  0  0  0  0  0  0  0
   -0.4635   -7.2446    4.0759 C   0  0  0  0  0  0  0  0  0  0  0  0
   -0.9687   -7.0568    2.8554 N   0  0  0  0  0  0  0  0  0  0  0  0
   -1.0146   -8.3114    2.2629 C   0  0  0  0  0  0  0  0  0  0  0  0
   -0.5634   -9.2714    3.1220 C   0  0  0  0  0  0  0  0  0  0  0  0
   -0.2034   -8.6206    4.2868 N   0  0  0  0  0  0  0  0  0  0  0  0
    0.3052   -9.0613    5.4717 C   0  0  0  0  0  0  0  0  0  0  0  0
    0.9818   -8.4369    7.4021 H   0  0  0  0  0  0  0  0  0  0  0  0
    0.4960   -6.0108    6.9289 H   0  0  0  0  0  0  0  0  0  0  0  0
   -1.3798   -8.4295    1.2543 H   0  0  0  0  0  0  0  0  0  0  0  0
   -0.4703  -10.3434    3.0418 H   0  0  0  0  0  0  0  0  0  0  0  0
    0.4715  -10.1312    5.5895 H   0  0  0  0  0  0  0  0  0  0  0  0
  1  9  2  0
  1  2  1  0
  1 10  1  0
  2  3  2  0
  2 11  1  0
  3  4  1  0
  4  8  1  0
  4  5  2  0
  5  6  1  0
  6  7  2  0
  6 12  1  0
  7  8  1  0
  7 13  1  0
  8  9  1  0
  9 14  1  0
M  END
>  <i_m_ct_stereo_status>  (193) 
1

>  <s_m_source_file>  (193) 
/var/tmp/pbs.5076255.sched01/tmppvoazpai/72cbyqjt17.sdf

>  <i_m_source_file_index>  (193) 
16

>  <i_lp_mmshare_version>  (193) 
48012

>  <i_f3d_flags>  (193) 
0

>  <s_epik_input>  (193) 
bjFbY0hdW2NIXVtjSF1uKGMxMilbY0hdW2NIXW4y

>  <s_epik_cmdline>  (193) 
J2VwaWtfcHl0aG9uJywgJy1waHQnLCAnMi4wJywgJy1waCcsICc3LjAnLCAnLXRuJywgJzgnLCAnLW1hJywgJzIwMCcsICctaW1hZScsICc8aW5maWxlLm1hZT4nLCAnLW9tYWUnLCAnPG91dGZpbGUubWFlPic=

>  <r_lp_tautomer_probability>  (193) 
1

>  <r_epik_Ionization_Penalty>  (193) 
0.000283514

>  <r_epik_Ionization_Penalty_Charging>  (193) 
0.000283514

>  <r_epik_Ionization_Penalty_Neutral>  (193) 
3.26343e-12

>  <r_epik_State_Penalty>  (193) 
-0

>  <r_epik_Charging_Adjusted_Penalty>  (193) 
0.000283514

>  <i_epik_Tot_Q>  (193) 
0

>  <i_epik_Tot_abs_Q>  (193) 
0

>  <s_lp_Force_Field>  (193) 
OPLS3e

>  <r_lp_Energy>  (193) 
15.6776

>  <b_lp_Chiralities_Consistent>  (193) 
1

>  <s_lp_Variant>  (193) 
70:0-1

>  <s_i_glide_gridfile>  (193) 
pfpi4k_grid

>  <i_i_glide_lignum>  (193) 
16

>  <i_i_glide_rotatable_bonds>  (193) 
0

>  <r_i_docking_score>  (193) 
-3.70588

>  <r_i_glide_ligand_efficiency>  (193) 
-0.411764

>  <r_i_glide_ligand_efficiency_sa>  (193) 
-0.856504

>  <r_i_glide_ligand_efficiency_ln>  (193) 
-1.15909

>  <r_i_glide_gscore>  (193) 
-3.70588

>  <r_i_glide_lipo>  (193) 
0

>  <r_i_glide_hbond>  (193) 
-0.16

>  <r_i_glide_metal>  (193) 
-0

>  <r_i_glide_rewards>  (193) 
-2.25

>  <r_i_glide_evdw>  (193) 
-12.3533

>  <r_i_glide_ecoul>  (193) 
-3.82396

>  <r_i_glide_erotb>  (193) 
0

>  <r_i_glide_esite>  (193) 
-0.104615

>  <r_i_glide_emodel>  (193) 
-21.6975

>  <r_i_glide_energy>  (193) 
-16.1773

>  <r_i_glide_einternal>  (193) 
0

>  <r_i_glide_intrahb_reward>  (193) 
-0

>  <i_i_glide_confnum>  (193) 
1

>  <i_i_glide_posenum>  (193) 
2

>  <r_i_glide_eff_state_penalty>  (193) 
0

>  <ligand_id>  (193) 
70

>  <original_smiles>  (193) 
c1cnc2nccn2c1

>  <smiles>  (193) 
[H]c1nc2nc([H])c([H])n2c([H])c1[H]

$$$$
72:0:0
     RDKit          3D

 71 77  0  0  1  0  0  0  0  0999 V2000
    3.7639    2.4656    5.6137 C   0  0  0  0  0  0  0  0  0  0  0  0
    2.4846    1.6075    5.6547 C   0  0  2  0  0  0  0  0  0  0  0  0
    2.2840    0.9563    7.0773 C   0  0  0  0  0  0  0  0  0  0  0  0
    2.5323   -0.5887    7.3731 C   0  0  0  0  0  0  0  0  0  0  0  0
    1.4638   -1.7706    7.2546 C   0  0  2  0  0  0  0  0  0  0  0  0
    0.2956   -1.4319    8.2511 C   0  0  0  0  0  0  0  0  0  0  0  0
   -0.1996   -2.3289    8.9697 O   0  0  0  0  0  0  0  0  0  0  0  0
   -0.1884   -0.2741    8.2668 O   0  0  0  0  0  0  0  0  0  0  0  0
    2.1616   -3.0155    7.8894 C   0  0  0  0  0  0  0  0  0  0  0  0
    1.4981   -4.2720    7.3295 C   0  0  0  0  0  0  0  0  0  0  0  0
    1.3517   -3.9240    5.8589 C   0  0  1  0  0  0  0  0  0  0  0  0
    0.5531   -4.9653    5.0434 C   0  0  0  0  0  0  0  0  0  0  0  0
    0.9405   -2.3934    5.8166 C   0  0  1  0  0  0  0  0  0  0  0  0
   -0.6356   -2.5225    5.8660 C   0  0  0  0  0  0  0  0  0  0  0  0
    1.2698   -1.5946    4.4154 C   0  0  1  0  0  0  0  0  0  0  0  0
    1.0166   -0.1085    4.5489 C   0  0  1  0  0  0  0  0  0  0  0  0
    0.0114    0.3569    5.4204 O   0  0  0  0  0  0  0  0  0  0  0  0
    2.3769    0.6098    4.4848 C   0  0  1  0  0  0  0  0  0  0  0  0
    2.3746    1.2140    3.0243 C   0  0  0  0  0  0  0  0  0  0  0  0
    1.7161    0.3446    1.8340 C   0  0  0  0  0  0  0  0  0  0  0  0
    1.6533   -1.2910    1.9234 C   0  0  0  0  0  0  0  0  0  0  0  0
    2.3612   -1.8443    3.1797 C   0  0  2  0  0  0  0  0  0  0  0  0
    2.9480   -3.0646    3.5674 O   0  0  0  0  0  0  0  0  0  0  0  0
    3.9505   -2.5485    4.5263 C   0  0  0  0  0  0  0  0  0  0  0  0
    4.2171   -1.1109    4.1022 C   0  0  0  0  0  0  0  0  0  0  0  0
    3.7285   -1.1611    2.9160 C   0  0  0  0  0  0  0  0  0  0  0  0
    4.6458   -1.5436    1.7571 C   0  0  0  0  0  0  0  0  0  0  0  0
    4.3982   -1.0415    0.4407 C   0  0  0  0  0  0  0  0  0  0  0  0
    5.2652   -1.2332   -0.6552 C   0  0  0  0  0  0  0  0  0  0  0  0
    6.4036   -1.9799   -0.4102 C   0  0  0  0  0  0  0  0  0  0  0  0
    6.6922   -2.5110    0.8141 C   0  0  0  0  0  0  0  0  0  0  0  0
    5.8533   -2.2949    1.9407 C   0  0  0  0  0  0  0  0  0  0  0  0
    7.8464   -3.2084    0.7411 O   0  0  0  0  0  0  0  0  0  0  0  0
    8.2170   -3.1700   -0.6127 C   0  0  0  0  0  0  0  0  0  0  0  0
    7.3645   -2.3097   -1.3059 O   0  0  0  0  0  0  0  0  0  0  0  0
    3.5080   -0.2580    4.9155 O   0  0  0  0  0  0  0  0  0  0  0  0
    4.6581    1.8614    5.7793 H   0  0  0  0  0  0  0  0  0  0  0  0
    3.7324    3.2376    6.3867 H   0  0  0  0  0  0  0  0  0  0  0  0
    3.8676    2.9819    4.6577 H   0  0  0  0  0  0  0  0  0  0  0  0
    1.6807    2.3327    5.5266 H   0  0  0  0  0  0  0  0  0  0  0  0
    2.9509    1.4906    7.7558 H   0  0  0  0  0  0  0  0  0  0  0  0
    1.3180    1.3051    7.4286 H   0  0  0  0  0  0  0  0  0  0  0  0
    3.5088   -0.9081    7.0316 H   0  0  0  0  0  0  0  0  0  0  0  0
    2.7365   -0.5693    8.4401 H   0  0  0  0  0  0  0  0  0  0  0  0
    3.2068   -3.0442    7.6021 H   0  0  0  0  0  0  0  0  0  0  0  0
    2.1717   -3.0119    8.9829 H   0  0  0  0  0  0  0  0  0  0  0  0
    2.1137   -5.1595    7.4807 H   0  0  0  0  0  0  0  0  0  0  0  0
    0.5325   -4.4558    7.8007 H   0  0  0  0  0  0  0  0  0  0  0  0
    2.3521   -4.0924    5.5093 H   0  0  0  0  0  0  0  0  0  0  0  0
   -0.4449   -5.1552    5.4403 H   0  0  0  0  0  0  0  0  0  0  0  0
    1.0763   -5.9215    5.0411 H   0  0  0  0  0  0  0  0  0  0  0  0
    0.4628   -4.6591    4.0015 H   0  0  0  0  0  0  0  0  0  0  0  0
   -1.0254   -2.9614    4.9600 H   0  0  0  0  0  0  0  0  0  0  0  0
   -1.1778   -1.5926    5.9893 H   0  0  0  0  0  0  0  0  0  0  0  0
   -0.9840   -3.1714    6.6663 H   0  0  0  0  0  0  0  0  0  0  0  0
    0.3947   -1.9302    3.8755 H   0  0  0  0  0  0  0  0  0  0  0  0
    0.3903    0.1568    3.7118 H   0  0  0  0  0  0  0  0  0  0  0  0
   -0.1130    1.2823    5.2583 H   0  0  0  0  0  0  0  0  0  0  0  0
    1.8580    2.1652    3.0223 H   0  0  0  0  0  0  0  0  0  0  0  0
    3.4009    1.4594    2.7564 H   0  0  0  0  0  0  0  0  0  0  0  0
    0.6820    0.6640    1.6795 H   0  0  0  0  0  0  0  0  0  0  0  0
    2.1386    0.7577    0.9150 H   0  0  0  0  0  0  0  0  0  0  0  0
    0.6188   -1.5907    1.8778 H   0  0  0  0  0  0  0  0  0  0  0  0
    2.0393   -1.8010    1.0482 H   0  0  0  0  0  0  0  0  0  0  0  0
    3.6493   -2.5259    5.5671 H   0  0  0  0  0  0  0  0  0  0  0  0
    4.8505   -3.1587    4.5096 H   0  0  0  0  0  0  0  0  0  0  0  0
    3.5064   -0.4742    0.1345 H   0  0  0  0  0  0  0  0  0  0  0  0
    5.0094   -0.8150   -1.6110 H   0  0  0  0  0  0  0  0  0  0  0  0
    6.1526   -2.7074    2.8793 H   0  0  0  0  0  0  0  0  0  0  0  0
    9.2634   -2.8641   -0.7568 H   0  0  0  0  0  0  0  0  0  0  0  0
    8.0638   -4.1717   -1.0181 H   0  0  0  0  0  0  0  0  0  0  0  0
  1  2  1  0
  1 37  1  0
  1 38  1  0
  1 39  1  0
  2 18  1  0
  2  3  1  0
  2 40  1  6
  3  4  1  0
  3 41  1  0
  3 42  1  0
  4  5  1  0
  4 43  1  0
  4 44  1  0
  5 13  1  0
  5  6  1  1
  5  9  1  0
  6  7  2  0
  6  8  1  0
  9 10  1  0
  9 45  1  0
  9 46  1  0
 10 11  1  0
 10 47  1  0
 10 48  1  0
 11 12  1  0
 11 13  1  0
 11 49  1  6
 12 50  1  0
 12 51  1  0
 12 52  1  0
 13 14  1  1
 13 15  1  0
 14 53  1  0
 14 54  1  0
 14 55  1  0
 15 22  1  0
 15 16  1  0
 15 56  1  6
 16 17  1  0
 16 18  1  0
 16 57  1  6
 17 58  1  0
 18 36  1  6
 18 19  1  0
 19 20  1  0
 19 59  1  0
 19 60  1  0
 20 21  1  0
 20 61  1  0
 20 62  1  0
 21 22  1  0
 21 63  1  0
 21 64  1  0
 22 26  1  0
 22 23  1  6
 23 24  1  0
 24 25  1  0
 24 65  1  0
 24 66  1  0
 25 26  2  0
 25 36  1  0
 26 27  1  0
 27 32  2  0
 27 28  1  0
 28 29  2  0
 28 67  1  0
 29 30  1  0
 29 68  1  0
 30 35  1  0
 30 31  2  0
 31 32  1  0
 31 33  1  0
 32 69  1  0
 33 34  1  0
 34 35  1  0
 34 70  1  0
 34 71  1  0
M  CHG  1   8  -1
M  END
>  <i_m_ct_stereo_status>  (194) 
1

>  <s_m_source_file>  (194) 
/var/tmp/pbs.5076255.sched01/tmppvoazpai/72cbyqjt17.sdf

>  <i_m_source_file_index>  (194) 
18

>  <i_lp_mmshare_version>  (194) 
48012

>  <i_f3d_flags>  (194) 
0

>  <s_epik_input>  (194) 
W0NIM11bQ0BASF0oW0NAQF0xMjMpW0NIMl1bQ0gyXVtDQEBdNChDKD1PKVtPSF0pW0NAXShbQ0gzXSkoW0NASF0oW0NIM10pW0NIMl1bQ0gyXTQpW0NAQEhdKFtDQEhdMVtPSF0pW0NAXTUoW0NIMl1bQ0gyXVtDSDJdMilPW0NIMl1DKE8zKT1DNWMoW2NIXVtjSF02KVtjSF1jKGM2NylPW0NIMl1PNw==

>  <s_epik_cmdline>  (194) 
J2VwaWtfcHl0aG9uJywgJy1waHQnLCAnMi4wJywgJy1waCcsICc3LjAnLCAnLXRuJywgJzgnLCAnLW1hJywgJzIwMCcsICctaW1hZScsICc8aW5maWxlLm1hZT4nLCAnLW9tYWUnLCAnPG91dGZpbGUubWFlPic=

>  <r_epik_Ionization_Penalty>  (194) 
0.0056858

>  <r_epik_Ionization_Penalty_Charging>  (194) 
0.00568573

>  <r_epik_Ionization_Penalty_Neutral>  (194) 
6.99638e-08

>  <r_epik_State_Penalty>  (194) 
0.00416987

>  <r_epik_Charging_Adjusted_Penalty>  (194) 
0.0098556

>  <i_epik_Tot_Q>  (194) 
-1

>  <i_epik_Tot_abs_Q>  (194) 
1

>  <s_epik_Chemistry_Notes>  (194) 
This compound contains an acetal/aminal-like group ( X-CH(R)-Y where X, Y are N, S, or O) that may be acid/base labile, releasing an aldehyde.

>  <s_lp_Force_Field>  (194) 
OPLS3e

>  <r_lp_Energy>  (194) 
262.306

>  <b_lp_Chiralities_Consistent>  (194) 
1

>  <s_lp_Variant>  (194) 
72:0-1

>  <s_i_glide_gridfile>  (194) 
pfpi4k_grid

>  <i_i_glide_lignum>  (194) 
18

>  <i_i_glide_rotatable_bonds>  (194) 
3

>  <r_i_docking_score>  (194) 
-2.89846

>  <r_i_glide_ligand_efficiency>  (194) 
-0.0805128

>  <r_i_glide_ligand_efficiency_sa>  (194) 
-0.265848

>  <r_i_glide_ligand_efficiency_ln>  (194) 
-0.632366

>  <r_i_glide_gscore>  (194) 
-2.89846

>  <r_i_glide_lipo>  (194) 
-0.216037

>  <r_i_glide_hbond>  (194) 
-0.366404

>  <r_i_glide_metal>  (194) 
-0

>  <r_i_glide_rewards>  (194) 
-0.167352

>  <r_i_glide_evdw>  (194) 
-23.8493

>  <r_i_glide_ecoul>  (194) 
-6.50396

>  <r_i_glide_erotb>  (194) 
0.0830053

>  <r_i_glide_esite>  (194) 
-0.0636145

>  <r_i_glide_emodel>  (194) 
-36.6117

>  <r_i_glide_energy>  (194) 
-30.3533

>  <r_i_glide_einternal>  (194) 
1.56001

>  <r_i_glide_intrahb_reward>  (194) 
-0

>  <i_i_glide_confnum>  (194) 
4

>  <i_i_glide_posenum>  (194) 
6

>  <r_i_glide_eff_state_penalty>  (194) 
0

>  <ligand_id>  (194) 
72

>  <original_smiles>  (194) 
CC1CCC2(C(=O)O)CCC(C)C2(C)C2C(O)C13CCCC21OCC(=C1c1ccc2c(c1)OCO2)O3

>  <smiles>  (194) 
[H]OC1([H])C2([H])C34OC([H])([H])C(=C3c3c([H])c([H])c5c(c3[H])OC([H])([H])O5)OC1(C([H])([H])C([H])([H])C4([H])[H])C([H])(C([H])([H])[H])C([H])([H])C([H])([H])C1(C(=O)[O-])C([H])([H])C([H])([H])C([H])(C([H])([H])[H])C21C([H])([H])[H]

$$$$
72:0:1
     RDKit          3D

 71 77  0  0  1  0  0  0  0  0999 V2000
   -0.2479   -7.3570    1.9029 C   0  0  0  0  0  0  0  0  0  0  0  0
    0.4660   -7.5358    3.2582 C   0  0  2  0  0  0  0  0  0  0  0  0
   -0.3642   -6.9139    4.4593 C   0  0  0  0  0  0  0  0  0  0  0  0
    0.0249   -5.5466    5.1621 C   0  0  0  0  0  0  0  0  0  0  0  0
    0.9547   -5.3796    6.4485 C   0  0  2  0  0  0  0  0  0  0  0  0
    0.2155   -6.1986    7.5870 C   0  0  0  0  0  0  0  0  0  0  0  0
    0.3011   -7.4452    7.6234 O   0  0  0  0  0  0  0  0  0  0  0  0
   -0.5237   -5.5937    8.3934 O   0  0  0  0  0  0  0  0  0  0  0  0
    0.8069   -3.8649    6.8392 C   0  0  0  0  0  0  0  0  0  0  0  0
    2.0293   -3.4728    7.6553 C   0  0  0  0  0  0  0  0  0  0  0  0
    3.1531   -4.1040    6.8500 C   0  0  1  0  0  0  0  0  0  0  0  0
    4.5437   -3.9924    7.5167 C   0  0  0  0  0  0  0  0  0  0  0  0
    2.6094   -5.5244    6.3892 C   0  0  1  0  0  0  0  0  0  0  0  0
    3.0924   -6.4187    7.6078 C   0  0  0  0  0  0  0  0  0  0  0  0
    3.3249   -6.1689    5.0567 C   0  0  1  0  0  0  0  0  0  0  0  0
    2.6229   -7.4145    4.5581 C   0  0  1  0  0  0  0  0  0  0  0  0
    1.9467   -8.2344    5.4806 O   0  0  0  0  0  0  0  0  0  0  0  0
    1.9518   -7.0793    3.2129 C   0  0  1  0  0  0  0  0  0  0  0  0
    2.9262   -7.7738    2.1603 C   0  0  0  0  0  0  0  0  0  0  0  0
    4.5242   -7.7245    2.4242 C   0  0  0  0  0  0  0  0  0  0  0  0
    5.2117   -6.6387    3.3910 C   0  0  0  0  0  0  0  0  0  0  0  0
    4.2017   -5.5124    3.8072 C   0  0  2  0  0  0  0  0  0  0  0  0
    4.2516   -4.1453    4.1480 O   0  0  0  0  0  0  0  0  0  0  0  0
    2.9256   -3.7153    3.6297 C   0  0  0  0  0  0  0  0  0  0  0  0
    2.5508   -4.7214    2.5506 C   0  0  0  0  0  0  0  0  0  0  0  0
    3.7466   -5.1632    2.3800 C   0  0  0  0  0  0  0  0  0  0  0  0
    4.5743   -4.5196    1.3030 C   0  0  0  0  0  0  0  0  0  0  0  0
    3.9423   -4.1536    0.0786 C   0  0  0  0  0  0  0  0  0  0  0  0
    4.6666   -3.5674   -0.9893 C   0  0  0  0  0  0  0  0  0  0  0  0
    6.0458   -3.3746   -0.8146 C   0  0  0  0  0  0  0  0  0  0  0  0
    6.6718   -3.7076    0.3709 C   0  0  0  0  0  0  0  0  0  0  0  0
    5.9615   -4.2327    1.4581 C   0  0  0  0  0  0  0  0  0  0  0  0
    8.0025   -3.4530    0.2692 O   0  0  0  0  0  0  0  0  0  0  0  0
    8.2147   -3.0580   -1.0601 C   0  0  0  0  0  0  0  0  0  0  0  0
    6.9670   -2.8797   -1.6877 O   0  0  0  0  0  0  0  0  0  0  0  0
    1.6604   -5.6406    3.0369 O   0  0  0  0  0  0  0  0  0  0  0  0
   -0.3593   -6.3066    1.6308 H   0  0  0  0  0  0  0  0  0  0  0  0
   -1.2427   -7.8066    1.9274 H   0  0  0  0  0  0  0  0  0  0  0  0
    0.2923   -7.8545    1.0967 H   0  0  0  0  0  0  0  0  0  0  0  0
    0.4679   -8.6167    3.4075 H   0  0  0  0  0  0  0  0  0  0  0  0
   -1.3716   -6.7673    4.0730 H   0  0  0  0  0  0  0  0  0  0  0  0
   -0.5233   -7.6784    5.2183 H   0  0  0  0  0  0  0  0  0  0  0  0
    0.1905   -4.7549    4.4389 H   0  0  0  0  0  0  0  0  0  0  0  0
   -0.9426   -5.2247    5.5440 H   0  0  0  0  0  0  0  0  0  0  0  0
    0.7805   -3.2389    5.9513 H   0  0  0  0  0  0  0  0  0  0  0  0
   -0.1122   -3.5863    7.3530 H   0  0  0  0  0  0  0  0  0  0  0  0
    2.1374   -2.3885    7.7266 H   0  0  0  0  0  0  0  0  0  0  0  0
    1.9743   -3.8729    8.6676 H   0  0  0  0  0  0  0  0  0  0  0  0
    3.2399   -3.4062    6.0367 H   0  0  0  0  0  0  0  0  0  0  0  0
    4.5748   -4.4163    8.5207 H   0  0  0  0  0  0  0  0  0  0  0  0
    4.8381   -2.9464    7.6110 H   0  0  0  0  0  0  0  0  0  0  0  0
    5.3079   -4.4813    6.9113 H   0  0  0  0  0  0  0  0  0  0  0  0
    4.1755   -6.5118    7.6821 H   0  0  0  0  0  0  0  0  0  0  0  0
    2.7532   -7.4478    7.5823 H   0  0  0  0  0  0  0  0  0  0  0  0
    2.7684   -6.0195    8.5700 H   0  0  0  0  0  0  0  0  0  0  0  0
    4.1731   -6.5812    5.5820 H   0  0  0  0  0  0  0  0  0  0  0  0
    3.3920   -8.1658    4.4303 H   0  0  0  0  0  0  0  0  0  0  0  0
    1.7464   -9.0708    5.0799 H   0  0  0  0  0  0  0  0  0  0  0  0
    2.6518   -8.8301    2.0880 H   0  0  0  0  0  0  0  0  0  0  0  0
    2.7067   -7.3717    1.1704 H   0  0  0  0  0  0  0  0  0  0  0  0
    4.8317   -8.7042    2.7835 H   0  0  0  0  0  0  0  0  0  0  0  0
    4.9976   -7.6472    1.4480 H   0  0  0  0  0  0  0  0  0  0  0  0
    5.6388   -7.1348    4.2648 H   0  0  0  0  0  0  0  0  0  0  0  0
    6.1003   -6.2878    2.8807 H   0  0  0  0  0  0  0  0  0  0  0  0
    2.1225   -3.7031    4.3555 H   0  0  0  0  0  0  0  0  0  0  0  0
    2.9857   -2.7046    3.2193 H   0  0  0  0  0  0  0  0  0  0  0  0
    2.8833   -4.3207   -0.0630 H   0  0  0  0  0  0  0  0  0  0  0  0
    4.1791   -3.2963   -1.9170 H   0  0  0  0  0  0  0  0  0  0  0  0
    6.4993   -4.4023    2.3802 H   0  0  0  0  0  0  0  0  0  0  0  0
    8.8232   -2.1532   -1.0875 H   0  0  0  0  0  0  0  0  0  0  0  0
    8.7565   -3.8469   -1.5802 H   0  0  0  0  0  0  0  0  0  0  0  0
  1  2  1  0
  1 37  1  0
  1 38  1  0
  1 39  1  0
  2 18  1  0
  2  3  1  0
  2 40  1  1
  3  4  1  0
  3 41  1  0
  3 42  1  0
  4  5  1  0
  4 43  1  0
  4 44  1  0
  5 13  1  0
  5  6  1  1
  5  9  1  0
  6  7  2  0
  6  8  1  0
  9 10  1  0
  9 45  1  0
  9 46  1  0
 10 11  1  0
 10 47  1  0
 10 48  1  0
 11 12  1  0
 11 13  1  0
 11 49  1  6
 12 50  1  0
 12 51  1  0
 12 52  1  0
 13 14  1  1
 13 15  1  0
 14 53  1  0
 14 54  1  0
 14 55  1  0
 15 22  1  0
 15 16  1  0
 15 56  1  1
 16 17  1  0
 16 18  1  0
 16 57  1  6
 17 58  1  0
 18 36  1  6
 18 19  1  0
 19 20  1  0
 19 59  1  0
 19 60  1  0
 20 21  1  0
 20 61  1  0
 20 62  1  0
 21 22  1  0
 21 63  1  0
 21 64  1  0
 22 26  1  0
 22 23  1  1
 23 24  1  0
 24 25  1  0
 24 65  1  0
 24 66  1  0
 25 26  2  0
 25 36  1  0
 26 27  1  0
 27 32  2  0
 27 28  1  0
 28 29  2  0
 28 67  1  0
 29 30  1  0
 29 68  1  0
 30 35  1  0
 30 31  2  0
 31 32  1  0
 31 33  1  0
 32 69  1  0
 33 34  1  0
 34 35  1  0
 34 70  1  0
 34 71  1  0
M  CHG  1   8  -1
M  END
>  <i_m_ct_stereo_status>  (195) 
1

>  <s_m_source_file>  (195) 
/var/tmp/pbs.5076255.sched01/tmppvoazpai/72cbyqjt17.sdf

>  <i_m_source_file_index>  (195) 
18

>  <i_lp_mmshare_version>  (195) 
48012

>  <i_f3d_flags>  (195) 
0

>  <s_epik_input>  (195) 
W0NIM11bQ0BASF0oW0NAQF0xMjMpW0NIMl1bQ0gyXVtDQEBdNChDKD1PKVtPSF0pW0NAXShbQ0gzXSkoW0NASF0oW0NIM10pW0NIMl1bQ0gyXTQpW0NAQEhdKFtDQEhdMVtPSF0pW0NAXTUoW0NIMl1bQ0gyXVtDSDJdMilPW0NIMl1DKE8zKT1DNWMoW2NIXVtjSF02KVtjSF1jKGM2NylPW0NIMl1PNw==

>  <s_epik_cmdline>  (195) 
J2VwaWtfcHl0aG9uJywgJy1waHQnLCAnMi4wJywgJy1waCcsICc3LjAnLCAnLXRuJywgJzgnLCAnLW1hJywgJzIwMCcsICctaW1hZScsICc8aW5maWxlLm1hZT4nLCAnLW9tYWUnLCAnPG91dGZpbGUubWFlPic=

>  <r_epik_Ionization_Penalty>  (195) 
0.0056858

>  <r_epik_Ionization_Penalty_Charging>  (195) 
0.00568573

>  <r_epik_Ionization_Penalty_Neutral>  (195) 
6.99638e-08

>  <r_epik_State_Penalty>  (195) 
0.00416987

>  <r_epik_Charging_Adjusted_Penalty>  (195) 
0.0098556

>  <i_epik_Tot_Q>  (195) 
-1

>  <i_epik_Tot_abs_Q>  (195) 
1

>  <s_epik_Chemistry_Notes>  (195) 
This compound contains an acetal/aminal-like group ( X-CH(R)-Y where X, Y are N, S, or O) that may be acid/base labile, releasing an aldehyde.

>  <s_lp_Force_Field>  (195) 
OPLS3e

>  <r_lp_Energy>  (195) 
262.306

>  <b_lp_Chiralities_Consistent>  (195) 
1

>  <s_lp_Variant>  (195) 
72:0-1

>  <s_i_glide_gridfile>  (195) 
pfpi4k_grid

>  <i_i_glide_lignum>  (195) 
18

>  <i_i_glide_rotatable_bonds>  (195) 
3

>  <r_i_docking_score>  (195) 
-2.10721

>  <r_i_glide_ligand_efficiency>  (195) 
-0.0585336

>  <r_i_glide_ligand_efficiency_sa>  (195) 
-0.193274

>  <r_i_glide_ligand_efficiency_ln>  (195) 
-0.459737

>  <r_i_glide_gscore>  (195) 
-2.10721

>  <r_i_glide_lipo>  (195) 
-0.330993

>  <r_i_glide_hbond>  (195) 
-0.0181852

>  <r_i_glide_metal>  (195) 
-0

>  <r_i_glide_rewards>  (195) 
-0.0301091

>  <r_i_glide_evdw>  (195) 
-28.8192

>  <r_i_glide_ecoul>  (195) 
-2.18488

>  <r_i_glide_erotb>  (195) 
0.0830053

>  <r_i_glide_esite>  (195) 
-0.0422369

>  <r_i_glide_emodel>  (195) 
-35.5112

>  <r_i_glide_energy>  (195) 
-31.0041

>  <r_i_glide_einternal>  (195) 
1.28449

>  <r_i_glide_intrahb_reward>  (195) 
-0

>  <i_i_glide_confnum>  (195) 
1

>  <i_i_glide_posenum>  (195) 
24

>  <r_i_glide_eff_state_penalty>  (195) 
0

>  <ligand_id>  (195) 
72

>  <original_smiles>  (195) 
CC1CCC2(C(=O)O)CCC(C)C2(C)C2C(O)C13CCCC21OCC(=C1c1ccc2c(c1)OCO2)O3

>  <smiles>  (195) 
[H]OC1([H])C2([H])C34OC([H])([H])C(=C3c3c([H])c([H])c5c(c3[H])OC([H])([H])O5)OC1(C([H])([H])C([H])([H])C4([H])[H])C([H])(C([H])([H])[H])C([H])([H])C([H])([H])C1(C(=O)[O-])C([H])([H])C([H])([H])C([H])(C([H])([H])[H])C21C([H])([H])[H]

$$$$
72:0:2
     RDKit          3D

 71 77  0  0  1  0  0  0  0  0999 V2000
    7.1837   -6.3756    2.9159 C   0  0  0  0  0  0  0  0  0  0  0  0
    6.1011   -6.9938    3.8204 C   0  0  2  0  0  0  0  0  0  0  0  0
    5.6005   -8.3848    3.2596 C   0  0  0  0  0  0  0  0  0  0  0  0
    4.1888   -8.5785    2.5477 C   0  0  0  0  0  0  0  0  0  0  0  0
    2.8099   -8.9643    3.2584 C   0  0  2  0  0  0  0  0  0  0  0  0
    3.0904  -10.3421    3.9523 C   0  0  0  0  0  0  0  0  0  0  0  0
    3.9367  -10.3529    4.8718 O   0  0  0  0  0  0  0  0  0  0  0  0
    2.4781  -11.3647    3.5747 O   0  0  0  0  0  0  0  0  0  0  0  0
    1.8212   -9.2563    2.0827 C   0  0  0  0  0  0  0  0  0  0  0  0
    0.4039   -9.0985    2.6245 C   0  0  0  0  0  0  0  0  0  0  0  0
    0.5233   -7.8233    3.4414 C   0  0  1  0  0  0  0  0  0  0  0  0
   -0.7517   -7.4689    4.2380 C   0  0  0  0  0  0  0  0  0  0  0  0
    1.9173   -7.9219    4.1858 C   0  0  1  0  0  0  0  0  0  0  0  0
    1.4820   -8.6583    5.5242 C   0  0  0  0  0  0  0  0  0  0  0  0
    2.5836   -6.5048    4.6672 C   0  0  1  0  0  0  0  0  0  0  0  0
    4.0037   -6.6773    5.1639 C   0  0  1  0  0  0  0  0  0  0  0  0
    4.4058   -7.8760    5.8004 O   0  0  0  0  0  0  0  0  0  0  0  0
    4.9584   -6.0014    4.1644 C   0  0  1  0  0  0  0  0  0  0  0  0
    5.3342   -4.6374    4.8914 C   0  0  0  0  0  0  0  0  0  0  0  0
    4.1867   -3.8351    5.7073 C   0  0  0  0  0  0  0  0  0  0  0  0
    2.6159   -4.0548    5.4365 C   0  0  0  0  0  0  0  0  0  0  0  0
    2.3594   -4.9345    4.1687 C   0  0  2  0  0  0  0  0  0  0  0  0
    1.3657   -5.0562    3.1762 O   0  0  0  0  0  0  0  0  0  0  0  0
    2.2223   -5.4423    2.0213 C   0  0  0  0  0  0  0  0  0  0  0  0
    3.6118   -4.9128    2.3240 C   0  0  0  0  0  0  0  0  0  0  0  0
    3.2244   -4.0881    3.2212 C   0  0  0  0  0  0  0  0  0  0  0  0
    2.9690   -2.6725    2.7985 C   0  0  0  0  0  0  0  0  0  0  0  0
    3.9656   -2.0046    2.0255 C   0  0  0  0  0  0  0  0  0  0  0  0
    3.7845   -0.6711    1.5905 C   0  0  0  0  0  0  0  0  0  0  0  0
    2.5963   -0.0166    1.9576 C   0  0  0  0  0  0  0  0  0  0  0  0
    1.6188   -0.6558    2.6876 C   0  0  0  0  0  0  0  0  0  0  0  0
    1.7603   -1.9870    3.1041 C   0  0  0  0  0  0  0  0  0  0  0  0
    0.5895    0.2068    2.9175 O   0  0  0  0  0  0  0  0  0  0  0  0
    1.0094    1.4446    2.4009 C   0  0  0  0  0  0  0  0  0  0  0  0
    2.2207    1.2651    1.7140 O   0  0  0  0  0  0  0  0  0  0  0  0
    4.4113   -5.9291    2.7982 O   0  0  0  0  0  0  0  0  0  0  0  0
    6.7959   -6.1508    1.9209 H   0  0  0  0  0  0  0  0  0  0  0  0
    8.0230   -7.0644    2.7966 H   0  0  0  0  0  0  0  0  0  0  0  0
    7.5863   -5.4568    3.3424 H   0  0  0  0  0  0  0  0  0  0  0  0
    6.6259   -7.2015    4.7540 H   0  0  0  0  0  0  0  0  0  0  0  0
    6.3385   -8.6922    2.5217 H   0  0  0  0  0  0  0  0  0  0  0  0
    5.7645   -9.1360    4.0273 H   0  0  0  0  0  0  0  0  0  0  0  0
    4.0383   -7.8505    1.7605 H   0  0  0  0  0  0  0  0  0  0  0  0
    4.3858   -9.4516    1.9248 H   0  0  0  0  0  0  0  0  0  0  0  0
    1.9662   -8.5401    1.2780 H   0  0  0  0  0  0  0  0  0  0  0  0
    1.9641  -10.2209    1.5936 H   0  0  0  0  0  0  0  0  0  0  0  0
   -0.3226   -8.9927    1.8190 H   0  0  0  0  0  0  0  0  0  0  0  0
    0.1100   -9.9564    3.2321 H   0  0  0  0  0  0  0  0  0  0  0  0
    0.5254   -7.0854    2.6608 H   0  0  0  0  0  0  0  0  0  0  0  0
   -1.0772   -8.2733    4.8993 H   0  0  0  0  0  0  0  0  0  0  0  0
   -1.5796   -7.2749    3.5563 H   0  0  0  0  0  0  0  0  0  0  0  0
   -0.6046   -6.5653    4.8305 H   0  0  0  0  0  0  0  0  0  0  0  0
    0.8462   -8.0550    6.1678 H   0  0  0  0  0  0  0  0  0  0  0  0
    2.2993   -8.9658    6.1694 H   0  0  0  0  0  0  0  0  0  0  0  0
    0.9095   -9.5676    5.3305 H   0  0  0  0  0  0  0  0  0  0  0  0
    2.0219   -6.4100    5.5867 H   0  0  0  0  0  0  0  0  0  0  0  0
    4.0370   -6.1543    6.1101 H   0  0  0  0  0  0  0  0  0  0  0  0
    4.2911   -8.6210    5.2065 H   0  0  0  0  0  0  0  0  0  0  0  0
    6.1383   -4.8407    5.6006 H   0  0  0  0  0  0  0  0  0  0  0  0
    5.7854   -3.9688    4.1594 H   0  0  0  0  0  0  0  0  0  0  0  0
    4.3440   -4.0132    6.7698 H   0  0  0  0  0  0  0  0  0  0  0  0
    4.3975   -2.7736    5.5922 H   0  0  0  0  0  0  0  0  0  0  0  0
    2.1352   -4.4759    6.3198 H   0  0  0  0  0  0  0  0  0  0  0  0
    2.1508   -3.0780    5.3706 H   0  0  0  0  0  0  0  0  0  0  0  0
    2.3092   -6.5044    1.8408 H   0  0  0  0  0  0  0  0  0  0  0  0
    1.8347   -4.9926    1.1029 H   0  0  0  0  0  0  0  0  0  0  0  0
    4.8789   -2.5161    1.7643 H   0  0  0  0  0  0  0  0  0  0  0  0
    4.5349   -0.1494    1.0173 H   0  0  0  0  0  0  0  0  0  0  0  0
    0.9579   -2.4617    3.6504 H   0  0  0  0  0  0  0  0  0  0  0  0
    0.2517    1.8908    1.7523 H   0  0  0  0  0  0  0  0  0  0  0  0
    1.1892    2.1234    3.2341 H   0  0  0  0  0  0  0  0  0  0  0  0
  1  2  1  0
  1 37  1  0
  1 38  1  0
  1 39  1  0
  2 18  1  0
  2  3  1  0
  2 40  1  1
  3  4  1  0
  3 41  1  0
  3 42  1  0
  4  5  1  0
  4 43  1  0
  4 44  1  0
  5 13  1  0
  5  6  1  1
  5  9  1  0
  6  7  2  0
  6  8  1  0
  9 10  1  0
  9 45  1  0
  9 46  1  0
 10 11  1  0
 10 47  1  0
 10 48  1  0
 11 12  1  0
 11 13  1  0
 11 49  1  6
 12 50  1  0
 12 51  1  0
 12 52  1  0
 13 14  1  1
 13 15  1  0
 14 53  1  0
 14 54  1  0
 14 55  1  0
 15 22  1  0
 15 16  1  0
 15 56  1  1
 16 17  1  0
 16 18  1  0
 16 57  1  1
 17 58  1  0
 18 36  1  6
 18 19  1  0
 19 20  1  0
 19 59  1  0
 19 60  1  0
 20 21  1  0
 20 61  1  0
 20 62  1  0
 21 22  1  0
 21 63  1  0
 21 64  1  0
 22 26  1  0
 22 23  1  6
 23 24  1  0
 24 25  1  0
 24 65  1  0
 24 66  1  0
 25 26  2  0
 25 36  1  0
 26 27  1  0
 27 32  2  0
 27 28  1  0
 28 29  2  0
 28 67  1  0
 29 30  1  0
 29 68  1  0
 30 35  1  0
 30 31  2  0
 31 32  1  0
 31 33  1  0
 32 69  1  0
 33 34  1  0
 34 35  1  0
 34 70  1  0
 34 71  1  0
M  CHG  1   8  -1
M  END
>  <i_m_ct_stereo_status>  (196) 
1

>  <s_m_source_file>  (196) 
/var/tmp/pbs.5076255.sched01/tmppvoazpai/72cbyqjt17.sdf

>  <i_m_source_file_index>  (196) 
18

>  <i_lp_mmshare_version>  (196) 
48012

>  <i_f3d_flags>  (196) 
0

>  <s_epik_input>  (196) 
W0NIM11bQ0BASF0oW0NAQF0xMjMpW0NIMl1bQ0gyXVtDQEBdNChDKD1PKVtPSF0pW0NAXShbQ0gzXSkoW0NASF0oW0NIM10pW0NIMl1bQ0gyXTQpW0NAQEhdKFtDQEhdMVtPSF0pW0NAXTUoW0NIMl1bQ0gyXVtDSDJdMilPW0NIMl1DKE8zKT1DNWMoW2NIXVtjSF02KVtjSF1jKGM2NylPW0NIMl1PNw==

>  <s_epik_cmdline>  (196) 
J2VwaWtfcHl0aG9uJywgJy1waHQnLCAnMi4wJywgJy1waCcsICc3LjAnLCAnLXRuJywgJzgnLCAnLW1hJywgJzIwMCcsICctaW1hZScsICc8aW5maWxlLm1hZT4nLCAnLW9tYWUnLCAnPG91dGZpbGUubWFlPic=

>  <r_epik_Ionization_Penalty>  (196) 
0.0056858

>  <r_epik_Ionization_Penalty_Charging>  (196) 
0.00568573

>  <r_epik_Ionization_Penalty_Neutral>  (196) 
6.99638e-08

>  <r_epik_State_Penalty>  (196) 
0.00416987

>  <r_epik_Charging_Adjusted_Penalty>  (196) 
0.0098556

>  <i_epik_Tot_Q>  (196) 
-1

>  <i_epik_Tot_abs_Q>  (196) 
1

>  <s_epik_Chemistry_Notes>  (196) 
This compound contains an acetal/aminal-like group ( X-CH(R)-Y where X, Y are N, S, or O) that may be acid/base labile, releasing an aldehyde.

>  <s_lp_Force_Field>  (196) 
OPLS3e

>  <r_lp_Energy>  (196) 
262.306

>  <b_lp_Chiralities_Consistent>  (196) 
1

>  <s_lp_Variant>  (196) 
72:0-1

>  <s_i_glide_gridfile>  (196) 
pfpi4k_grid

>  <i_i_glide_lignum>  (196) 
18

>  <i_i_glide_rotatable_bonds>  (196) 
3

>  <r_i_docking_score>  (196) 
-1.612

>  <r_i_glide_ligand_efficiency>  (196) 
-0.0447776

>  <r_i_glide_ligand_efficiency_sa>  (196) 
-0.147853

>  <r_i_glide_ligand_efficiency_ln>  (196) 
-0.351694

>  <r_i_glide_gscore>  (196) 
-1.612

>  <r_i_glide_lipo>  (196) 
-0.0862368

>  <r_i_glide_hbond>  (196) 
0

>  <r_i_glide_metal>  (196) 
-0

>  <r_i_glide_rewards>  (196) 
-0.530109

>  <r_i_glide_evdw>  (196) 
-29.0409

>  <r_i_glide_ecoul>  (196) 
2.89041

>  <r_i_glide_erotb>  (196) 
0.0830053

>  <r_i_glide_esite>  (196) 
-0.060171

>  <r_i_glide_emodel>  (196) 
-34.5722

>  <r_i_glide_energy>  (196) 
-26.1505

>  <r_i_glide_einternal>  (196) 
1.2717

>  <r_i_glide_intrahb_reward>  (196) 
-0.5

>  <i_i_glide_confnum>  (196) 
4

>  <i_i_glide_posenum>  (196) 
14

>  <r_i_glide_eff_state_penalty>  (196) 
0

>  <ligand_id>  (196) 
72

>  <original_smiles>  (196) 
CC1CCC2(C(=O)O)CCC(C)C2(C)C2C(O)C13CCCC21OCC(=C1c1ccc2c(c1)OCO2)O3

>  <smiles>  (196) 
[H]OC1([H])C2([H])C34OC([H])([H])C(=C3c3c([H])c([H])c5c(c3[H])OC([H])([H])O5)OC1(C([H])([H])C([H])([H])C4([H])[H])C([H])(C([H])([H])[H])C([H])([H])C([H])([H])C1(C(=O)[O-])C([H])([H])C([H])([H])C([H])(C([H])([H])[H])C21C([H])([H])[H]

$$$$
73:0:0
     RDKit          3D

 43 46  0  0  1  0  0  0  0  0999 V2000
    9.3748   -2.4724    0.4837 C   0  0  0  0  0  0  0  0  0  0  0  0
    8.1028   -2.0932   -0.0147 O   0  0  0  0  0  0  0  0  0  0  0  0
    7.4256   -3.1662   -0.6435 C   0  0  0  0  0  0  0  0  0  0  0  0
    5.9805   -2.7381   -0.9264 C   0  0  1  0  0  0  0  0  0  0  0  0
    5.8954   -1.7085   -1.9009 O   0  0  0  0  0  0  0  0  0  0  0  0
    4.4941   -1.5512   -2.0111 C   0  0  1  0  0  0  0  0  0  0  0  0
    4.1060   -0.4243   -2.9790 C   0  0  0  0  0  0  0  0  0  0  0  0
    4.1711   -3.0056   -2.4540 C   0  0  1  0  0  0  0  0  0  0  0  0
    4.6016   -3.1922   -3.7993 O   0  0  0  0  0  0  0  0  0  0  0  0
    4.2513   -4.4593   -4.3306 C   0  0  0  0  0  0  0  0  0  0  0  0
    5.0303   -3.8302   -1.4717 C   0  0  2  0  0  0  0  0  0  0  0  0
    4.2010   -4.3136   -0.2586 C   0  0  1  0  0  0  0  0  0  0  0  0
    4.9539   -5.3217    0.4016 O   0  0  0  0  0  0  0  0  0  0  0  0
    4.3374   -6.3105    1.0714 C   0  0  0  0  0  0  0  0  0  0  0  0
    5.3292   -7.3067    1.6632 C   0  0  0  0  0  0  0  0  0  0  0  0
    3.1229   -6.4432    1.2205 O   0  0  0  0  0  0  0  0  0  0  0  0
    4.0780   -3.0902    0.6379 C   0  0  2  0  0  0  0  0  0  0  0  0
    3.0736   -2.0050    0.2408 C   0  0  1  0  0  0  0  0  0  0  0  0
    2.4722   -1.2821    1.2847 O   0  0  0  0  0  0  0  0  0  0  0  0
    4.1819   -1.2743   -0.5283 C   0  0  1  0  0  0  0  0  0  0  0  0
    5.1877   -2.1402    0.2122 C   0  0  2  0  0  0  0  0  0  0  0  0
    9.8687   -1.6060    0.9180 H   0  0  0  0  0  0  0  0  0  0  0  0
   10.0011   -2.8646   -0.3178 H   0  0  0  0  0  0  0  0  0  0  0  0
    9.2861   -3.2429    1.2478 H   0  0  0  0  0  0  0  0  0  0  0  0
    7.9284   -3.4355   -1.5754 H   0  0  0  0  0  0  0  0  0  0  0  0
    7.4283   -4.0473   -0.0047 H   0  0  0  0  0  0  0  0  0  0  0  0
    3.0253   -0.3383   -3.0795 H   0  0  0  0  0  0  0  0  0  0  0  0
    4.5262   -0.6025   -3.9682 H   0  0  0  0  0  0  0  0  0  0  0  0
    4.4877    0.5312   -2.6327 H   0  0  0  0  0  0  0  0  0  0  0  0
    3.1003   -3.2116   -2.3752 H   0  0  0  0  0  0  0  0  0  0  0  0
    4.6211   -4.5456   -5.3449 H   0  0  0  0  0  0  0  0  0  0  0  0
    3.1667   -4.5955   -4.3191 H   0  0  0  0  0  0  0  0  0  0  0  0
    4.7026   -5.2842   -3.7854 H   0  0  0  0  0  0  0  0  0  0  0  0
    5.5597   -4.6502   -1.9444 H   0  0  0  0  0  0  0  0  0  0  0  0
    3.2275   -4.6868   -0.5824 H   0  0  0  0  0  0  0  0  0  0  0  0
    5.9357   -7.7649    0.8832 H   0  0  0  0  0  0  0  0  0  0  0  0
    4.8094   -8.1037    2.1989 H   0  0  0  0  0  0  0  0  0  0  0  0
    5.9998   -6.8030    2.3614 H   0  0  0  0  0  0  0  0  0  0  0  0
    4.0663   -3.2860    1.7177 H   0  0  0  0  0  0  0  0  0  0  0  0
    2.2944   -2.4148   -0.4036 H   0  0  0  0  0  0  0  0  0  0  0  0
    1.7084   -0.8752    0.8880 H   0  0  0  0  0  0  0  0  0  0  0  0
    4.2954   -0.2301   -0.2155 H   0  0  0  0  0  0  0  0  0  0  0  0
    5.6971   -1.6117    1.0215 H   0  0  0  0  0  0  0  0  0  0  0  0
  1  2  1  0
  1 22  1  0
  1 23  1  0
  1 24  1  0
  2  3  1  0
  4  3  1  1
  3 25  1  0
  3 26  1  0
  4 11  1  0
  4 21  1  0
  4  5  1  0
  5  6  1  0
  6 20  1  0
  6  7  1  6
  6  8  1  0
  7 27  1  0
  7 28  1  0
  7 29  1  0
  8  9  1  0
  8 11  1  0
  8 30  1  6
  9 10  1  0
 10 31  1  0
 10 32  1  0
 10 33  1  0
 11 12  1  0
 11 34  1  6
 12 13  1  0
 12 17  1  0
 12 35  1  6
 13 14  1  0
 14 15  1  0
 14 16  2  0
 15 36  1  0
 15 37  1  0
 15 38  1  0
 17 21  1  0
 17 18  1  0
 17 39  1  1
 18 19  1  0
 18 20  1  0
 18 40  1  6
 19 41  1  0
 20 21  1  0
 20 42  1  6
 21 43  1  1
M  END
>  <i_m_ct_stereo_status>  (197) 
1

>  <s_m_source_file>  (197) 
/var/tmp/pbs.5076255.sched01/tmppvoazpai/72cbyqjt17.sdf

>  <i_m_source_file_index>  (197) 
19

>  <i_lp_mmshare_version>  (197) 
48012

>  <i_f3d_flags>  (197) 
0

>  <s_epik_input>  (197) 
W0NIM11PW0NIMl1bQ0BdMTJbQ0BASF0zW0NASF0oT1tDSDNdKVtDQEBdKE8xKShbQ0gzXSlbQ0BASF00W0NASF0yW0NAQEhdKFtDQEhdNFtPSF0pW0NAQEhdM09DKD1PKVtDSDNd

>  <s_epik_cmdline>  (197) 
J2VwaWtfcHl0aG9uJywgJy1waHQnLCAnMi4wJywgJy1waCcsICc3LjAnLCAnLXRuJywgJzgnLCAnLW1hJywgJzIwMCcsICctaW1hZScsICc8aW5maWxlLm1hZT4nLCAnLW9tYWUnLCAnPG91dGZpbGUubWFlPic=

>  <r_lp_tautomer_probability>  (197) 
1

>  <r_epik_Ionization_Penalty>  (197) 
4.7026e-08

>  <r_epik_Ionization_Penalty_Charging>  (197) 
0

>  <r_epik_Ionization_Penalty_Neutral>  (197) 
4.7026e-08

>  <r_epik_State_Penalty>  (197) 
-0

>  <r_epik_Charging_Adjusted_Penalty>  (197) 
0

>  <i_epik_Tot_Q>  (197) 
0

>  <i_epik_Tot_abs_Q>  (197) 
0

>  <s_epik_Chemistry_Notes>  (197) 
This compound has an ester and may undergo hydrolysis at high or low pH.

>  <s_lp_Force_Field>  (197) 
OPLS3e

>  <r_lp_Energy>  (197) 
35.0711

>  <b_lp_Chiralities_Consistent>  (197) 
1

>  <s_lp_Variant>  (197) 
73:0-1

>  <s_i_glide_gridfile>  (197) 
pfpi4k_grid

>  <i_i_glide_lignum>  (197) 
19

>  <i_i_glide_rotatable_bonds>  (197) 
6

>  <r_i_docking_score>  (197) 
-3.86186

>  <r_i_glide_ligand_efficiency>  (197) 
-0.183898

>  <r_i_glide_ligand_efficiency_sa>  (197) 
-0.50736

>  <r_i_glide_ligand_efficiency_ln>  (197) 
-0.954836

>  <r_i_glide_gscore>  (197) 
-3.86186

>  <r_i_glide_lipo>  (197) 
-0.433716

>  <r_i_glide_hbond>  (197) 
-0.256534

>  <r_i_glide_metal>  (197) 
-0

>  <r_i_glide_rewards>  (197) 
-1.50114

>  <r_i_glide_evdw>  (197) 
-21.8252

>  <r_i_glide_ecoul>  (197) 
-6.61032

>  <r_i_glide_erotb>  (197) 
0.412337

>  <r_i_glide_esite>  (197) 
0

>  <r_i_glide_emodel>  (197) 
-34.6995

>  <r_i_glide_energy>  (197) 
-28.4355

>  <r_i_glide_einternal>  (197) 
2.35457

>  <r_i_glide_intrahb_reward>  (197) 
-0

>  <i_i_glide_confnum>  (197) 
5

>  <i_i_glide_posenum>  (197) 
12

>  <r_i_glide_eff_state_penalty>  (197) 
0

>  <ligand_id>  (197) 
73

>  <original_smiles>  (197) 
COCC12OC3(C)C(OC)C1C(OC(C)=O)C1C(O)C3C12

>  <smiles>  (197) 
[H]OC1([H])C2([H])C([H])(OC(=O)C([H])([H])[H])C3([H])C([H])(OC([H])([H])[H])C4(C([H])([H])[H])OC3(C([H])([H])OC([H])([H])[H])C2([H])C14[H]

$$$$
73:0:1
     RDKit          3D

 43 46  0  0  1  0  0  0  0  0999 V2000
    8.4910   -3.4585   -1.8291 C   0  0  0  0  0  0  0  0  0  0  0  0
    8.3318   -3.8049   -0.4660 O   0  0  0  0  0  0  0  0  0  0  0  0
    7.6098   -2.8474    0.3049 C   0  0  0  0  0  0  0  0  0  0  0  0
    6.1709   -2.6483   -0.2120 C   0  0  1  0  0  0  0  0  0  0  0  0
    6.1093   -1.7599   -1.3232 O   0  0  0  0  0  0  0  0  0  0  0  0
    4.7288   -1.8103   -1.6317 C   0  0  1  0  0  0  0  0  0  0  0  0
    4.3852   -0.8904   -2.8027 C   0  0  0  0  0  0  0  0  0  0  0  0
    4.5921   -3.3496   -1.8525 C   0  0  1  0  0  0  0  0  0  0  0  0
    5.2409   -3.7543   -3.0538 O   0  0  0  0  0  0  0  0  0  0  0  0
    4.4131   -3.8889   -4.1943 C   0  0  0  0  0  0  0  0  0  0  0  0
    5.3879   -3.9125   -0.6522 C   0  0  2  0  0  0  0  0  0  0  0  0
    4.4655   -4.2901    0.5377 C   0  0  1  0  0  0  0  0  0  0  0  0
    5.1896   -5.0748    1.4763 O   0  0  0  0  0  0  0  0  0  0  0  0
    5.2194   -6.4207    1.3369 C   0  0  0  0  0  0  0  0  0  0  0  0
    6.1167   -7.1086    2.3689 C   0  0  0  0  0  0  0  0  0  0  0  0
    4.6145   -7.0682    0.4848 O   0  0  0  0  0  0  0  0  0  0  0  0
    4.1193   -2.9588    1.1750 C   0  0  2  0  0  0  0  0  0  0  0  0
    3.0751   -2.0782    0.4809 C   0  0  1  0  0  0  0  0  0  0  0  0
    2.2438   -1.2841    1.2802 O   0  0  0  0  0  0  0  0  0  0  0  0
    4.1999   -1.3503   -0.2664 C   0  0  1  0  0  0  0  0  0  0  0  0
    5.1821   -1.9681    0.7123 C   0  0  2  0  0  0  0  0  0  0  0  0
    9.1235   -4.2021   -2.3103 H   0  0  0  0  0  0  0  0  0  0  0  0
    8.9211   -2.4682   -1.9397 H   0  0  0  0  0  0  0  0  0  0  0  0
    7.5351   -3.4961   -2.3392 H   0  0  0  0  0  0  0  0  0  0  0  0
    7.5696   -3.2268    1.3252 H   0  0  0  0  0  0  0  0  0  0  0  0
    8.1532   -1.8985    0.3348 H   0  0  0  0  0  0  0  0  0  0  0  0
    3.3346   -0.9748   -3.0760 H   0  0  0  0  0  0  0  0  0  0  0  0
    4.9925   -1.1453   -3.6668 H   0  0  0  0  0  0  0  0  0  0  0  0
    4.5957    0.1493   -2.5616 H   0  0  0  0  0  0  0  0  0  0  0  0
    3.5617   -3.7060   -1.8442 H   0  0  0  0  0  0  0  0  0  0  0  0
    5.0402   -4.1867   -5.0335 H   0  0  0  0  0  0  0  0  0  0  0  0
    3.9026   -2.9634   -4.4500 H   0  0  0  0  0  0  0  0  0  0  0  0
    3.6652   -4.6523   -4.0712 H   0  0  0  0  0  0  0  0  0  0  0  0
    6.0065   -4.7501   -0.9465 H   0  0  0  0  0  0  0  0  0  0  0  0
    3.5658   -4.8120    0.2036 H   0  0  0  0  0  0  0  0  0  0  0  0
    7.1483   -6.7600    2.2824 H   0  0  0  0  0  0  0  0  0  0  0  0
    6.1147   -8.1923    2.2218 H   0  0  0  0  0  0  0  0  0  0  0  0
    5.7633   -6.9040    3.3810 H   0  0  0  0  0  0  0  0  0  0  0  0
    3.9972   -2.9600    2.2714 H   0  0  0  0  0  0  0  0  0  0  0  0
    2.4401   -2.6683   -0.1928 H   0  0  0  0  0  0  0  0  0  0  0  0
    1.5799   -0.9885    0.6590 H   0  0  0  0  0  0  0  0  0  0  0  0
    4.1785   -0.2630   -0.1079 H   0  0  0  0  0  0  0  0  0  0  0  0
    5.5201   -1.2570    1.4640 H   0  0  0  0  0  0  0  0  0  0  0  0
  1  2  1  0
  1 22  1  0
  1 23  1  0
  1 24  1  0
  2  3  1  0
  4  3  1  1
  3 25  1  0
  3 26  1  0
  4 11  1  0
  4 21  1  0
  4  5  1  0
  5  6  1  0
  6 20  1  0
  6  7  1  6
  6  8  1  0
  7 27  1  0
  7 28  1  0
  7 29  1  0
  8  9  1  0
  8 11  1  0
  8 30  1  6
  9 10  1  0
 10 31  1  0
 10 32  1  0
 10 33  1  0
 11 12  1  0
 11 34  1  6
 12 13  1  0
 12 17  1  0
 12 35  1  6
 13 14  1  0
 14 15  1  0
 14 16  2  0
 15 36  1  0
 15 37  1  0
 15 38  1  0
 17 21  1  0
 17 18  1  0
 17 39  1  1
 18 19  1  0
 18 20  1  0
 18 40  1  6
 19 41  1  0
 20 21  1  0
 20 42  1  6
 21 43  1  1
M  END
>  <i_m_ct_stereo_status>  (198) 
1

>  <s_m_source_file>  (198) 
/var/tmp/pbs.5076255.sched01/tmppvoazpai/72cbyqjt17.sdf

>  <i_m_source_file_index>  (198) 
19

>  <i_lp_mmshare_version>  (198) 
48012

>  <i_f3d_flags>  (198) 
0

>  <s_epik_input>  (198) 
W0NIM11PW0NIMl1bQ0BdMTJbQ0BASF0zW0NASF0oT1tDSDNdKVtDQEBdKE8xKShbQ0gzXSlbQ0BASF00W0NASF0yW0NAQEhdKFtDQEhdNFtPSF0pW0NAQEhdM09DKD1PKVtDSDNd

>  <s_epik_cmdline>  (198) 
J2VwaWtfcHl0aG9uJywgJy1waHQnLCAnMi4wJywgJy1waCcsICc3LjAnLCAnLXRuJywgJzgnLCAnLW1hJywgJzIwMCcsICctaW1hZScsICc8aW5maWxlLm1hZT4nLCAnLW9tYWUnLCAnPG91dGZpbGUubWFlPic=

>  <r_lp_tautomer_probability>  (198) 
1

>  <r_epik_Ionization_Penalty>  (198) 
4.7026e-08

>  <r_epik_Ionization_Penalty_Charging>  (198) 
0

>  <r_epik_Ionization_Penalty_Neutral>  (198) 
4.7026e-08

>  <r_epik_State_Penalty>  (198) 
-0

>  <r_epik_Charging_Adjusted_Penalty>  (198) 
0

>  <i_epik_Tot_Q>  (198) 
0

>  <i_epik_Tot_abs_Q>  (198) 
0

>  <s_epik_Chemistry_Notes>  (198) 
This compound has an ester and may undergo hydrolysis at high or low pH.

>  <s_lp_Force_Field>  (198) 
OPLS3e

>  <r_lp_Energy>  (198) 
35.0711

>  <b_lp_Chiralities_Consistent>  (198) 
1

>  <s_lp_Variant>  (198) 
73:0-1

>  <s_i_glide_gridfile>  (198) 
pfpi4k_grid

>  <i_i_glide_lignum>  (198) 
19

>  <i_i_glide_rotatable_bonds>  (198) 
6

>  <r_i_docking_score>  (198) 
-3.83785

>  <r_i_glide_ligand_efficiency>  (198) 
-0.182755

>  <r_i_glide_ligand_efficiency_sa>  (198) 
-0.504206

>  <r_i_glide_ligand_efficiency_ln>  (198) 
-0.9489

>  <r_i_glide_gscore>  (198) 
-3.83785

>  <r_i_glide_lipo>  (198) 
-0.386243

>  <r_i_glide_hbond>  (198) 
-0.292545

>  <r_i_glide_metal>  (198) 
-0

>  <r_i_glide_rewards>  (198) 
-1.49342

>  <r_i_glide_evdw>  (198) 
-21.0653

>  <r_i_glide_ecoul>  (198) 
-6.83144

>  <r_i_glide_erotb>  (198) 
0.412337

>  <r_i_glide_esite>  (198) 
0

>  <r_i_glide_emodel>  (198) 
-33.3012

>  <r_i_glide_energy>  (198) 
-27.8967

>  <r_i_glide_einternal>  (198) 
3.17627

>  <r_i_glide_intrahb_reward>  (198) 
-0

>  <i_i_glide_confnum>  (198) 
4

>  <i_i_glide_posenum>  (198) 
9

>  <r_i_glide_eff_state_penalty>  (198) 
0

>  <ligand_id>  (198) 
73

>  <original_smiles>  (198) 
COCC12OC3(C)C(OC)C1C(OC(C)=O)C1C(O)C3C12

>  <smiles>  (198) 
[H]OC1([H])C2([H])C([H])(OC(=O)C([H])([H])[H])C3([H])C([H])(OC([H])([H])[H])C4(C([H])([H])[H])OC3(C([H])([H])OC([H])([H])[H])C2([H])C14[H]

$$$$
73:0:2
     RDKit          3D

 43 46  0  0  1  0  0  0  0  0999 V2000
    8.9047   -4.6062    1.4477 C   0  0  0  0  0  0  0  0  0  0  0  0
    7.6446   -4.0240    1.1720 O   0  0  0  0  0  0  0  0  0  0  0  0
    7.6683   -3.1266    0.0777 C   0  0  0  0  0  0  0  0  0  0  0  0
    6.2354   -2.7790   -0.3643 C   0  0  1  0  0  0  0  0  0  0  0  0
    6.2192   -1.9337   -1.5133 O   0  0  0  0  0  0  0  0  0  0  0  0
    4.8241   -1.8181   -1.7433 C   0  0  1  0  0  0  0  0  0  0  0  0
    4.5031   -0.8814   -2.9110 C   0  0  0  0  0  0  0  0  0  0  0  0
    4.5057   -3.3301   -1.9155 C   0  0  1  0  0  0  0  0  0  0  0  0
    5.0354   -3.8254   -3.1407 O   0  0  0  0  0  0  0  0  0  0  0  0
    4.1341   -3.8504   -4.2340 C   0  0  0  0  0  0  0  0  0  0  0  0
    5.3001   -3.9569   -0.7509 C   0  0  2  0  0  0  0  0  0  0  0  0
    4.3909   -4.1960    0.4933 C   0  0  1  0  0  0  0  0  0  0  0  0
    5.0378   -5.0558    1.4285 O   0  0  0  0  0  0  0  0  0  0  0  0
    4.9443   -6.3924    1.2996 C   0  0  0  0  0  0  0  0  0  0  0  0
    5.8156   -7.1444    2.2978 C   0  0  0  0  0  0  0  0  0  0  0  0
    4.2565   -6.9911    0.4756 O   0  0  0  0  0  0  0  0  0  0  0  0
    4.2317   -2.8117    1.1159 C   0  0  2  0  0  0  0  0  0  0  0  0
    3.2649   -1.8286    0.4509 C   0  0  1  0  0  0  0  0  0  0  0  0
    2.5792   -0.9157    1.2788 O   0  0  0  0  0  0  0  0  0  0  0  0
    4.4269   -1.2579   -0.3656 C   0  0  1  0  0  0  0  0  0  0  0  0
    5.3816   -1.9644    0.5824 C   0  0  2  0  0  0  0  0  0  0  0  0
    8.8281   -5.2645    2.3137 H   0  0  0  0  0  0  0  0  0  0  0  0
    9.6579   -3.8497    1.6704 H   0  0  0  0  0  0  0  0  0  0  0  0
    9.2471   -5.2080    0.6049 H   0  0  0  0  0  0  0  0  0  0  0  0
    8.2182   -2.2241    0.3469 H   0  0  0  0  0  0  0  0  0  0  0  0
    8.1887   -3.5828   -0.7670 H   0  0  0  0  0  0  0  0  0  0  0  0
    3.4303   -0.8416   -3.1005 H   0  0  0  0  0  0  0  0  0  0  0  0
    5.0101   -1.2037   -3.8158 H   0  0  0  0  0  0  0  0  0  0  0  0
    4.8407    0.1287   -2.6983 H   0  0  0  0  0  0  0  0  0  0  0  0
    3.4420   -3.5574   -1.8431 H   0  0  0  0  0  0  0  0  0  0  0  0
    4.6724   -4.2410   -5.1000 H   0  0  0  0  0  0  0  0  0  0  0  0
    3.7424   -2.8670   -4.4850 H   0  0  0  0  0  0  0  0  0  0  0  0
    3.2779   -4.4928   -4.0544 H   0  0  0  0  0  0  0  0  0  0  0  0
    5.8140   -4.8643   -1.0692 H   0  0  0  0  0  0  0  0  0  0  0  0
    3.4202   -4.6130    0.2137 H   0  0  0  0  0  0  0  0  0  0  0  0
    6.8682   -6.8947    2.1539 H   0  0  0  0  0  0  0  0  0  0  0  0
    5.7043   -8.2221    2.1704 H   0  0  0  0  0  0  0  0  0  0  0  0
    5.5355   -6.8896    3.3205 H   0  0  0  0  0  0  0  0  0  0  0  0
    4.1615   -2.7948    2.2082 H   0  0  0  0  0  0  0  0  0  0  0  0
    2.5328   -2.3464   -0.1704 H   0  0  0  0  0  0  0  0  0  0  0  0
    1.8238   -0.6532    0.7642 H   0  0  0  0  0  0  0  0  0  0  0  0
    4.5250   -0.1738   -0.2659 H   0  0  0  0  0  0  0  0  0  0  0  0
    5.8583   -1.2889    1.2935 H   0  0  0  0  0  0  0  0  0  0  0  0
  1  2  1  0
  1 22  1  0
  1 23  1  0
  1 24  1  0
  2  3  1  0
  4  3  1  1
  3 25  1  0
  3 26  1  0
  4 11  1  0
  4 21  1  0
  4  5  1  0
  5  6  1  0
  6 20  1  0
  6  7  1  6
  6  8  1  0
  7 27  1  0
  7 28  1  0
  7 29  1  0
  8  9  1  0
  8 11  1  0
  8 30  1  1
  9 10  1  0
 10 31  1  0
 10 32  1  0
 10 33  1  0
 11 12  1  0
 11 34  1  6
 12 13  1  0
 12 17  1  0
 12 35  1  6
 13 14  1  0
 14 15  1  0
 14 16  2  0
 15 36  1  0
 15 37  1  0
 15 38  1  0
 17 21  1  0
 17 18  1  0
 17 39  1  1
 18 19  1  0
 18 20  1  0
 18 40  1  6
 19 41  1  0
 20 21  1  0
 20 42  1  6
 21 43  1  1
M  END
>  <i_m_ct_stereo_status>  (199) 
1

>  <s_m_source_file>  (199) 
/var/tmp/pbs.5076255.sched01/tmppvoazpai/72cbyqjt17.sdf

>  <i_m_source_file_index>  (199) 
19

>  <i_lp_mmshare_version>  (199) 
48012

>  <i_f3d_flags>  (199) 
0

>  <s_epik_input>  (199) 
W0NIM11PW0NIMl1bQ0BdMTJbQ0BASF0zW0NASF0oT1tDSDNdKVtDQEBdKE8xKShbQ0gzXSlbQ0BASF00W0NASF0yW0NAQEhdKFtDQEhdNFtPSF0pW0NAQEhdM09DKD1PKVtDSDNd

>  <s_epik_cmdline>  (199) 
J2VwaWtfcHl0aG9uJywgJy1waHQnLCAnMi4wJywgJy1waCcsICc3LjAnLCAnLXRuJywgJzgnLCAnLW1hJywgJzIwMCcsICctaW1hZScsICc8aW5maWxlLm1hZT4nLCAnLW9tYWUnLCAnPG91dGZpbGUubWFlPic=

>  <r_lp_tautomer_probability>  (199) 
1

>  <r_epik_Ionization_Penalty>  (199) 
4.7026e-08

>  <r_epik_Ionization_Penalty_Charging>  (199) 
0

>  <r_epik_Ionization_Penalty_Neutral>  (199) 
4.7026e-08

>  <r_epik_State_Penalty>  (199) 
-0

>  <r_epik_Charging_Adjusted_Penalty>  (199) 
0

>  <i_epik_Tot_Q>  (199) 
0

>  <i_epik_Tot_abs_Q>  (199) 
0

>  <s_epik_Chemistry_Notes>  (199) 
This compound has an ester and may undergo hydrolysis at high or low pH.

>  <s_lp_Force_Field>  (199) 
OPLS3e

>  <r_lp_Energy>  (199) 
35.0711

>  <b_lp_Chiralities_Consistent>  (199) 
1

>  <s_lp_Variant>  (199) 
73:0-1

>  <s_i_glide_gridfile>  (199) 
pfpi4k_grid

>  <i_i_glide_lignum>  (199) 
19

>  <i_i_glide_rotatable_bonds>  (199) 
6

>  <r_i_docking_score>  (199) 
-3.52953

>  <r_i_glide_ligand_efficiency>  (199) 
-0.168073

>  <r_i_glide_ligand_efficiency_sa>  (199) 
-0.463701

>  <r_i_glide_ligand_efficiency_ln>  (199) 
-0.87267

>  <r_i_glide_gscore>  (199) 
-3.52953

>  <r_i_glide_lipo>  (199) 
-0.371255

>  <r_i_glide_hbond>  (199) 
-0.302692

>  <r_i_glide_metal>  (199) 
-0

>  <r_i_glide_rewards>  (199) 
-1.49202

>  <r_i_glide_evdw>  (199) 
-22.4832

>  <r_i_glide_ecoul>  (199) 
-4.34493

>  <r_i_glide_erotb>  (199) 
0.412337

>  <r_i_glide_esite>  (199) 
0

>  <r_i_glide_emodel>  (199) 
-31.9753

>  <r_i_glide_energy>  (199) 
-26.8282

>  <r_i_glide_einternal>  (199) 
3.30348

>  <r_i_glide_intrahb_reward>  (199) 
-0

>  <i_i_glide_confnum>  (199) 
5

>  <i_i_glide_posenum>  (199) 
16

>  <r_i_glide_eff_state_penalty>  (199) 
0

>  <ligand_id>  (199) 
73

>  <original_smiles>  (199) 
COCC12OC3(C)C(OC)C1C(OC(C)=O)C1C(O)C3C12

>  <smiles>  (199) 
[H]OC1([H])C2([H])C([H])(OC(=O)C([H])([H])[H])C3([H])C([H])(OC([H])([H])[H])C4(C([H])([H])[H])OC3(C([H])([H])OC([H])([H])[H])C2([H])C14[H]

$$$$
75:0:0
     RDKit          3D

 89 94  0  0  1  0  0  0  0  0999 V2000
    1.1234    2.6763    7.4488 C   0  0  0  0  0  0  0  0  0  0  0  0
    1.4106    1.8673    6.2008 C   0  0  0  0  0  0  0  0  0  0  0  0
    2.6007    1.5702    5.6739 C   0  0  0  0  0  0  0  0  0  0  0  0
    2.4522    0.8439    4.3500 C   0  0  2  0  0  0  0  0  0  0  0  0
    0.9886    0.3219    4.4052 C   0  0  2  0  0  0  0  0  0  0  0  0
    0.2860    1.3323    5.3533 C   0  0  0  0  0  0  0  0  0  0  0  0
    0.8880   -1.1087    5.0128 C   0  0  1  0  0  0  0  0  0  0  0  0
   -0.4563   -1.5567    4.9471 O   0  0  0  0  0  0  0  0  0  0  0  0
    1.8624   -2.1873    4.4304 C   0  0  1  0  0  0  0  0  0  0  0  0
    1.4204   -2.4242    2.9561 C   0  0  0  0  0  0  0  0  0  0  0  0
    3.3276   -1.6160    4.5310 C   0  0  2  0  0  0  0  0  0  0  0  0
    3.8652   -1.7288    5.9845 C   0  0  0  0  0  0  0  0  0  0  0  0
    3.7370   -3.1284    6.6269 C   0  0  0  0  0  0  0  0  0  0  0  0
    2.2904   -3.7074    6.6535 C   0  0  1  0  0  0  0  0  0  0  0  0
    1.4455   -2.8210    7.6267 C   0  0  0  0  0  0  0  0  0  0  0  0
    1.8063   -3.6189    5.1523 C   0  0  2  0  0  0  0  0  0  0  0  0
    2.5727   -4.6742    4.2826 C   0  0  0  0  0  0  0  0  0  0  0  0
    2.8352   -6.0123    4.9294 C   0  0  0  0  0  0  0  0  0  0  0  0
    2.6391   -6.3033    6.2193 C   0  0  0  0  0  0  0  0  0  0  0  0
    2.6993   -7.7482    6.7772 C   0  0  2  0  0  0  0  0  0  0  0  0
    3.3187   -8.8690    5.8791 C   0  0  0  0  0  0  0  0  0  0  0  0
    2.4013   -9.7121    4.9208 C   0  0  0  0  0  0  0  0  0  0  0  0
    2.4042   -9.1666    3.4753 C   0  0  0  0  0  0  0  0  0  0  0  0
    2.9747  -11.1490    4.8696 C   0  0  0  0  0  0  0  0  0  0  0  0
    0.9380   -9.8195    5.4206 C   0  0  0  0  0  0  0  0  0  0  0  0
    0.4208   -8.5846    6.1677 C   0  0  0  0  0  0  0  0  0  0  0  0
    1.3269   -8.1841    7.3545 C   0  0  1  0  0  0  0  0  0  0  0  0
    1.5100   -9.3722    8.3352 C   0  0  0  0  0  0  0  0  0  0  0  0
    0.6494   -7.0602    8.1832 C   0  0  0  0  0  0  0  0  0  0  0  0
    0.7640   -5.6334    7.6119 C   0  0  0  0  0  0  0  0  0  0  0  0
    2.2183   -5.2154    7.2313 C   0  0  2  0  0  0  0  0  0  0  0  0
    3.1410   -5.2997    8.4926 C   0  0  0  0  0  0  0  0  0  0  0  0
    3.5418   -0.1837    3.9051 C   0  0  0  0  0  0  0  0  0  0  0  0
    3.5148   -0.2520    2.3480 C   0  0  0  0  0  0  0  0  0  0  0  0
    4.9646    0.3436    4.2229 C   0  0  0  0  0  0  0  0  0  0  0  0
    0.5692    2.0697    8.1662 H   0  0  0  0  0  0  0  0  0  0  0  0
    0.5175    3.5499    7.2008 H   0  0  0  0  0  0  0  0  0  0  0  0
    2.0435    3.0204    7.9215 H   0  0  0  0  0  0  0  0  0  0  0  0
    3.5456    1.8832    6.0840 H   0  0  0  0  0  0  0  0  0  0  0  0
    2.4908    1.6682    3.6330 H   0  0  0  0  0  0  0  0  0  0  0  0
    0.5356    0.3616    3.4151 H   0  0  0  0  0  0  0  0  0  0  0  0
   -0.4891    0.8816    5.9738 H   0  0  0  0  0  0  0  0  0  0  0  0
   -0.1625    2.1572    4.7973 H   0  0  0  0  0  0  0  0  0  0  0  0
    1.1122   -0.9462    6.0540 H   0  0  0  0  0  0  0  0  0  0  0  0
   -0.6910   -1.6263    4.0346 H   0  0  0  0  0  0  0  0  0  0  0  0
    2.2309   -2.8028    2.3362 H   0  0  0  0  0  0  0  0  0  0  0  0
    1.0184   -1.5469    2.4614 H   0  0  0  0  0  0  0  0  0  0  0  0
    0.6140   -3.1528    2.9068 H   0  0  0  0  0  0  0  0  0  0  0  0
    3.9823   -2.2648    3.9552 H   0  0  0  0  0  0  0  0  0  0  0  0
    4.9296   -1.5060    6.0071 H   0  0  0  0  0  0  0  0  0  0  0  0
    3.4033   -0.9699    6.6103 H   0  0  0  0  0  0  0  0  0  0  0  0
    4.3997   -3.8122    6.0966 H   0  0  0  0  0  0  0  0  0  0  0  0
    4.1432   -3.0557    7.6355 H   0  0  0  0  0  0  0  0  0  0  0  0
    0.4004   -2.7732    7.3185 H   0  0  0  0  0  0  0  0  0  0  0  0
    1.8206   -1.8099    7.7486 H   0  0  0  0  0  0  0  0  0  0  0  0
    1.4452   -3.1783    8.6531 H   0  0  0  0  0  0  0  0  0  0  0  0
    0.7616   -3.9320    5.1561 H   0  0  0  0  0  0  0  0  0  0  0  0
    1.9940   -4.9080    3.3892 H   0  0  0  0  0  0  0  0  0  0  0  0
    3.5405   -4.3154    3.9371 H   0  0  0  0  0  0  0  0  0  0  0  0
    3.1586   -6.7739    4.2388 H   0  0  0  0  0  0  0  0  0  0  0  0
    3.4026   -7.6883    7.6007 H   0  0  0  0  0  0  0  0  0  0  0  0
    4.1870   -8.4958    5.3391 H   0  0  0  0  0  0  0  0  0  0  0  0
    3.7598   -9.5747    6.5886 H   0  0  0  0  0  0  0  0  0  0  0  0
    1.9544   -9.8776    2.7832 H   0  0  0  0  0  0  0  0  0  0  0  0
    3.4145   -8.9871    3.1134 H   0  0  0  0  0  0  0  0  0  0  0  0
    1.8348   -8.2475    3.3766 H   0  0  0  0  0  0  0  0  0  0  0  0
    2.3875  -11.8042    4.2199 H   0  0  0  0  0  0  0  0  0  0  0  0
    2.9657  -11.6018    5.8658 H   0  0  0  0  0  0  0  0  0  0  0  0
    4.0082  -11.1591    4.5169 H   0  0  0  0  0  0  0  0  0  0  0  0
    0.2705  -10.0314    4.5837 H   0  0  0  0  0  0  0  0  0  0  0  0
    0.8259  -10.6825    6.0783 H   0  0  0  0  0  0  0  0  0  0  0  0
    0.3206   -7.7544    5.4675 H   0  0  0  0  0  0  0  0  0  0  0  0
   -0.5837   -8.8022    6.5185 H   0  0  0  0  0  0  0  0  0  0  0  0
    0.5478   -9.7301    8.7042 H   0  0  0  0  0  0  0  0  0  0  0  0
    2.1153   -9.0850    9.1962 H   0  0  0  0  0  0  0  0  0  0  0  0
    2.0152  -10.2261    7.8859 H   0  0  0  0  0  0  0  0  0  0  0  0
   -0.4068   -7.2974    8.3127 H   0  0  0  0  0  0  0  0  0  0  0  0
    1.0472   -7.0580    9.1991 H   0  0  0  0  0  0  0  0  0  0  0  0
    0.1196   -5.5514    6.7377 H   0  0  0  0  0  0  0  0  0  0  0  0
    0.3229   -4.9804    8.3588 H   0  0  0  0  0  0  0  0  0  0  0  0
    2.9952   -4.4837    9.1964 H   0  0  0  0  0  0  0  0  0  0  0  0
    4.1939   -5.2916    8.2099 H   0  0  0  0  0  0  0  0  0  0  0  0
    3.0033   -6.2016    9.0810 H   0  0  0  0  0  0  0  0  0  0  0  0
    3.9862   -1.1591    1.9645 H   0  0  0  0  0  0  0  0  0  0  0  0
    4.0408    0.5881    1.8909 H   0  0  0  0  0  0  0  0  0  0  0  0
    2.5086   -0.1903    1.9384 H   0  0  0  0  0  0  0  0  0  0  0  0
    5.7321   -0.3570    3.8900 H   0  0  0  0  0  0  0  0  0  0  0  0
    5.1355    0.5418    5.2795 H   0  0  0  0  0  0  0  0  0  0  0  0
    5.1432    1.2868    3.7136 H   0  0  0  0  0  0  0  0  0  0  0  0
  1  2  1  0
  1 36  1  0
  1 37  1  0
  1 38  1  0
  2  6  1  0
  2  3  2  0
  3  4  1  0
  3 39  1  0
  4 33  1  0
  4  5  1  0
  4 40  1  6
  5  6  1  0
  5  7  1  0
  5 41  1  6
  6 42  1  0
  6 43  1  0
  7  8  1  0
  7  9  1  0
  7 44  1  1
  8 45  1  0
  9 16  1  0
  9 10  1  6
  9 11  1  0
 10 46  1  0
 10 47  1  0
 10 48  1  0
 11 12  1  0
 11 33  1  0
 11 49  1  6
 12 13  1  0
 12 50  1  0
 12 51  1  0
 13 14  1  0
 13 52  1  0
 13 53  1  0
 14 31  1  0
 14 15  1  1
 14 16  1  0
 15 54  1  0
 15 55  1  0
 15 56  1  0
 16 17  1  0
 16 57  1  1
 17 18  1  0
 17 58  1  0
 17 59  1  0
 18 19  2  0
 18 60  1  0
 19 31  1  0
 19 20  1  0
 20 27  1  0
 20 21  1  0
 20 61  1  1
 21 22  1  0
 21 62  1  0
 21 63  1  0
 22 23  1  0
 22 24  1  0
 22 25  1  0
 23 64  1  0
 23 65  1  0
 23 66  1  0
 24 67  1  0
 24 68  1  0
 24 69  1  0
 25 26  1  0
 25 70  1  0
 25 71  1  0
 26 27  1  0
 26 72  1  0
 26 73  1  0
 27 28  1  1
 27 29  1  0
 28 74  1  0
 28 75  1  0
 28 76  1  0
 29 30  1  0
 29 77  1  0
 29 78  1  0
 30 31  1  0
 30 79  1  0
 30 80  1  0
 31 32  1  1
 32 81  1  0
 32 82  1  0
 32 83  1  0
 33 34  1  0
 33 35  1  0
 34 84  1  0
 34 85  1  0
 34 86  1  0
 35 87  1  0
 35 88  1  0
 35 89  1  0
M  END
>  <i_m_ct_stereo_status>  (200) 
1

>  <s_m_source_file>  (200) 
/var/tmp/pbs.5076255.sched01/tmppvoazpai/72cbyqjt17.sdf

>  <i_m_source_file_index>  (200) 
21

>  <i_lp_mmshare_version>  (200) 
48012

>  <i_f3d_flags>  (200) 
0

>  <s_epik_input>  (200) 
W0NIM11DKD1bQ0hdMSlbQ0gyXVtDQEhdKFtDQEhdMltPSF0pW0NAQEhdMUMoW0NIM10pKFtDSDNdKVtDQEhdKFtDQF0yM1tDSDNdKVtDSDJdW0NIMl1bQ0BAXTQoW0NIM10pW0NAQEhdM1tDSDJdW0NIXT1DNVtDQEhdNltDQF0oW0NIM10pKFtDSDJdW0NIMl1DKFtDSDJdNikoW0NIM10pW0NIM10pW0NIMl1bQ0gyXVtDQF00NVtDSDNd

>  <s_epik_cmdline>  (200) 
J2VwaWtfcHl0aG9uJywgJy1waHQnLCAnMi4wJywgJy1waCcsICc3LjAnLCAnLXRuJywgJzgnLCAnLW1hJywgJzIwMCcsICctaW1hZScsICc8aW5maWxlLm1hZT4nLCAnLW9tYWUnLCAnPG91dGZpbGUubWFlPic=

>  <r_lp_tautomer_probability>  (200) 
1

>  <r_epik_Ionization_Penalty>  (200) 
1.54977e-06

>  <r_epik_Ionization_Penalty_Charging>  (200) 
0

>  <r_epik_Ionization_Penalty_Neutral>  (200) 
1.54977e-06

>  <r_epik_State_Penalty>  (200) 
-0

>  <r_epik_Charging_Adjusted_Penalty>  (200) 
0

>  <i_epik_Tot_Q>  (200) 
0

>  <i_epik_Tot_abs_Q>  (200) 
0

>  <s_lp_Force_Field>  (200) 
OPLS3e

>  <r_lp_Energy>  (200) 
99.6716

>  <b_lp_Chiralities_Consistent>  (200) 
1

>  <s_lp_Variant>  (200) 
75:0-1

>  <s_i_glide_gridfile>  (200) 
pfpi4k_grid

>  <i_i_glide_lignum>  (200) 
21

>  <i_i_glide_rotatable_bonds>  (200) 
1

>  <r_i_docking_score>  (200) 
-1.74985

>  <r_i_glide_ligand_efficiency>  (200) 
-0.0499957

>  <r_i_glide_ligand_efficiency_sa>  (200) 
-0.163539

>  <r_i_glide_ligand_efficiency_ln>  (200) 
-0.384131

>  <r_i_glide_gscore>  (200) 
-1.74985

>  <r_i_glide_lipo>  (200) 
-0.111329

>  <r_i_glide_hbond>  (200) 
0

>  <r_i_glide_metal>  (200) 
-0

>  <r_i_glide_rewards>  (200) 
-0.1446

>  <r_i_glide_evdw>  (200) 
-22.0381

>  <r_i_glide_ecoul>  (200) 
-2.61345

>  <r_i_glide_erotb>  (200) 
0

>  <r_i_glide_esite>  (200) 
0

>  <r_i_glide_emodel>  (200) 
-26.9652

>  <r_i_glide_energy>  (200) 
-24.6515

>  <r_i_glide_einternal>  (200) 
1.55587e-05

>  <r_i_glide_intrahb_reward>  (200) 
-0

>  <i_i_glide_confnum>  (200) 
2

>  <i_i_glide_posenum>  (200) 
40

>  <r_i_glide_eff_state_penalty>  (200) 
0

>  <ligand_id>  (200) 
75

>  <original_smiles>  (200) 
CC1=CC2C(C1)C(O)C1(C)C(CCC3(C)C1CC=C1C4CC(C)(C)CCC4(C)CCC13C)C2(C)C

>  <smiles>  (200) 
[H]OC1([H])C2([H])C([H])([H])C(C([H])([H])[H])=C([H])C2([H])C(C([H])([H])[H])(C([H])([H])[H])C2([H])C([H])([H])C([H])([H])C3(C([H])([H])[H])C([H])(C([H])([H])C([H])=C4C5([H])C([H])([H])C(C([H])([H])[H])(C([H])([H])[H])C([H])([H])C([H])([H])C5(C([H])([H])[H])C([H])([H])C([H])([H])C43C([H])([H])[H])C12C([H])([H])[H]

$$$$
75:0:1
     RDKit          3D

 89 94  0  0  1  0  0  0  0  0999 V2000
    3.0119    3.0018    7.3414 C   0  0  0  0  0  0  0  0  0  0  0  0
    3.0279    2.2794    6.0127 C   0  0  0  0  0  0  0  0  0  0  0  0
    4.0780    1.7267    5.3947 C   0  0  0  0  0  0  0  0  0  0  0  0
    3.6908    1.2168    4.0167 C   0  0  2  0  0  0  0  0  0  0  0  0
    2.1564    1.1153    4.0917 C   0  0  2  0  0  0  0  0  0  0  0  0
    1.7858    2.1732    5.1704 C   0  0  0  0  0  0  0  0  0  0  0  0
    1.6867   -0.2896    4.5357 C   0  0  1  0  0  0  0  0  0  0  0  0
    0.2752   -0.3342    4.4642 O   0  0  0  0  0  0  0  0  0  0  0  0
    2.3226   -1.5125    3.7946 C   0  0  1  0  0  0  0  0  0  0  0  0
    1.8009   -1.4492    2.3261 C   0  0  0  0  0  0  0  0  0  0  0  0
    3.8888   -1.3791    3.8848 C   0  0  2  0  0  0  0  0  0  0  0  0
    4.4081   -1.7895    5.2874 C   0  0  0  0  0  0  0  0  0  0  0  0
    3.9165   -3.1626    5.7863 C   0  0  0  0  0  0  0  0  0  0  0  0
    2.3697   -3.3279    5.8171 C   0  0  1  0  0  0  0  0  0  0  0  0
    1.8171   -2.3640    6.9205 C   0  0  0  0  0  0  0  0  0  0  0  0
    1.8924   -2.9432    4.3612 C   0  0  2  0  0  0  0  0  0  0  0  0
    2.3263   -4.0534    3.3486 C   0  0  0  0  0  0  0  0  0  0  0  0
    2.2295   -5.4803    3.8336 C   0  0  0  0  0  0  0  0  0  0  0  0
    1.9933   -5.8553    5.0910 C   0  0  0  0  0  0  0  0  0  0  0  0
    1.6652   -7.3142    5.5002 C   0  0  2  0  0  0  0  0  0  0  0  0
    1.9387   -8.4560    4.4671 C   0  0  0  0  0  0  0  0  0  0  0  0
    0.8090   -8.8761    3.4594 C   0  0  0  0  0  0  0  0  0  0  0  0
    0.9405   -8.1651    2.0970 C   0  0  0  0  0  0  0  0  0  0  0  0
    0.9498  -10.4012    3.2208 C   0  0  0  0  0  0  0  0  0  0  0  0
   -0.6188   -8.6231    4.0039 C   0  0  0  0  0  0  0  0  0  0  0  0
   -0.7512   -7.3779    4.8762 C   0  0  0  0  0  0  0  0  0  0  0  0
    0.2352   -7.4196    6.0826 C   0  0  1  0  0  0  0  0  0  0  0  0
    0.1361   -8.7442    6.9191 C   0  0  0  0  0  0  0  0  0  0  0  0
   -0.0582   -6.2504    7.0716 C   0  0  0  0  0  0  0  0  0  0  0  0
    0.4140   -4.8581    6.6362 C   0  0  0  0  0  0  0  0  0  0  0  0
    1.9081   -4.8149    6.2304 C   0  0  2  0  0  0  0  0  0  0  0  0
    2.7911   -5.2857    7.4299 C   0  0  0  0  0  0  0  0  0  0  0  0
    4.4586    0.0005    3.3918 C   0  0  0  0  0  0  0  0  0  0  0  0
    4.3597    0.0526    1.8270 C   0  0  0  0  0  0  0  0  0  0  0  0
    5.9684    0.0779    3.7087 C   0  0  0  0  0  0  0  0  0  0  0  0
    2.3253    2.4837    8.0142 H   0  0  0  0  0  0  0  0  0  0  0  0
    2.6647    4.0314    7.2077 H   0  0  0  0  0  0  0  0  0  0  0  0
    4.0047    3.0191    7.7914 H   0  0  0  0  0  0  0  0  0  0  0  0
    5.0793    1.7362    5.7803 H   0  0  0  0  0  0  0  0  0  0  0  0
    3.8442    2.0929    3.3888 H   0  0  0  0  0  0  0  0  0  0  0  0
    1.7194    1.3909    3.1350 H   0  0  0  0  0  0  0  0  0  0  0  0
    0.9287    1.9040    5.7874 H   0  0  0  0  0  0  0  0  0  0  0  0
    1.5877    3.1487    4.7179 H   0  0  0  0  0  0  0  0  0  0  0  0
    1.9654   -0.3053    5.5774 H   0  0  0  0  0  0  0  0  0  0  0  0
   -0.0462    0.4817    4.8124 H   0  0  0  0  0  0  0  0  0  0  0  0
    2.4614   -1.9612    1.6277 H   0  0  0  0  0  0  0  0  0  0  0  0
    1.6473   -0.4439    1.9555 H   0  0  0  0  0  0  0  0  0  0  0  0
    0.8156   -1.9007    2.2474 H   0  0  0  0  0  0  0  0  0  0  0  0
    4.3343   -2.1110    3.2178 H   0  0  0  0  0  0  0  0  0  0  0  0
    5.4907   -1.8806    5.2782 H   0  0  0  0  0  0  0  0  0  0  0  0
    4.1858   -1.0107    6.0102 H   0  0  0  0  0  0  0  0  0  0  0  0
    4.3561   -3.9368    5.1571 H   0  0  0  0  0  0  0  0  0  0  0  0
    4.3411   -3.3145    6.7781 H   0  0  0  0  0  0  0  0  0  0  0  0
    0.8162   -2.0041    6.6699 H   0  0  0  0  0  0  0  0  0  0  0  0
    2.4557   -1.5118    7.1277 H   0  0  0  0  0  0  0  0  0  0  0  0
    1.7405   -2.8230    7.9003 H   0  0  0  0  0  0  0  0  0  0  0  0
    0.8004   -2.9524    4.3894 H   0  0  0  0  0  0  0  0  0  0  0  0
    1.6871   -4.0116    2.4660 H   0  0  0  0  0  0  0  0  0  0  0  0
    3.3524   -3.9316    3.0052 H   0  0  0  0  0  0  0  0  0  0  0  0
    2.3282   -6.2076    3.0437 H   0  0  0  0  0  0  0  0  0  0  0  0
    2.3648   -7.5401    6.2992 H   0  0  0  0  0  0  0  0  0  0  0  0
    2.8582   -8.2495    3.9167 H   0  0  0  0  0  0  0  0  0  0  0  0
    2.2014   -9.3330    5.0628 H   0  0  0  0  0  0  0  0  0  0  0  0
    0.2737   -8.6243    1.3773 H   0  0  0  0  0  0  0  0  0  0  0  0
    1.9459   -8.2516    1.6946 H   0  0  0  0  0  0  0  0  0  0  0  0
    0.6722   -7.1169    2.1513 H   0  0  0  0  0  0  0  0  0  0  0  0
    0.1965  -10.7857    2.5246 H   0  0  0  0  0  0  0  0  0  0  0  0
    0.8243  -10.9504    4.1623 H   0  0  0  0  0  0  0  0  0  0  0  0
    1.9350  -10.6545    2.8236 H   0  0  0  0  0  0  0  0  0  0  0  0
   -1.3319   -8.5598    3.1696 H   0  0  0  0  0  0  0  0  0  0  0  0
   -0.9546   -9.4553    4.5975 H   0  0  0  0  0  0  0  0  0  0  0  0
   -0.6117   -6.4818    4.2686 H   0  0  0  0  0  0  0  0  0  0  0  0
   -1.7789   -7.3263    5.2272 H   0  0  0  0  0  0  0  0  0  0  0  0
   -0.8574   -8.9418    7.3333 H   0  0  0  0  0  0  0  0  0  0  0  0
    0.8301   -8.7216    7.7666 H   0  0  0  0  0  0  0  0  0  0  0  0
    0.3882   -9.6375    6.3471 H   0  0  0  0  0  0  0  0  0  0  0  0
   -1.1249   -6.1285    7.2296 H   0  0  0  0  0  0  0  0  0  0  0  0
    0.3476   -6.4771    8.0605 H   0  0  0  0  0  0  0  0  0  0  0  0
   -0.2044   -4.5121    5.8099 H   0  0  0  0  0  0  0  0  0  0  0  0
    0.1790   -4.1958    7.4615 H   0  0  0  0  0  0  0  0  0  0  0  0
    2.8771   -4.5471    8.2214 H   0  0  0  0  0  0  0  0  0  0  0  0
    3.7994   -5.5303    7.0965 H   0  0  0  0  0  0  0  0  0  0  0  0
    2.4210   -6.1769    7.9224 H   0  0  0  0  0  0  0  0  0  0  0  0
    4.4994   -0.9323    1.3744 H   0  0  0  0  0  0  0  0  0  0  0  0
    5.1277    0.6434    1.3328 H   0  0  0  0  0  0  0  0  0  0  0  0
    3.4183    0.4837    1.4931 H   0  0  0  0  0  0  0  0  0  0  0  0
    6.4938   -0.7541    3.2507 H   0  0  0  0  0  0  0  0  0  0  0  0
    6.2117    0.0933    4.7719 H   0  0  0  0  0  0  0  0  0  0  0  0
    6.4195    0.9504    3.2776 H   0  0  0  0  0  0  0  0  0  0  0  0
  1  2  1  0
  1 36  1  0
  1 37  1  0
  1 38  1  0
  2  6  1  0
  2  3  2  0
  3  4  1  0
  3 39  1  0
  4 33  1  0
  4  5  1  0
  4 40  1  6
  5  6  1  0
  5  7  1  0
  5 41  1  6
  6 42  1  0
  6 43  1  0
  7  8  1  0
  7  9  1  0
  7 44  1  1
  8 45  1  0
  9 16  1  0
  9 10  1  6
  9 11  1  0
 10 46  1  0
 10 47  1  0
 10 48  1  0
 11 12  1  0
 11 33  1  0
 11 49  1  6
 12 13  1  0
 12 50  1  0
 12 51  1  0
 13 14  1  0
 13 52  1  0
 13 53  1  0
 14 31  1  0
 14 15  1  1
 14 16  1  0
 15 54  1  0
 15 55  1  0
 15 56  1  0
 16 17  1  0
 16 57  1  1
 17 18  1  0
 17 58  1  0
 17 59  1  0
 18 19  2  0
 18 60  1  0
 19 31  1  0
 19 20  1  0
 20 27  1  0
 20 21  1  0
 20 61  1  1
 21 22  1  0
 21 62  1  0
 21 63  1  0
 22 23  1  0
 22 24  1  0
 22 25  1  0
 23 64  1  0
 23 65  1  0
 23 66  1  0
 24 67  1  0
 24 68  1  0
 24 69  1  0
 25 26  1  0
 25 70  1  0
 25 71  1  0
 26 27  1  0
 26 72  1  0
 26 73  1  0
 27 28  1  1
 27 29  1  0
 28 74  1  0
 28 75  1  0
 28 76  1  0
 29 30  1  0
 29 77  1  0
 29 78  1  0
 30 31  1  0
 30 79  1  0
 30 80  1  0
 31 32  1  1
 32 81  1  0
 32 82  1  0
 32 83  1  0
 33 34  1  0
 33 35  1  0
 34 84  1  0
 34 85  1  0
 34 86  1  0
 35 87  1  0
 35 88  1  0
 35 89  1  0
M  END
>  <i_m_ct_stereo_status>  (201) 
1

>  <s_m_source_file>  (201) 
/var/tmp/pbs.5076255.sched01/tmppvoazpai/72cbyqjt17.sdf

>  <i_m_source_file_index>  (201) 
21

>  <i_lp_mmshare_version>  (201) 
48012

>  <i_f3d_flags>  (201) 
0

>  <s_epik_input>  (201) 
W0NIM11DKD1bQ0hdMSlbQ0gyXVtDQEhdKFtDQEhdMltPSF0pW0NAQEhdMUMoW0NIM10pKFtDSDNdKVtDQEhdKFtDQF0yM1tDSDNdKVtDSDJdW0NIMl1bQ0BAXTQoW0NIM10pW0NAQEhdM1tDSDJdW0NIXT1DNVtDQEhdNltDQF0oW0NIM10pKFtDSDJdW0NIMl1DKFtDSDJdNikoW0NIM10pW0NIM10pW0NIMl1bQ0gyXVtDQF00NVtDSDNd

>  <s_epik_cmdline>  (201) 
J2VwaWtfcHl0aG9uJywgJy1waHQnLCAnMi4wJywgJy1waCcsICc3LjAnLCAnLXRuJywgJzgnLCAnLW1hJywgJzIwMCcsICctaW1hZScsICc8aW5maWxlLm1hZT4nLCAnLW9tYWUnLCAnPG91dGZpbGUubWFlPic=

>  <r_lp_tautomer_probability>  (201) 
1

>  <r_epik_Ionization_Penalty>  (201) 
1.54977e-06

>  <r_epik_Ionization_Penalty_Charging>  (201) 
0

>  <r_epik_Ionization_Penalty_Neutral>  (201) 
1.54977e-06

>  <r_epik_State_Penalty>  (201) 
-0

>  <r_epik_Charging_Adjusted_Penalty>  (201) 
0

>  <i_epik_Tot_Q>  (201) 
0

>  <i_epik_Tot_abs_Q>  (201) 
0

>  <s_lp_Force_Field>  (201) 
OPLS3e

>  <r_lp_Energy>  (201) 
99.6716

>  <b_lp_Chiralities_Consistent>  (201) 
1

>  <s_lp_Variant>  (201) 
75:0-1

>  <s_i_glide_gridfile>  (201) 
pfpi4k_grid

>  <i_i_glide_lignum>  (201) 
21

>  <i_i_glide_rotatable_bonds>  (201) 
1

>  <r_i_docking_score>  (201) 
-1.23152

>  <r_i_glide_ligand_efficiency>  (201) 
-0.0351862

>  <r_i_glide_ligand_efficiency_sa>  (201) 
-0.115096

>  <r_i_glide_ligand_efficiency_ln>  (201) 
-0.270345

>  <r_i_glide_gscore>  (201) 
-1.23152

>  <r_i_glide_lipo>  (201) 
-0.309414

>  <r_i_glide_hbond>  (201) 
0

>  <r_i_glide_metal>  (201) 
-0

>  <r_i_glide_rewards>  (201) 
-0.1446

>  <r_i_glide_evdw>  (201) 
-16.7337

>  <r_i_glide_ecoul>  (201) 
0.394542

>  <r_i_glide_erotb>  (201) 
0

>  <r_i_glide_esite>  (201) 
0

>  <r_i_glide_emodel>  (201) 
-17.0023

>  <r_i_glide_energy>  (201) 
-16.3391

>  <r_i_glide_einternal>  (201) 
0.520285

>  <r_i_glide_intrahb_reward>  (201) 
-0

>  <i_i_glide_confnum>  (201) 
2

>  <i_i_glide_posenum>  (201) 
10

>  <r_i_glide_eff_state_penalty>  (201) 
0

>  <ligand_id>  (201) 
75

>  <original_smiles>  (201) 
CC1=CC2C(C1)C(O)C1(C)C(CCC3(C)C1CC=C1C4CC(C)(C)CCC4(C)CCC13C)C2(C)C

>  <smiles>  (201) 
[H]OC1([H])C2([H])C([H])([H])C(C([H])([H])[H])=C([H])C2([H])C(C([H])([H])[H])(C([H])([H])[H])C2([H])C([H])([H])C([H])([H])C3(C([H])([H])[H])C([H])(C([H])([H])C([H])=C4C5([H])C([H])([H])C(C([H])([H])[H])(C([H])([H])[H])C([H])([H])C([H])([H])C5(C([H])([H])[H])C([H])([H])C([H])([H])C43C([H])([H])[H])C12C([H])([H])[H]

$$$$
75:0:2
     RDKit          3D

 89 94  0  0  1  0  0  0  0  0999 V2000
    9.1696   -8.6118   12.2964 C   0  0  0  0  0  0  0  0  0  0  0  0
    8.8886   -9.4323   11.0409 C   0  0  0  0  0  0  0  0  0  0  0  0
    8.2584  -10.5933   10.9671 C   0  0  0  0  0  0  0  0  0  0  0  0
    8.2939  -11.1406    9.5442 C   0  0  2  0  0  0  0  0  0  0  0  0
    8.6312   -9.8817    8.6975 C   0  0  2  0  0  0  0  0  0  0  0  0
    9.3932   -8.9706    9.7006 C   0  0  0  0  0  0  0  0  0  0  0  0
    7.3569   -9.1383    8.2030 C   0  0  1  0  0  0  0  0  0  0  0  0
    7.7283   -8.0576    7.3598 O   0  0  0  0  0  0  0  0  0  0  0  0
    6.2597  -10.0119    7.5112 C   0  0  1  0  0  0  0  0  0  0  0  0
    6.8778  -10.5193    6.1738 C   0  0  0  0  0  0  0  0  0  0  0  0
    5.8914  -11.1880    8.4970 C   0  0  2  0  0  0  0  0  0  0  0  0
    4.9635  -10.6850    9.6351 C   0  0  0  0  0  0  0  0  0  0  0  0
    3.7145   -9.9059    9.1716 C   0  0  0  0  0  0  0  0  0  0  0  0
    4.0125   -8.6657    8.2775 C   0  0  1  0  0  0  0  0  0  0  0  0
    4.7461   -7.6083    9.1638 C   0  0  0  0  0  0  0  0  0  0  0  0
    4.9173   -9.2293    7.1144 C   0  0  2  0  0  0  0  0  0  0  0  0
    4.0522  -10.1257    6.1609 C   0  0  0  0  0  0  0  0  0  0  0  0
    2.6442   -9.6558    5.8843 C   0  0  0  0  0  0  0  0  0  0  0  0
    2.0219   -8.6581    6.5159 C   0  0  0  0  0  0  0  0  0  0  0  0
    0.6739   -8.0546    6.0364 C   0  0  2  0  0  0  0  0  0  0  0  0
   -0.1555   -8.8364    4.9749 C   0  0  0  0  0  0  0  0  0  0  0  0
    0.0588   -8.5533    3.4448 C   0  0  0  0  0  0  0  0  0  0  0  0
    1.0366   -9.5595    2.7881 C   0  0  0  0  0  0  0  0  0  0  0  0
   -1.3087   -8.7283    2.7449 C   0  0  0  0  0  0  0  0  0  0  0  0
    0.5363   -7.1051    3.1587 C   0  0  0  0  0  0  0  0  0  0  0  0
    1.4594   -6.5106    4.2281 C   0  0  0  0  0  0  0  0  0  0  0  0
    0.8343   -6.5667    5.6411 C   0  0  1  0  0  0  0  0  0  0  0  0
   -0.5427   -5.8564    5.6562 C   0  0  0  0  0  0  0  0  0  0  0  0
    1.7166   -5.7831    6.6468 C   0  0  0  0  0  0  0  0  0  0  0  0
    2.9651   -6.5146    7.1690 C   0  0  0  0  0  0  0  0  0  0  0  0
    2.6763   -7.9442    7.7210 C   0  0  2  0  0  0  0  0  0  0  0  0
    1.6460   -7.8591    8.8916 C   0  0  0  0  0  0  0  0  0  0  0  0
    7.1153  -12.0301    9.0348 C   0  0  0  0  0  0  0  0  0  0  0  0
    7.6852  -12.9469    7.9137 C   0  0  0  0  0  0  0  0  0  0  0  0
    6.6706  -13.0409   10.1217 C   0  0  0  0  0  0  0  0  0  0  0  0
    8.7192   -7.6246   12.2017 H   0  0  0  0  0  0  0  0  0  0  0  0
   10.2440   -8.4812   12.4269 H   0  0  0  0  0  0  0  0  0  0  0  0
    8.7721   -9.0973   13.1870 H   0  0  0  0  0  0  0  0  0  0  0  0
    7.8411  -11.1272   11.8041 H   0  0  0  0  0  0  0  0  0  0  0  0
    9.1809  -11.7755    9.5776 H   0  0  0  0  0  0  0  0  0  0  0  0
    9.2837  -10.1452    7.8645 H   0  0  0  0  0  0  0  0  0  0  0  0
    9.2096   -7.9004    9.5588 H   0  0  0  0  0  0  0  0  0  0  0  0
   10.4715   -9.1440    9.6600 H   0  0  0  0  0  0  0  0  0  0  0  0
    6.9619   -8.7089    9.1064 H   0  0  0  0  0  0  0  0  0  0  0  0
    8.0777   -8.4066    6.5633 H   0  0  0  0  0  0  0  0  0  0  0  0
    6.4123  -11.4397    5.8286 H   0  0  0  0  0  0  0  0  0  0  0  0
    7.9465  -10.6995    6.2223 H   0  0  0  0  0  0  0  0  0  0  0  0
    6.7662   -9.7825    5.3780 H   0  0  0  0  0  0  0  0  0  0  0  0
    5.2816  -11.9097    7.9566 H   0  0  0  0  0  0  0  0  0  0  0  0
    4.5731  -11.5323   10.1940 H   0  0  0  0  0  0  0  0  0  0  0  0
    5.5387  -10.1081   10.3527 H   0  0  0  0  0  0  0  0  0  0  0  0
    3.0578  -10.5938    8.6397 H   0  0  0  0  0  0  0  0  0  0  0  0
    3.1676   -9.6125   10.0682 H   0  0  0  0  0  0  0  0  0  0  0  0
    5.4439   -7.0075    8.5823 H   0  0  0  0  0  0  0  0  0  0  0  0
    5.2747   -8.0287   10.0133 H   0  0  0  0  0  0  0  0  0  0  0  0
    4.0760   -6.9047    9.6552 H   0  0  0  0  0  0  0  0  0  0  0  0
    5.2161   -8.3653    6.5218 H   0  0  0  0  0  0  0  0  0  0  0  0
    4.5185  -10.1844    5.1798 H   0  0  0  0  0  0  0  0  0  0  0  0
    3.9487  -11.1479    6.5168 H   0  0  0  0  0  0  0  0  0  0  0  0
    2.1671  -10.1774    5.0677 H   0  0  0  0  0  0  0  0  0  0  0  0
    0.0406   -8.1055    6.9113 H   0  0  0  0  0  0  0  0  0  0  0  0
   -0.0885   -9.8973    5.1575 H   0  0  0  0  0  0  0  0  0  0  0  0
   -1.2128   -8.6191    5.2056 H   0  0  0  0  0  0  0  0  0  0  0  0
    1.0094   -9.4909    1.7007 H   0  0  0  0  0  0  0  0  0  0  0  0
    0.7835  -10.5893    3.0355 H   0  0  0  0  0  0  0  0  0  0  0  0
    2.0684   -9.3791    3.0701 H   0  0  0  0  0  0  0  0  0  0  0  0
   -1.2539   -8.5516    1.6678 H   0  0  0  0  0  0  0  0  0  0  0  0
   -2.0409   -8.0247    3.1476 H   0  0  0  0  0  0  0  0  0  0  0  0
   -1.7158   -9.7312    2.8961 H   0  0  0  0  0  0  0  0  0  0  0  0
    1.0539   -7.0847    2.2073 H   0  0  0  0  0  0  0  0  0  0  0  0
   -0.3300   -6.4468    3.0263 H   0  0  0  0  0  0  0  0  0  0  0  0
    2.4060   -7.0471    4.2167 H   0  0  0  0  0  0  0  0  0  0  0  0
    1.7022   -5.4785    3.9551 H   0  0  0  0  0  0  0  0  0  0  0  0
   -0.4539   -4.8187    5.3272 H   0  0  0  0  0  0  0  0  0  0  0  0
   -0.9728   -5.8528    6.6582 H   0  0  0  0  0  0  0  0  0  0  0  0
   -1.2842   -6.3376    5.0189 H   0  0  0  0  0  0  0  0  0  0  0  0
    2.0378   -4.8539    6.1819 H   0  0  0  0  0  0  0  0  0  0  0  0
    1.1114   -5.4565    7.5011 H   0  0  0  0  0  0  0  0  0  0  0  0
    3.7018   -6.5740    6.3675 H   0  0  0  0  0  0  0  0  0  0  0  0
    3.4021   -5.8542    7.9154 H   0  0  0  0  0  0  0  0  0  0  0  0
    2.0693   -7.4876    9.8221 H   0  0  0  0  0  0  0  0  0  0  0  0
    1.2180   -8.8372    9.1077 H   0  0  0  0  0  0  0  0  0  0  0  0
    0.8015   -7.2078    8.6923 H   0  0  0  0  0  0  0  0  0  0  0  0
    6.9016  -13.3530    7.2736 H   0  0  0  0  0  0  0  0  0  0  0  0
    8.2339  -13.8020    8.3161 H   0  0  0  0  0  0  0  0  0  0  0  0
    8.4095  -12.4403    7.2778 H   0  0  0  0  0  0  0  0  0  0  0  0
    5.8626  -13.6751    9.7545 H   0  0  0  0  0  0  0  0  0  0  0  0
    6.3221  -12.5673   11.0349 H   0  0  0  0  0  0  0  0  0  0  0  0
    7.4870  -13.7035   10.4196 H   0  0  0  0  0  0  0  0  0  0  0  0
  1  2  1  0
  1 36  1  0
  1 37  1  0
  1 38  1  0
  2  6  1  0
  2  3  2  0
  3  4  1  0
  3 39  1  0
  4 33  1  0
  4  5  1  0
  4 40  1  1
  5  6  1  0
  5  7  1  0
  5 41  1  6
  6 42  1  0
  6 43  1  0
  7  8  1  0
  7  9  1  0
  7 44  1  1
  8 45  1  0
  9 16  1  0
  9 10  1  6
  9 11  1  0
 10 46  1  0
 10 47  1  0
 10 48  1  0
 11 12  1  0
 11 33  1  0
 11 49  1  6
 12 13  1  0
 12 50  1  0
 12 51  1  0
 13 14  1  0
 13 52  1  0
 13 53  1  0
 14 31  1  0
 14 15  1  1
 14 16  1  0
 15 54  1  0
 15 55  1  0
 15 56  1  0
 16 17  1  0
 16 57  1  6
 17 18  1  0
 17 58  1  0
 17 59  1  0
 18 19  2  0
 18 60  1  0
 19 31  1  0
 19 20  1  0
 20 27  1  0
 20 21  1  0
 20 61  1  1
 21 22  1  0
 21 62  1  0
 21 63  1  0
 22 23  1  0
 22 24  1  0
 22 25  1  0
 23 64  1  0
 23 65  1  0
 23 66  1  0
 24 67  1  0
 24 68  1  0
 24 69  1  0
 25 26  1  0
 25 70  1  0
 25 71  1  0
 26 27  1  0
 26 72  1  0
 26 73  1  0
 27 28  1  6
 27 29  1  0
 28 74  1  0
 28 75  1  0
 28 76  1  0
 29 30  1  0
 29 77  1  0
 29 78  1  0
 30 31  1  0
 30 79  1  0
 30 80  1  0
 31 32  1  1
 32 81  1  0
 32 82  1  0
 32 83  1  0
 33 34  1  0
 33 35  1  0
 34 84  1  0
 34 85  1  0
 34 86  1  0
 35 87  1  0
 35 88  1  0
 35 89  1  0
M  END
>  <i_m_ct_stereo_status>  (202) 
1

>  <s_m_source_file>  (202) 
/var/tmp/pbs.5076255.sched01/tmppvoazpai/72cbyqjt17.sdf

>  <i_m_source_file_index>  (202) 
21

>  <i_lp_mmshare_version>  (202) 
48012

>  <i_f3d_flags>  (202) 
0

>  <s_epik_input>  (202) 
W0NIM11DKD1bQ0hdMSlbQ0gyXVtDQEhdKFtDQEhdMltPSF0pW0NAQEhdMUMoW0NIM10pKFtDSDNdKVtDQEhdKFtDQF0yM1tDSDNdKVtDSDJdW0NIMl1bQ0BAXTQoW0NIM10pW0NAQEhdM1tDSDJdW0NIXT1DNVtDQEhdNltDQF0oW0NIM10pKFtDSDJdW0NIMl1DKFtDSDJdNikoW0NIM10pW0NIM10pW0NIMl1bQ0gyXVtDQF00NVtDSDNd

>  <s_epik_cmdline>  (202) 
J2VwaWtfcHl0aG9uJywgJy1waHQnLCAnMi4wJywgJy1waCcsICc3LjAnLCAnLXRuJywgJzgnLCAnLW1hJywgJzIwMCcsICctaW1hZScsICc8aW5maWxlLm1hZT4nLCAnLW9tYWUnLCAnPG91dGZpbGUubWFlPic=

>  <r_lp_tautomer_probability>  (202) 
1

>  <r_epik_Ionization_Penalty>  (202) 
1.54977e-06

>  <r_epik_Ionization_Penalty_Charging>  (202) 
0

>  <r_epik_Ionization_Penalty_Neutral>  (202) 
1.54977e-06

>  <r_epik_State_Penalty>  (202) 
-0

>  <r_epik_Charging_Adjusted_Penalty>  (202) 
0

>  <i_epik_Tot_Q>  (202) 
0

>  <i_epik_Tot_abs_Q>  (202) 
0

>  <s_lp_Force_Field>  (202) 
OPLS3e

>  <r_lp_Energy>  (202) 
99.6716

>  <b_lp_Chiralities_Consistent>  (202) 
1

>  <s_lp_Variant>  (202) 
75:0-1

>  <s_i_glide_gridfile>  (202) 
pfpi4k_grid

>  <i_i_glide_lignum>  (202) 
21

>  <i_i_glide_rotatable_bonds>  (202) 
1

>  <r_i_docking_score>  (202) 
-1.15182

>  <r_i_glide_ligand_efficiency>  (202) 
-0.0329092

>  <r_i_glide_ligand_efficiency_sa>  (202) 
-0.107648

>  <r_i_glide_ligand_efficiency_ln>  (202) 
-0.25285

>  <r_i_glide_gscore>  (202) 
-1.15182

>  <r_i_glide_lipo>  (202) 
-0.0537994

>  <r_i_glide_hbond>  (202) 
0

>  <r_i_glide_metal>  (202) 
-0

>  <r_i_glide_rewards>  (202) 
-0.1446

>  <r_i_glide_evdw>  (202) 
-19.2496

>  <r_i_glide_ecoul>  (202) 
0.0603953

>  <r_i_glide_erotb>  (202) 
0

>  <r_i_glide_esite>  (202) 
0

>  <r_i_glide_emodel>  (202) 
-20.5196

>  <r_i_glide_energy>  (202) 
-19.1892

>  <r_i_glide_einternal>  (202) 
0.0439184

>  <r_i_glide_intrahb_reward>  (202) 
-0

>  <i_i_glide_confnum>  (202) 
2

>  <i_i_glide_posenum>  (202) 
5

>  <r_i_glide_eff_state_penalty>  (202) 
0

>  <ligand_id>  (202) 
75

>  <original_smiles>  (202) 
CC1=CC2C(C1)C(O)C1(C)C(CCC3(C)C1CC=C1C4CC(C)(C)CCC4(C)CCC13C)C2(C)C

>  <smiles>  (202) 
[H]OC1([H])C2([H])C([H])([H])C(C([H])([H])[H])=C([H])C2([H])C(C([H])([H])[H])(C([H])([H])[H])C2([H])C([H])([H])C([H])([H])C3(C([H])([H])[H])C([H])(C([H])([H])C([H])=C4C5([H])C([H])([H])C(C([H])([H])[H])(C([H])([H])[H])C([H])([H])C([H])([H])C5(C([H])([H])[H])C([H])([H])C([H])([H])C43C([H])([H])[H])C12C([H])([H])[H]

$$$$
76:0:0
     RDKit          3D

 84 92  0  0  1  0  0  0  0  0999 V2000
    3.1887   -8.4453    2.0733 C   0  0  0  0  0  0  0  0  0  0  0  0
    2.4960   -7.5786    3.1482 C   0  0  2  0  0  0  0  0  0  0  0  0
    2.7943   -6.1180    2.9143 C   0  0  0  0  0  0  0  0  0  0  0  0
    3.2629   -5.3051    3.8666 C   0  0  0  0  0  0  0  0  0  0  0  0
    3.6264   -5.2307    5.2557 C   0  0  2  0  0  0  0  0  0  0  0  0
    2.6192   -5.8920    6.1647 C   0  0  1  0  0  0  0  0  0  0  0  0
    1.2473   -5.1300    6.1174 C   0  0  0  0  0  0  0  0  0  0  0  0
    1.3641   -3.6019    6.0805 C   0  0  0  0  0  0  0  0  0  0  0  0
    2.0108   -3.1611    4.7343 C   0  0  2  0  0  0  0  0  0  0  0  0
    3.2954   -3.9414    4.4139 C   0  0  2  0  0  0  0  0  0  0  0  0
    4.3146   -2.8864    4.0509 C   0  0  1  0  0  0  0  0  0  0  0  0
    3.9710   -2.2756    2.6985 C   0  0  1  0  0  0  0  0  0  0  0  0
    5.2009   -1.5218    2.5203 O   0  0  0  0  0  0  0  0  0  0  0  0
    4.4920   -1.7500    1.3570 C   0  0  2  0  0  0  0  0  0  0  0  0
    3.6546   -0.5604    1.0110 C   0  0  2  0  0  0  0  0  0  0  0  0
    3.8138    0.4914    1.9735 O   0  0  0  0  0  0  0  0  0  0  0  0
    2.6350   -0.3015    2.1099 C   0  0  1  0  0  0  0  0  0  0  0  0
    1.3125    0.3813    1.8282 C   0  0  0  0  0  0  0  0  0  0  0  0
    2.6462   -1.5617    2.9805 C   0  0  2  0  0  0  0  0  0  0  0  0
    2.5016   -1.6779    4.5485 C   0  0  1  0  0  0  0  0  0  0  0  0
    1.5897   -0.6241    5.1933 C   0  0  0  0  0  0  0  0  0  0  0  0
    3.9808   -1.7538    5.0751 C   0  0  0  0  0  0  0  0  0  0  0  0
    4.2011   -2.1719    6.5601 C   0  0  0  0  0  0  0  0  0  0  0  0
    4.7520   -0.4120    4.9801 C   0  0  0  0  0  0  0  0  0  0  0  0
    2.6635   -7.4798    6.0455 C   0  0  1  0  0  0  0  0  0  0  0  0
    4.0169   -7.8976    6.6908 C   0  0  0  0  0  0  0  0  0  0  0  0
    1.5895   -8.1583    6.9798 C   0  0  0  0  0  0  0  0  0  0  0  0
    1.4110   -9.5747    6.3673 C   0  0  1  0  0  0  0  0  0  0  0  0
    0.2116  -10.2331    6.7911 O   0  0  0  0  0  0  0  0  0  0  0  0
    1.5913   -9.4451    4.8179 C   0  0  1  0  0  0  0  0  0  0  0  0
    0.2556   -9.5407    3.9353 C   0  0  2  0  0  0  0  0  0  0  0  0
    0.4739  -10.1244    2.5278 C   0  0  0  0  0  0  0  0  0  0  0  0
   -0.5844   -8.2725    3.8667 N   0  0  0  0  0  0  0  0  0  0  0  0
   -2.0098   -8.4646    3.5263 C   0  0  0  0  0  0  0  0  0  0  0  0
   -0.5279   -7.4208    5.0071 C   0  0  0  0  0  0  0  0  0  0  0  0
    2.5932   -8.2341    4.6092 C   0  0  1  0  0  0  0  0  0  0  0  0
    4.2731   -8.3708    2.1168 H   0  0  0  0  0  0  0  0  0  0  0  0
    2.8524   -8.1677    1.0721 H   0  0  0  0  0  0  0  0  0  0  0  0
    2.9646   -9.5040    2.1962 H   0  0  0  0  0  0  0  0  0  0  0  0
    1.4610   -7.5235    2.8531 H   0  0  0  0  0  0  0  0  0  0  0  0
    2.4325   -5.6827    1.9971 H   0  0  0  0  0  0  0  0  0  0  0  0
    4.6754   -5.3826    5.5353 H   0  0  0  0  0  0  0  0  0  0  0  0
    2.9829   -5.6634    7.1639 H   0  0  0  0  0  0  0  0  0  0  0  0
    0.6910   -5.3258    5.2187 H   0  0  0  0  0  0  0  0  0  0  0  0
    0.6366   -5.4106    6.9773 H   0  0  0  0  0  0  0  0  0  0  0  0
    0.3559   -3.1811    6.1113 H   0  0  0  0  0  0  0  0  0  0  0  0
    1.8685   -3.2251    6.9765 H   0  0  0  0  0  0  0  0  0  0  0  0
    1.2794   -3.4289    3.9692 H   0  0  0  0  0  0  0  0  0  0  0  0
    5.3437   -3.2898    4.1025 H   0  0  0  0  0  0  0  0  0  0  0  0
    4.9767   -2.3852    0.6121 H   0  0  0  0  0  0  0  0  0  0  0  0
    3.4455   -0.2325   -0.0111 H   0  0  0  0  0  0  0  0  0  0  0  0
    0.6428   -0.2937    1.2948 H   0  0  0  0  0  0  0  0  0  0  0  0
    1.4592    1.2546    1.1927 H   0  0  0  0  0  0  0  0  0  0  0  0
    0.8198    0.7200    2.7405 H   0  0  0  0  0  0  0  0  0  0  0  0
    1.8467   -2.1377    2.5184 H   0  0  0  0  0  0  0  0  0  0  0  0
    1.9608    0.3822    5.0019 H   0  0  0  0  0  0  0  0  0  0  0  0
    1.5323   -0.7524    6.2755 H   0  0  0  0  0  0  0  0  0  0  0  0
    0.5770   -0.6902    4.7950 H   0  0  0  0  0  0  0  0  0  0  0  0
    3.6246   -1.5356    7.2312 H   0  0  0  0  0  0  0  0  0  0  0  0
    5.2500   -2.0592    6.8408 H   0  0  0  0  0  0  0  0  0  0  0  0
    3.9643   -3.2028    6.7990 H   0  0  0  0  0  0  0  0  0  0  0  0
    4.5531    0.2177    5.8446 H   0  0  0  0  0  0  0  0  0  0  0  0
    4.4895    0.1992    4.1295 H   0  0  0  0  0  0  0  0  0  0  0  0
    5.8309   -0.5733    4.9451 H   0  0  0  0  0  0  0  0  0  0  0  0
    4.1241   -8.9868    6.7647 H   0  0  0  0  0  0  0  0  0  0  0  0
    4.0967   -7.5202    7.7147 H   0  0  0  0  0  0  0  0  0  0  0  0
    4.8939   -7.5384    6.1349 H   0  0  0  0  0  0  0  0  0  0  0  0
    1.9171   -8.2151    8.0191 H   0  0  0  0  0  0  0  0  0  0  0  0
    0.6859   -7.6020    6.9822 H   0  0  0  0  0  0  0  0  0  0  0  0
    2.2147  -10.2098    6.7400 H   0  0  0  0  0  0  0  0  0  0  0  0
    0.4932  -11.1264    7.0859 H   0  0  0  0  0  0  0  0  0  0  0  0
    2.1453  -10.3445    4.5314 H   0  0  0  0  0  0  0  0  0  0  0  0
   -0.3719  -10.2713    4.4380 H   0  0  0  0  0  0  0  0  0  0  0  0
    1.1703  -10.9619    2.5487 H   0  0  0  0  0  0  0  0  0  0  0  0
    0.8547   -9.3768    1.8351 H   0  0  0  0  0  0  0  0  0  0  0  0
   -0.4554  -10.4733    2.0763 H   0  0  0  0  0  0  0  0  0  0  0  0
   -2.4693   -9.0490    4.3313 H   0  0  0  0  0  0  0  0  0  0  0  0
   -2.1499   -8.9165    2.5434 H   0  0  0  0  0  0  0  0  0  0  0  0
   -2.5001   -7.4801    3.5547 H   0  0  0  0  0  0  0  0  0  0  0  0
   -0.7882   -8.0433    5.8953 H   0  0  0  0  0  0  0  0  0  0  0  0
   -1.1132   -6.4902    4.9577 H   0  0  0  0  0  0  0  0  0  0  0  0
    0.5088   -7.1251    5.0380 H   0  0  0  0  0  0  0  0  0  0  0  0
    3.5771   -8.7142    4.5175 H   0  0  0  0  0  0  0  0  0  0  0  0
   -0.1471   -7.7335    3.0831 H   0  0  0  0  0  0  0  0  0  0  0  0
  1  2  1  0
  1 37  1  0
  1 38  1  0
  1 39  1  0
  2 36  1  0
  2  3  1  0
  2 40  1  6
  3  4  2  0
  3 41  1  0
 10  4  1  6
  4  5  1  0
  5 10  1  0
  5  6  1  0
  5 42  1  6
  6  7  1  0
  6 25  1  0
  6 43  1  1
  7  8  1  0
  7 44  1  0
  7 45  1  0
  8  9  1  0
  8 46  1  0
  8 47  1  0
  9 20  1  0
  9 10  1  0
  9 48  1  6
 10 11  1  0
 11 22  1  0
 11 12  1  0
 11 49  1  6
 12 14  1  0
 12 19  1  0
 12 13  1  6
 13 14  1  0
 14 15  1  0
 14 50  1  6
 15 17  1  0
 15 16  1  0
 15 51  1  6
 16 17  1  0
 17 18  1  6
 17 19  1  0
 18 52  1  0
 18 53  1  0
 18 54  1  0
 19 20  1  0
 19 55  1  6
 20 21  1  1
 20 22  1  0
 21 56  1  0
 21 57  1  0
 21 58  1  0
 22 23  1  0
 22 24  1  0
 23 59  1  0
 23 60  1  0
 23 61  1  0
 24 62  1  0
 24 63  1  0
 24 64  1  0
 25 36  1  0
 25 26  1  1
 25 27  1  0
 26 65  1  0
 26 66  1  0
 26 67  1  0
 27 28  1  0
 27 68  1  0
 27 69  1  0
 28 29  1  0
 28 30  1  0
 28 70  1  1
 29 71  1  0
 30 31  1  0
 30 36  1  0
 30 72  1  6
 31 32  1  0
 31 33  1  0
 31 73  1  1
 32 74  1  0
 32 75  1  0
 32 76  1  0
 33 34  1  0
 33 35  1  0
 33 84  1  0
 34 77  1  0
 34 78  1  0
 34 79  1  0
 35 80  1  0
 35 81  1  0
 35 82  1  0
 36 83  1  6
M  CHG  1  33   1
M  END
>  <i_m_ct_stereo_status>  (203) 
1

>  <s_m_source_file>  (203) 
/var/tmp/pbs.5076255.sched01/tmppvoazpai/72cbyqjt17.sdf

>  <i_m_source_file_index>  (203) 
22

>  <i_lp_mmshare_version>  (203) 
48012

>  <i_f3d_flags>  (203) 
0

>  <s_epik_input>  (203) 
W0NIM11OKFtDSDNdKVtDQEBIXShbQ0gzXSlbQ0BIXShbQ0BASF0oW0NIMl0xKVtPSF0pW0NAQEhdKFtDQEhdKFtDSDNdKVtDSF09MilbQ0BAXTEoW0NIM10pW0NAQEhdKFtDSF0zQzJDMzQ1KVtDSDJdW0NIMl1bQ0BIXTRbQ0BdNihbQ0gzXSlbQ0BASF03W0NAQF04KFtDQEhdNUM2KFtDSDNdKVtDSDNdKVtDQEhdKE84KVtDQEhdOVtDQEBdNyhPOSlbQ0gzXQ==

>  <s_epik_cmdline>  (203) 
J2VwaWtfcHl0aG9uJywgJy1waHQnLCAnMi4wJywgJy1waCcsICc3LjAnLCAnLXRuJywgJzgnLCAnLW1hJywgJzIwMCcsICctaW1hZScsICc8aW5maWxlLm1hZT4nLCAnLW9tYWUnLCAnPG91dGZpbGUubWFlPic=

>  <r_epik_Ionization_Penalty>  (203) 
0.00172612

>  <r_epik_Ionization_Penalty_Charging>  (203) 
0.00172602

>  <r_epik_Ionization_Penalty_Neutral>  (203) 
9.40525e-08

>  <r_epik_State_Penalty>  (203) 
0.00116735

>  <r_epik_Charging_Adjusted_Penalty>  (203) 
0.00289338

>  <i_epik_Tot_Q>  (203) 
1

>  <i_epik_Tot_abs_Q>  (203) 
1

>  <s_lp_Force_Field>  (203) 
OPLS3e

>  <r_lp_Energy>  (203) 
172.399

>  <b_lp_Chiralities_Consistent>  (203) 
1

>  <s_lp_Variant>  (203) 
76:0-1

>  <s_i_glide_gridfile>  (203) 
pfpi4k_grid

>  <i_i_glide_lignum>  (203) 
22

>  <i_i_glide_rotatable_bonds>  (203) 
3

>  <r_i_docking_score>  (203) 
-1.67699

>  <r_i_glide_ligand_efficiency>  (203) 
-0.046583

>  <r_i_glide_ligand_efficiency_sa>  (203) 
-0.153814

>  <r_i_glide_ligand_efficiency_ln>  (203) 
-0.365873

>  <r_i_glide_gscore>  (203) 
-1.67699

>  <r_i_glide_lipo>  (203) 
-0.210243

>  <r_i_glide_hbond>  (203) 
-0.16

>  <r_i_glide_metal>  (203) 
-0

>  <r_i_glide_rewards>  (203) 
-0.0359426

>  <r_i_glide_evdw>  (203) 
-15.7493

>  <r_i_glide_ecoul>  (203) 
-7.22948

>  <r_i_glide_erotb>  (203) 
0.0832685

>  <r_i_glide_esite>  (203) 
-0.0563486

>  <r_i_glide_emodel>  (203) 
-17.577

>  <r_i_glide_energy>  (203) 
-22.9788

>  <r_i_glide_einternal>  (203) 
7.19319

>  <r_i_glide_intrahb_reward>  (203) 
-0

>  <i_i_glide_confnum>  (203) 
3

>  <i_i_glide_posenum>  (203) 
5

>  <r_i_glide_eff_state_penalty>  (203) 
0

>  <ligand_id>  (203) 
76

>  <original_smiles>  (203) 
CC1C=C2C3C(CCC4C23C2C35OC3C3OC3(C)C5C4(C)C2(C)C)C2(C)CC(O)C(C(C)N(C)C)C12

>  <smiles>  (203) 
[H]OC1([H])C([H])([H])C2(C([H])([H])[H])C3([H])C([H])([H])C([H])([H])C4([H])C5(C(=C([H])C([H])(C([H])([H])[H])C2([H])C1([H])C([H])(C([H])([H])[H])[N+]([H])(C([H])([H])[H])C([H])([H])[H])C35[H])C1([H])C23OC2([H])C2([H])OC2(C([H])([H])[H])C3([H])C4(C([H])([H])[H])C1(C([H])([H])[H])C([H])([H])[H]

$$$$
76:0:1
     RDKit          3D

 84 92  0  0  1  0  0  0  0  0999 V2000
    5.1099   -7.6101    2.0552 C   0  0  0  0  0  0  0  0  0  0  0  0
    4.0049   -7.2075    2.9747 C   0  0  2  0  0  0  0  0  0  0  0  0
    3.6940   -5.7202    2.9993 C   0  0  0  0  0  0  0  0  0  0  0  0
    3.4693   -5.0756    4.1392 C   0  0  0  0  0  0  0  0  0  0  0  0
    3.3358   -5.2631    5.5551 C   0  0  2  0  0  0  0  0  0  0  0  0
    2.3857   -6.3756    5.9086 C   0  0  1  0  0  0  0  0  0  0  0  0
    0.9030   -6.0591    5.4928 C   0  0  0  0  0  0  0  0  0  0  0  0
    0.4884   -4.5827    5.6216 C   0  0  0  0  0  0  0  0  0  0  0  0
    1.3628   -3.6551    4.7289 C   0  0  2  0  0  0  0  0  0  0  0  0
    2.8553   -3.9484    4.8401 C   0  0  2  0  0  0  0  0  0  0  0  0
    3.5254   -2.6084    5.0262 C   0  0  1  0  0  0  0  0  0  0  0  0
    3.4306   -1.8288    3.7130 C   0  0  1  0  0  0  0  0  0  0  0  0
    4.3198   -0.7593    4.1264 O   0  0  0  0  0  0  0  0  0  0  0  0
    4.1292   -0.8412    2.7675 C   0  0  2  0  0  0  0  0  0  0  0  0
    3.1045    0.1564    2.3082 C   0  0  2  0  0  0  0  0  0  0  0  0
    2.5543    0.9746    3.3598 O   0  0  0  0  0  0  0  0  0  0  0  0
    1.7646   -0.1541    2.9533 C   0  0  1  0  0  0  0  0  0  0  0  0
    0.4501    0.1849    2.2562 C   0  0  0  0  0  0  0  0  0  0  0  0
    1.9273   -1.5628    3.5796 C   0  0  2  0  0  0  0  0  0  0  0  0
    1.3432   -2.0930    4.9485 C   0  0  1  0  0  0  0  0  0  0  0  0
   -0.0305   -1.5130    5.3239 C   0  0  0  0  0  0  0  0  0  0  0  0
    2.5119   -1.8838    5.9781 C   0  0  0  0  0  0  0  0  0  0  0  0
    2.3690   -2.5708    7.3708 C   0  0  0  0  0  0  0  0  0  0  0  0
    2.7584   -0.3955    6.3604 C   0  0  0  0  0  0  0  0  0  0  0  0
    3.0239   -7.7985    5.6194 C   0  0  1  0  0  0  0  0  0  0  0  0
    4.1154   -7.9922    6.6879 C   0  0  0  0  0  0  0  0  0  0  0  0
    2.0264   -8.9252    5.9298 C   0  0  0  0  0  0  0  0  0  0  0  0
    2.5039  -10.1772    5.1638 C   0  0  1  0  0  0  0  0  0  0  0  0
    1.5576  -11.2355    5.0684 O   0  0  0  0  0  0  0  0  0  0  0  0
    3.1319   -9.6373    3.8447 C   0  0  1  0  0  0  0  0  0  0  0  0
    2.2407   -9.8476    2.5510 C   0  0  2  0  0  0  0  0  0  0  0  0
    3.0552   -9.7848    1.2402 C   0  0  0  0  0  0  0  0  0  0  0  0
    0.9810   -8.9990    2.4705 N   0  0  0  0  0  0  0  0  0  0  0  0
   -0.0981   -9.3748    3.3726 C   0  0  0  0  0  0  0  0  0  0  0  0
    1.1132   -7.5435    2.4602 C   0  0  0  0  0  0  0  0  0  0  0  0
    3.6734   -8.1888    4.2017 C   0  0  1  0  0  0  0  0  0  0  0  0
    6.0147   -7.2789    2.5159 H   0  0  0  0  0  0  0  0  0  0  0  0
    4.9808   -7.1898    1.0450 H   0  0  0  0  0  0  0  0  0  0  0  0
    5.1665   -8.6880    1.9463 H   0  0  0  0  0  0  0  0  0  0  0  0
    3.3494   -7.4431    2.2312 H   0  0  0  0  0  0  0  0  0  0  0  0
    3.4882   -5.2134    2.0665 H   0  0  0  0  0  0  0  0  0  0  0  0
    4.2251   -5.1658    6.1796 H   0  0  0  0  0  0  0  0  0  0  0  0
    2.2862   -6.2933    6.9868 H   0  0  0  0  0  0  0  0  0  0  0  0
    0.6926   -6.2619    4.4837 H   0  0  0  0  0  0  0  0  0  0  0  0
    0.1994   -6.7100    6.0103 H   0  0  0  0  0  0  0  0  0  0  0  0
   -0.5661   -4.4651    5.3568 H   0  0  0  0  0  0  0  0  0  0  0  0
    0.5455   -4.3502    6.6679 H   0  0  0  0  0  0  0  0  0  0  0  0
    1.0506   -3.9138    3.7194 H   0  0  0  0  0  0  0  0  0  0  0  0
    4.5502   -2.6920    5.4225 H   0  0  0  0  0  0  0  0  0  0  0  0
    5.0245   -1.0833    2.1954 H   0  0  0  0  0  0  0  0  0  0  0  0
    3.1437    0.6171    1.3236 H   0  0  0  0  0  0  0  0  0  0  0  0
    0.2747   -0.5071    1.4347 H   0  0  0  0  0  0  0  0  0  0  0  0
    0.4690    1.1921    1.8266 H   0  0  0  0  0  0  0  0  0  0  0  0
   -0.4064    0.1374    2.9286 H   0  0  0  0  0  0  0  0  0  0  0  0
    1.5423   -2.1762    2.7629 H   0  0  0  0  0  0  0  0  0  0  0  0
    0.0114   -0.4275    5.4156 H   0  0  0  0  0  0  0  0  0  0  0  0
   -0.3836   -1.9123    6.2734 H   0  0  0  0  0  0  0  0  0  0  0  0
   -0.7784   -1.7508    4.5677 H   0  0  0  0  0  0  0  0  0  0  0  0
    1.4260   -2.3029    7.8480 H   0  0  0  0  0  0  0  0  0  0  0  0
    3.1628   -2.2537    8.0496 H   0  0  0  0  0  0  0  0  0  0  0  0
    2.4310   -3.6526    7.3731 H   0  0  0  0  0  0  0  0  0  0  0  0
    2.0906   -0.0697    7.1600 H   0  0  0  0  0  0  0  0  0  0  0  0
    2.5838    0.3105    5.5607 H   0  0  0  0  0  0  0  0  0  0  0  0
    3.7774   -0.2388    6.7185 H   0  0  0  0  0  0  0  0  0  0  0  0
    4.5509   -8.9879    6.6512 H   0  0  0  0  0  0  0  0  0  0  0  0
    3.7173   -7.8615    7.6932 H   0  0  0  0  0  0  0  0  0  0  0  0
    4.9243   -7.2851    6.5526 H   0  0  0  0  0  0  0  0  0  0  0  0
    1.8144   -9.1270    6.9747 H   0  0  0  0  0  0  0  0  0  0  0  0
    1.0755   -8.5330    5.7026 H   0  0  0  0  0  0  0  0  0  0  0  0
    3.2906  -10.6173    5.7719 H   0  0  0  0  0  0  0  0  0  0  0  0
    1.4143  -11.6099    5.9417 H   0  0  0  0  0  0  0  0  0  0  0  0
    4.0417  -10.2338    3.6987 H   0  0  0  0  0  0  0  0  0  0  0  0
    1.8682  -10.8780    2.5729 H   0  0  0  0  0  0  0  0  0  0  0  0
    4.0408  -10.2748    1.3111 H   0  0  0  0  0  0  0  0  0  0  0  0
    3.2579   -8.7948    0.8820 H   0  0  0  0  0  0  0  0  0  0  0  0
    2.5729  -10.2115    0.3778 H   0  0  0  0  0  0  0  0  0  0  0  0
    0.2296   -9.4174    4.3452 H   0  0  0  0  0  0  0  0  0  0  0  0
   -0.4364  -10.3944    3.2899 H   0  0  0  0  0  0  0  0  0  0  0  0
   -0.9099   -8.6476    3.4131 H   0  0  0  0  0  0  0  0  0  0  0  0
    1.6948   -7.3335    3.3314 H   0  0  0  0  0  0  0  0  0  0  0  0
    0.2465   -6.9320    2.5824 H   0  0  0  0  0  0  0  0  0  0  0  0
    1.5668   -7.1595    1.5543 H   0  0  0  0  0  0  0  0  0  0  0  0
    4.7130   -8.3456    4.4442 H   0  0  0  0  0  0  0  0  0  0  0  0
    0.5930   -9.1807    1.5440 H   0  0  0  0  0  0  0  0  0  0  0  0
  1  2  1  0
  1 37  1  0
  1 38  1  0
  1 39  1  0
  2 36  1  0
  2  3  1  0
  2 40  1  6
  3  4  2  0
  3 41  1  0
 10  4  1  6
  4  5  1  0
  5 10  1  0
  5  6  1  0
  5 42  1  1
  6  7  1  0
  6 25  1  0
  6 43  1  1
  7  8  1  0
  7 44  1  0
  7 45  1  0
  8  9  1  0
  8 46  1  0
  8 47  1  0
  9 20  1  0
  9 10  1  0
  9 48  1  6
 10 11  1  0
 11 22  1  0
 11 12  1  0
 11 49  1  1
 12 14  1  0
 12 19  1  0
 12 13  1  6
 13 14  1  0
 14 15  1  0
 14 50  1  6
 15 17  1  0
 15 16  1  0
 15 51  1  6
 16 17  1  0
 17 18  1  6
 17 19  1  0
 18 52  1  0
 18 53  1  0
 18 54  1  0
 19 20  1  0
 19 55  1  6
 20 21  1  1
 20 22  1  0
 21 56  1  0
 21 57  1  0
 21 58  1  0
 22 23  1  0
 22 24  1  0
 23 59  1  0
 23 60  1  0
 23 61  1  0
 24 62  1  0
 24 63  1  0
 24 64  1  0
 25 36  1  0
 25 26  1  1
 25 27  1  0
 26 65  1  0
 26 66  1  0
 26 67  1  0
 27 28  1  0
 27 68  1  0
 27 69  1  0
 28 29  1  0
 28 30  1  0
 28 70  1  1
 29 71  1  0
 30 31  1  0
 30 36  1  0
 30 72  1  6
 31 32  1  0
 31 33  1  0
 31 73  1  1
 32 74  1  0
 32 75  1  0
 32 76  1  0
 33 34  1  0
 33 35  1  0
 33 84  1  0
 34 77  1  0
 34 78  1  0
 34 79  1  0
 35 80  1  0
 35 81  1  0
 35 82  1  0
 36 83  1  1
M  CHG  1  33   1
M  END
>  <i_m_ct_stereo_status>  (204) 
1

>  <s_m_source_file>  (204) 
/var/tmp/pbs.5076255.sched01/tmppvoazpai/72cbyqjt17.sdf

>  <i_m_source_file_index>  (204) 
22

>  <i_lp_mmshare_version>  (204) 
48012

>  <i_f3d_flags>  (204) 
0

>  <s_epik_input>  (204) 
W0NIM11OKFtDSDNdKVtDQEBIXShbQ0gzXSlbQ0BIXShbQ0BASF0oW0NIMl0xKVtPSF0pW0NAQEhdKFtDQEhdKFtDSDNdKVtDSF09MilbQ0BAXTEoW0NIM10pW0NAQEhdKFtDSF0zQzJDMzQ1KVtDSDJdW0NIMl1bQ0BIXTRbQ0BdNihbQ0gzXSlbQ0BASF03W0NAQF04KFtDQEhdNUM2KFtDSDNdKVtDSDNdKVtDQEhdKE84KVtDQEhdOVtDQEBdNyhPOSlbQ0gzXQ==

>  <s_epik_cmdline>  (204) 
J2VwaWtfcHl0aG9uJywgJy1waHQnLCAnMi4wJywgJy1waCcsICc3LjAnLCAnLXRuJywgJzgnLCAnLW1hJywgJzIwMCcsICctaW1hZScsICc8aW5maWxlLm1hZT4nLCAnLW9tYWUnLCAnPG91dGZpbGUubWFlPic=

>  <r_epik_Ionization_Penalty>  (204) 
0.00172612

>  <r_epik_Ionization_Penalty_Charging>  (204) 
0.00172602

>  <r_epik_Ionization_Penalty_Neutral>  (204) 
9.40525e-08

>  <r_epik_State_Penalty>  (204) 
0.00116735

>  <r_epik_Charging_Adjusted_Penalty>  (204) 
0.00289338

>  <i_epik_Tot_Q>  (204) 
1

>  <i_epik_Tot_abs_Q>  (204) 
1

>  <s_lp_Force_Field>  (204) 
OPLS3e

>  <r_lp_Energy>  (204) 
172.399

>  <b_lp_Chiralities_Consistent>  (204) 
1

>  <s_lp_Variant>  (204) 
76:0-1

>  <s_i_glide_gridfile>  (204) 
pfpi4k_grid

>  <i_i_glide_lignum>  (204) 
22

>  <i_i_glide_rotatable_bonds>  (204) 
3

>  <r_i_docking_score>  (204) 
0.00362136

>  <r_i_glide_ligand_efficiency>  (204) 
0.000100593

>  <r_i_glide_ligand_efficiency_sa>  (204) 
0.000332152

>  <r_i_glide_ligand_efficiency_ln>  (204) 
0.000790082

>  <r_i_glide_gscore>  (204) 
0.00362136

>  <r_i_glide_lipo>  (204) 
-0.14453

>  <r_i_glide_hbond>  (204) 
-0.16

>  <r_i_glide_metal>  (204) 
-0

>  <r_i_glide_rewards>  (204) 
-0.0359426

>  <r_i_glide_evdw>  (204) 
-18.1221

>  <r_i_glide_ecoul>  (204) 
-6.44502

>  <r_i_glide_erotb>  (204) 
0.0832685

>  <r_i_glide_esite>  (204) 
0

>  <r_i_glide_emodel>  (204) 
-13.1296

>  <r_i_glide_energy>  (204) 
-24.5671

>  <r_i_glide_einternal>  (204) 
6.30539

>  <r_i_glide_intrahb_reward>  (204) 
-0

>  <i_i_glide_confnum>  (204) 
3

>  <i_i_glide_posenum>  (204) 
1

>  <r_i_glide_eff_state_penalty>  (204) 
0

>  <ligand_id>  (204) 
76

>  <original_smiles>  (204) 
CC1C=C2C3C(CCC4C23C2C35OC3C3OC3(C)C5C4(C)C2(C)C)C2(C)CC(O)C(C(C)N(C)C)C12

>  <smiles>  (204) 
[H]OC1([H])C([H])([H])C2(C([H])([H])[H])C3([H])C([H])([H])C([H])([H])C4([H])C5(C(=C([H])C([H])(C([H])([H])[H])C2([H])C1([H])C([H])(C([H])([H])[H])[N+]([H])(C([H])([H])[H])C([H])([H])[H])C35[H])C1([H])C23OC2([H])C2([H])OC2(C([H])([H])[H])C3([H])C4(C([H])([H])[H])C1(C([H])([H])[H])C([H])([H])[H]

$$$$
76:0:2
     RDKit          3D

 84 92  0  0  1  0  0  0  0  0999 V2000
   -0.5499    1.1950    7.1115 C   0  0  0  0  0  0  0  0  0  0  0  0
    0.1690    1.2051    5.7984 C   0  0  2  0  0  0  0  0  0  0  0  0
    0.6429   -0.1544    5.3107 C   0  0  0  0  0  0  0  0  0  0  0  0
    1.8367   -0.3104    4.7710 C   0  0  0  0  0  0  0  0  0  0  0  0
    3.0187    0.4017    4.3560 C   0  0  2  0  0  0  0  0  0  0  0  0
    2.6855    1.5972    3.4871 C   0  0  1  0  0  0  0  0  0  0  0  0
    2.0373    1.2033    2.1241 C   0  0  0  0  0  0  0  0  0  0  0  0
    2.6012   -0.0956    1.5069 C   0  0  0  0  0  0  0  0  0  0  0  0
    2.3646   -1.3299    2.4268 C   0  0  2  0  0  0  0  0  0  0  0  0
    2.7227   -1.0661    3.8844 C   0  0  2  0  0  0  0  0  0  0  0  0
    3.5458   -2.2566    4.3356 C   0  0  1  0  0  0  0  0  0  0  0  0
    2.6067   -3.4683    4.4239 C   0  0  1  0  0  0  0  0  0  0  0  0
    3.5896   -4.3218    5.0575 O   0  0  0  0  0  0  0  0  0  0  0  0
    2.2984   -4.7644    5.1856 C   0  0  2  0  0  0  0  0  0  0  0  0
    1.9893   -5.8308    4.1613 C   0  0  2  0  0  0  0  0  0  0  0  0
    3.0954   -6.1685    3.3098 O   0  0  0  0  0  0  0  0  0  0  0  0
    2.1322   -5.2554    2.7693 C   0  0  1  0  0  0  0  0  0  0  0  0
    1.2938   -5.7944    1.6045 C   0  0  0  0  0  0  0  0  0  0  0  0
    2.2212   -3.7169    2.9651 C   0  0  2  0  0  0  0  0  0  0  0  0
    3.1172   -2.6918    2.1678 C   0  0  1  0  0  0  0  0  0  0  0  0
    3.3231   -3.0412    0.6856 C   0  0  0  0  0  0  0  0  0  0  0  0
    4.4062   -2.5341    3.0493 C   0  0  0  0  0  0  0  0  0  0  0  0
    5.3719   -1.3646    2.6898 C   0  0  0  0  0  0  0  0  0  0  0  0
    5.3505   -3.7734    3.0187 C   0  0  0  0  0  0  0  0  0  0  0  0
    2.0572    2.7855    4.3221 C   0  0  1  0  0  0  0  0  0  0  0  0
    3.2309    3.3340    5.1866 C   0  0  0  0  0  0  0  0  0  0  0  0
    1.6277    3.9637    3.4031 C   0  0  0  0  0  0  0  0  0  0  0  0
    0.6751    4.8250    4.2295 C   0  0  1  0  0  0  0  0  0  0  0  0
   -0.0427    5.7676    3.4514 O   0  0  0  0  0  0  0  0  0  0  0  0
   -0.1633    3.8074    5.0628 C   0  0  1  0  0  0  0  0  0  0  0  0
   -1.6249    3.5310    4.5092 C   0  0  2  0  0  0  0  0  0  0  0  0
   -2.5623    2.9657    5.6112 C   0  0  0  0  0  0  0  0  0  0  0  0
   -1.6909    2.7405    3.2224 N   0  0  0  0  0  0  0  0  0  0  0  0
   -1.3580    1.3122    3.2729 C   0  0  0  0  0  0  0  0  0  0  0  0
   -2.9910    2.8091    2.5251 C   0  0  0  0  0  0  0  0  0  0  0  0
    0.8068    2.5771    5.3027 C   0  0  1  0  0  0  0  0  0  0  0  0
    0.2049    1.0312    7.8322 H   0  0  0  0  0  0  0  0  0  0  0  0
   -1.3316    0.4286    7.1561 H   0  0  0  0  0  0  0  0  0  0  0  0
   -1.0204    2.1448    7.3243 H   0  0  0  0  0  0  0  0  0  0  0  0
   -0.7546    1.1551    5.3846 H   0  0  0  0  0  0  0  0  0  0  0  0
   -0.0703   -0.9753    5.2552 H   0  0  0  0  0  0  0  0  0  0  0  0
    3.8341    0.5164    5.0715 H   0  0  0  0  0  0  0  0  0  0  0  0
    3.6644    1.9295    3.1549 H   0  0  0  0  0  0  0  0  0  0  0  0
    0.9899    1.0497    2.2111 H   0  0  0  0  0  0  0  0  0  0  0  0
    2.1064    2.0253    1.4158 H   0  0  0  0  0  0  0  0  0  0  0  0
    2.1814   -0.2722    0.5156 H   0  0  0  0  0  0  0  0  0  0  0  0
    3.6449    0.0823    1.3032 H   0  0  0  0  0  0  0  0  0  0  0  0
    1.2854   -1.4591    2.3700 H   0  0  0  0  0  0  0  0  0  0  0  0
    4.1262   -2.0623    5.2471 H   0  0  0  0  0  0  0  0  0  0  0  0
    1.9139   -4.7927    6.2028 H   0  0  0  0  0  0  0  0  0  0  0  0
    1.2819   -6.6287    4.3672 H   0  0  0  0  0  0  0  0  0  0  0  0
    0.2647   -5.4651    1.7101 H   0  0  0  0  0  0  0  0  0  0  0  0
    1.2745   -6.8880    1.5902 H   0  0  0  0  0  0  0  0  0  0  0  0
    1.6692   -5.4610    0.6361 H   0  0  0  0  0  0  0  0  0  0  0  0
    1.1692   -3.4528    2.8443 H   0  0  0  0  0  0  0  0  0  0  0  0
    3.8084   -4.0105    0.5725 H   0  0  0  0  0  0  0  0  0  0  0  0
    3.9481   -2.3017    0.1868 H   0  0  0  0  0  0  0  0  0  0  0  0
    2.3731   -3.0808    0.1530 H   0  0  0  0  0  0  0  0  0  0  0  0
    5.6734   -1.3985    1.6436 H   0  0  0  0  0  0  0  0  0  0  0  0
    6.2794   -1.4218    3.2755 H   0  0  0  0  0  0  0  0  0  0  0  0
    5.0060   -0.3647    2.8863 H   0  0  0  0  0  0  0  0  0  0  0  0
    6.0219   -3.7477    2.1577 H   0  0  0  0  0  0  0  0  0  0  0  0
    4.8447   -4.7234    2.9362 H   0  0  0  0  0  0  0  0  0  0  0  0
    5.9723   -3.8183    3.9113 H   0  0  0  0  0  0  0  0  0  0  0  0
    2.9585    4.2238    5.7528 H   0  0  0  0  0  0  0  0  0  0  0  0
    4.0958    3.6095    4.5819 H   0  0  0  0  0  0  0  0  0  0  0  0
    3.5699    2.6033    5.9183 H   0  0  0  0  0  0  0  0  0  0  0  0
    2.4767    4.5336    3.0184 H   0  0  0  0  0  0  0  0  0  0  0  0
    1.0923    3.6213    2.5221 H   0  0  0  0  0  0  0  0  0  0  0  0
    1.2698    5.4321    4.9127 H   0  0  0  0  0  0  0  0  0  0  0  0
    0.2781    5.7557    2.5528 H   0  0  0  0  0  0  0  0  0  0  0  0
   -0.2633    4.2699    6.0561 H   0  0  0  0  0  0  0  0  0  0  0  0
   -2.0548    4.5043    4.2526 H   0  0  0  0  0  0  0  0  0  0  0  0
   -2.4274    3.4205    6.5946 H   0  0  0  0  0  0  0  0  0  0  0  0
   -2.4508    1.9087    5.7632 H   0  0  0  0  0  0  0  0  0  0  0  0
   -3.6089    3.0340    5.3773 H   0  0  0  0  0  0  0  0  0  0  0  0
   -2.0096    0.7927    3.9838 H   0  0  0  0  0  0  0  0  0  0  0  0
   -0.3169    1.2579    3.5132 H   0  0  0  0  0  0  0  0  0  0  0  0
   -1.3770    0.7262    2.3852 H   0  0  0  0  0  0  0  0  0  0  0  0
   -3.8044    2.5337    3.1965 H   0  0  0  0  0  0  0  0  0  0  0  0
   -2.9981    2.1070    1.6841 H   0  0  0  0  0  0  0  0  0  0  0  0
   -3.1688    3.7955    2.1198 H   0  0  0  0  0  0  0  0  0  0  0  0
    1.2288    2.7690    6.2811 H   0  0  0  0  0  0  0  0  0  0  0  0
   -0.9963    3.1518    2.6173 H   0  0  0  0  0  0  0  0  0  0  0  0
  1  2  1  0
  1 37  1  0
  1 38  1  0
  1 39  1  0
  2 36  1  0
  2  3  1  0
  2 40  1  6
  3  4  2  0
  3 41  1  0
 10  4  1  1
  4  5  1  0
  5 10  1  0
  5  6  1  0
  5 42  1  1
  6  7  1  0
  6 25  1  0
  6 43  1  6
  7  8  1  0
  7 44  1  0
  7 45  1  0
  8  9  1  0
  8 46  1  0
  8 47  1  0
  9 20  1  0
  9 10  1  0
  9 48  1  1
 10 11  1  0
 11 22  1  0
 11 12  1  0
 11 49  1  1
 12 14  1  0
 12 19  1  0
 12 13  1  1
 13 14  1  0
 14 15  1  0
 14 50  1  1
 15 17  1  0
 15 16  1  0
 15 51  1  1
 16 17  1  0
 17 18  1  6
 17 19  1  0
 18 52  1  0
 18 53  1  0
 18 54  1  0
 19 20  1  0
 19 55  1  1
 20 21  1  6
 20 22  1  0
 21 56  1  0
 21 57  1  0
 21 58  1  0
 22 23  1  0
 22 24  1  0
 23 59  1  0
 23 60  1  0
 23 61  1  0
 24 62  1  0
 24 63  1  0
 24 64  1  0
 25 36  1  0
 25 26  1  1
 25 27  1  0
 26 65  1  0
 26 66  1  0
 26 67  1  0
 27 28  1  0
 27 68  1  0
 27 69  1  0
 28 29  1  0
 28 30  1  0
 28 70  1  1
 29 71  1  0
 30 31  1  0
 30 36  1  0
 30 72  1  1
 31 32  1  0
 31 33  1  0
 31 73  1  6
 32 74  1  0
 32 75  1  0
 32 76  1  0
 33 34  1  0
 33 35  1  0
 33 84  1  0
 34 77  1  0
 34 78  1  0
 34 79  1  0
 35 80  1  0
 35 81  1  0
 35 82  1  0
 36 83  1  1
M  CHG  1  33   1
M  END
>  <i_m_ct_stereo_status>  (205) 
1

>  <s_m_source_file>  (205) 
/var/tmp/pbs.5076255.sched01/tmppvoazpai/72cbyqjt17.sdf

>  <i_m_source_file_index>  (205) 
22

>  <i_lp_mmshare_version>  (205) 
48012

>  <i_f3d_flags>  (205) 
0

>  <s_epik_input>  (205) 
W0NIM11OKFtDSDNdKVtDQEBIXShbQ0gzXSlbQ0BIXShbQ0BASF0oW0NIMl0xKVtPSF0pW0NAQEhdKFtDQEhdKFtDSDNdKVtDSF09MilbQ0BAXTEoW0NIM10pW0NAQEhdKFtDSF0zQzJDMzQ1KVtDSDJdW0NIMl1bQ0BIXTRbQ0BdNihbQ0gzXSlbQ0BASF03W0NAQF04KFtDQEhdNUM2KFtDSDNdKVtDSDNdKVtDQEhdKE84KVtDQEhdOVtDQEBdNyhPOSlbQ0gzXQ==

>  <s_epik_cmdline>  (205) 
J2VwaWtfcHl0aG9uJywgJy1waHQnLCAnMi4wJywgJy1waCcsICc3LjAnLCAnLXRuJywgJzgnLCAnLW1hJywgJzIwMCcsICctaW1hZScsICc8aW5maWxlLm1hZT4nLCAnLW9tYWUnLCAnPG91dGZpbGUubWFlPic=

>  <r_epik_Ionization_Penalty>  (205) 
0.00172612

>  <r_epik_Ionization_Penalty_Charging>  (205) 
0.00172602

>  <r_epik_Ionization_Penalty_Neutral>  (205) 
9.40525e-08

>  <r_epik_State_Penalty>  (205) 
0.00116735

>  <r_epik_Charging_Adjusted_Penalty>  (205) 
0.00289338

>  <i_epik_Tot_Q>  (205) 
1

>  <i_epik_Tot_abs_Q>  (205) 
1

>  <s_lp_Force_Field>  (205) 
OPLS3e

>  <r_lp_Energy>  (205) 
172.399

>  <b_lp_Chiralities_Consistent>  (205) 
1

>  <s_lp_Variant>  (205) 
76:0-1

>  <s_i_glide_gridfile>  (205) 
pfpi4k_grid

>  <i_i_glide_lignum>  (205) 
22

>  <i_i_glide_rotatable_bonds>  (205) 
3

>  <r_i_docking_score>  (205) 
0.010202

>  <r_i_glide_ligand_efficiency>  (205) 
0.000283388

>  <r_i_glide_ligand_efficiency_sa>  (205) 
0.000935726

>  <r_i_glide_ligand_efficiency_ln>  (205) 
0.00222579

>  <r_i_glide_gscore>  (205) 
0.010202

>  <r_i_glide_lipo>  (205) 
-0.204817

>  <r_i_glide_hbond>  (205) 
-0.0498508

>  <r_i_glide_metal>  (205) 
-0

>  <r_i_glide_rewards>  (205) 
-0.0359426

>  <r_i_glide_evdw>  (205) 
-20.1997

>  <r_i_glide_ecoul>  (205) 
-4.89063

>  <r_i_glide_erotb>  (205) 
0.0832685

>  <r_i_glide_esite>  (205) 
-0.047793

>  <r_i_glide_emodel>  (205) 
-13.3013

>  <r_i_glide_energy>  (205) 
-25.0904

>  <r_i_glide_einternal>  (205) 
7.4825

>  <r_i_glide_intrahb_reward>  (205) 
-0

>  <i_i_glide_confnum>  (205) 
2

>  <i_i_glide_posenum>  (205) 
23

>  <r_i_glide_eff_state_penalty>  (205) 
0

>  <ligand_id>  (205) 
76

>  <original_smiles>  (205) 
CC1C=C2C3C(CCC4C23C2C35OC3C3OC3(C)C5C4(C)C2(C)C)C2(C)CC(O)C(C(C)N(C)C)C12

>  <smiles>  (205) 
[H]OC1([H])C([H])([H])C2(C([H])([H])[H])C3([H])C([H])([H])C([H])([H])C4([H])C5(C(=C([H])C([H])(C([H])([H])[H])C2([H])C1([H])C([H])(C([H])([H])[H])[N+]([H])(C([H])([H])[H])C([H])([H])[H])C35[H])C1([H])C23OC2([H])C2([H])OC2(C([H])([H])[H])C3([H])C4(C([H])([H])[H])C1(C([H])([H])[H])C([H])([H])[H]

$$$$
77:0:0
     RDKit          3D

 76 81  0  0  1  0  0  0  0  0999 V2000
    5.0975   -4.2791   -1.4425 C   0  0  0  0  0  0  0  0  0  0  0  0
    4.1189   -3.8042   -0.5242 O   0  0  0  0  0  0  0  0  0  0  0  0
    4.5339   -3.7891    0.8410 C   0  0  2  0  0  0  0  0  0  0  0  0
    4.4498   -5.2572    1.3502 C   0  0  0  0  0  0  0  0  0  0  0  0
    3.4097   -5.4429    2.4623 C   0  0  1  0  0  0  0  0  0  0  0  0
    3.1909   -6.8778    3.0354 C   0  0  2  0  0  0  0  0  0  0  0  0
    2.5519   -7.8925    2.0292 C   0  0  1  0  0  0  0  0  0  0  0  0
    3.5995   -8.6508    1.1780 C   0  0  0  0  0  0  0  0  0  0  0  0
    1.6062   -8.9052    2.6535 C   0  0  1  0  0  0  0  0  0  0  0  0
    2.1423  -10.0561    3.5074 C   0  0  0  0  0  0  0  0  0  0  0  0
    1.0453   -9.7959    4.5226 C   0  0  0  0  0  0  0  0  0  0  0  0
    0.6396   -8.4862    3.8026 C   0  0  2  0  0  0  0  0  0  0  0  0
   -0.8646   -8.3310    3.4130 C   0  0  1  0  0  0  0  0  0  0  0  0
   -1.4142   -9.2067    2.2702 C   0  0  0  0  0  0  0  0  0  0  0  0
   -1.6854   -8.5648    4.5299 O   0  0  0  0  0  0  0  0  0  0  0  0
   -1.0058   -7.0145    2.9987 O   0  0  0  0  0  0  0  0  0  0  0  0
    0.0137   -6.2094    3.5784 C   0  0  0  0  0  0  0  0  0  0  0  0
    0.9256   -7.1008    4.4405 C   0  0  1  0  0  0  0  0  0  0  0  0
    0.4252   -6.9935    5.9113 C   0  0  0  0  0  0  0  0  0  0  0  0
    2.4631   -6.6408    4.4140 C   0  0  1  0  0  0  0  0  0  0  0  0
    3.2925   -7.3882    5.5122 C   0  0  0  0  0  0  0  0  0  0  0  0
    2.6187   -5.0771    4.6412 C   0  0  1  0  0  0  0  0  0  0  0  0
    2.8757   -4.7259    5.9913 O   0  0  0  0  0  0  0  0  0  0  0  0
    3.7006   -4.5046    3.6547 C   0  0  1  0  0  0  0  0  0  0  0  0
    4.9538   -4.9157    4.1939 O   0  0  0  0  0  0  0  0  0  0  0  0
    3.7566   -2.9462    3.2177 C   0  0  2  0  0  0  0  0  0  0  0  0
    5.1271   -2.3115    3.6261 C   0  0  0  0  0  0  0  0  0  0  0  0
    2.6999   -2.0021    3.8695 C   0  0  0  0  0  0  0  0  0  0  0  0
    2.0473   -2.2838    4.8709 O   0  0  0  0  0  0  0  0  0  0  0  0
    2.5160   -0.5829    3.3144 C   0  0  0  0  0  0  0  0  0  0  0  0
    3.1331   -0.3730    1.9385 C   0  0  0  0  0  0  0  0  0  0  0  0
    3.6439   -1.3413    1.1723 C   0  0  0  0  0  0  0  0  0  0  0  0
    4.2170   -0.9869   -0.1930 C   0  0  0  0  0  0  0  0  0  0  0  0
    3.6102   -2.8101    1.6444 C   0  0  1  0  0  0  0  0  0  0  0  0
    4.7044   -4.2489   -2.4542 H   0  0  0  0  0  0  0  0  0  0  0  0
    5.3815   -5.3112   -1.2267 H   0  0  0  0  0  0  0  0  0  0  0  0
    6.0024   -3.6642   -1.4129 H   0  0  0  0  0  0  0  0  0  0  0  0
    5.5575   -3.4439    0.9037 H   0  0  0  0  0  0  0  0  0  0  0  0
    4.1702   -5.8992    0.5264 H   0  0  0  0  0  0  0  0  0  0  0  0
    5.4369   -5.5915    1.6774 H   0  0  0  0  0  0  0  0  0  0  0  0
    2.4503   -5.1509    2.0320 H   0  0  0  0  0  0  0  0  0  0  0  0
    4.1884   -7.2686    3.2509 H   0  0  0  0  0  0  0  0  0  0  0  0
    1.9594   -7.3052    1.3290 H   0  0  0  0  0  0  0  0  0  0  0  0
    4.2530   -9.2690    1.7905 H   0  0  0  0  0  0  0  0  0  0  0  0
    4.2364   -8.0032    0.5819 H   0  0  0  0  0  0  0  0  0  0  0  0
    3.0986   -9.3273    0.4804 H   0  0  0  0  0  0  0  0  0  0  0  0
    1.0501   -9.4037    1.8516 H   0  0  0  0  0  0  0  0  0  0  0  0
    2.0745  -11.0288    3.0272 H   0  0  0  0  0  0  0  0  0  0  0  0
    3.1561   -9.8872    3.8733 H   0  0  0  0  0  0  0  0  0  0  0  0
    0.2724  -10.5615    4.4930 H   0  0  0  0  0  0  0  0  0  0  0  0
    1.4122   -9.6793    5.5381 H   0  0  0  0  0  0  0  0  0  0  0  0
   -2.4999   -9.1189    2.2248 H   0  0  0  0  0  0  0  0  0  0  0  0
   -1.1577  -10.2717    2.4155 H   0  0  0  0  0  0  0  0  0  0  0  0
   -1.0307   -8.8551    1.3201 H   0  0  0  0  0  0  0  0  0  0  0  0
   -1.7927   -9.5361    4.6330 H   0  0  0  0  0  0  0  0  0  0  0  0
    0.5343   -5.7687    2.7295 H   0  0  0  0  0  0  0  0  0  0  0  0
   -0.4367   -5.3956    4.1527 H   0  0  0  0  0  0  0  0  0  0  0  0
    0.7462   -6.0806    6.3968 H   0  0  0  0  0  0  0  0  0  0  0  0
    0.7281   -7.8272    6.5392 H   0  0  0  0  0  0  0  0  0  0  0  0
   -0.6561   -6.9395    5.9629 H   0  0  0  0  0  0  0  0  0  0  0  0
    2.9398   -7.1968    6.5196 H   0  0  0  0  0  0  0  0  0  0  0  0
    4.3451   -7.0866    5.5066 H   0  0  0  0  0  0  0  0  0  0  0  0
    3.2952   -8.4630    5.4006 H   0  0  0  0  0  0  0  0  0  0  0  0
    1.6846   -4.5998    4.3830 H   0  0  0  0  0  0  0  0  0  0  0  0
    3.7091   -5.0987    6.2345 H   0  0  0  0  0  0  0  0  0  0  0  0
    5.6081   -4.8150    3.5226 H   0  0  0  0  0  0  0  0  0  0  0  0
    5.9631   -2.7508    3.0814 H   0  0  0  0  0  0  0  0  0  0  0  0
    5.3250   -2.4146    4.6903 H   0  0  0  0  0  0  0  0  0  0  0  0
    5.1882   -1.2352    3.4211 H   0  0  0  0  0  0  0  0  0  0  0  0
    1.4600   -0.3461    3.2690 H   0  0  0  0  0  0  0  0  0  0  0  0
    2.9744    0.1202    4.0069 H   0  0  0  0  0  0  0  0  0  0  0  0
    3.1270    0.6567    1.5905 H   0  0  0  0  0  0  0  0  0  0  0  0
    3.6204   -1.4176   -0.9935 H   0  0  0  0  0  0  0  0  0  0  0  0
    5.2526   -1.3260   -0.2893 H   0  0  0  0  0  0  0  0  0  0  0  0
    4.2214    0.0963   -0.3339 H   0  0  0  0  0  0  0  0  0  0  0  0
    2.5887   -3.0954    1.3870 H   0  0  0  0  0  0  0  0  0  0  0  0
  1  2  1  0
  1 35  1  0
  1 36  1  0
  1 37  1  0
  2  3  1  0
  3 34  1  0
  3  4  1  0
  3 38  1  6
  4  5  1  0
  4 39  1  0
  4 40  1  0
  5 24  1  0
  5  6  1  0
  5 41  1  6
  6 20  1  0
  6  7  1  0
  6 42  1  1
  7  8  1  0
  7  9  1  0
  7 43  1  6
  8 44  1  0
  8 45  1  0
  8 46  1  0
  9 12  1  0
  9 10  1  0
  9 47  1  6
 10 11  1  0
 10 48  1  0
 10 49  1  0
 12 11  1  1
 11 50  1  0
 11 51  1  0
 12 18  1  0
 12 13  1  0
 13 14  1  0
 13 15  1  1
 13 16  1  0
 14 52  1  0
 14 53  1  0
 14 54  1  0
 15 55  1  0
 16 17  1  0
 17 18  1  0
 17 56  1  0
 17 57  1  0
 18 19  1  1
 18 20  1  0
 19 58  1  0
 19 59  1  0
 19 60  1  0
 20 21  1  1
 20 22  1  0
 21 61  1  0
 21 62  1  0
 21 63  1  0
 22 23  1  0
 22 24  1  0
 22 64  1  6
 23 65  1  0
 24 25  1  1
 24 26  1  0
 25 66  1  0
 26 34  1  0
 26 27  1  1
 26 28  1  0
 27 67  1  0
 27 68  1  0
 27 69  1  0
 28 29  2  0
 28 30  1  0
 30 31  1  0
 30 70  1  0
 30 71  1  0
 31 32  2  0
 31 72  1  0
 32 33  1  0
 32 34  1  0
 33 73  1  0
 33 74  1  0
 33 75  1  0
 34 76  1  1
M  END
>  <i_m_ct_stereo_status>  (206) 
1

>  <s_m_source_file>  (206) 
/var/tmp/pbs.5076255.sched01/tmppvoazpai/72cbyqjt17.sdf

>  <i_m_source_file_index>  (206) 
23

>  <i_lp_mmshare_version>  (206) 
48012

>  <i_f3d_flags>  (206) 
0

>  <s_epik_input>  (206) 
Tz1DMVtDSDJdW0NIXT1DKFtDSDNdKVtDQEBIXShbQ0BASF0oW0NIMl0yKU9bQ0gzXSlbQ0BdMShbQ0gzXSlbQ0BdKFtPSF0pKFtDQEBIXTJbQ0BASF0zW0NAQEhdKFtDSDNdKVtDQEhdKFtDQF00NTYpW0NIMl1bQ0gyXTQpW0NASF0oW09IXSlbQ0BAXTMoW0NIM10pW0NAQF02KFtDSDNdKVtDSDJdT1tDQF01KFtDSDNdKVtPSF0=

>  <s_epik_cmdline>  (206) 
J2VwaWtfcHl0aG9uJywgJy1waHQnLCAnMi4wJywgJy1waCcsICc3LjAnLCAnLXRuJywgJzgnLCAnLW1hJywgJzIwMCcsICctaW1hZScsICc8aW5maWxlLm1hZT4nLCAnLW9tYWUnLCAnPG91dGZpbGUubWFlPic=

>  <r_lp_tautomer_probability>  (206) 
1

>  <r_epik_Ionization_Penalty>  (206) 
2.04863e-07

>  <r_epik_Ionization_Penalty_Charging>  (206) 
0

>  <r_epik_Ionization_Penalty_Neutral>  (206) 
2.04863e-07

>  <r_epik_State_Penalty>  (206) 
-0

>  <r_epik_Charging_Adjusted_Penalty>  (206) 
0

>  <i_epik_Tot_Q>  (206) 
0

>  <i_epik_Tot_abs_Q>  (206) 
0

>  <s_lp_Force_Field>  (206) 
OPLS3e

>  <r_lp_Energy>  (206) 
86.9426

>  <b_lp_Chiralities_Consistent>  (206) 
1

>  <s_lp_Variant>  (206) 
77:0-1

>  <s_i_glide_gridfile>  (206) 
pfpi4k_grid

>  <i_i_glide_lignum>  (206) 
23

>  <i_i_glide_rotatable_bonds>  (206) 
4

>  <r_i_docking_score>  (206) 
-3.06614

>  <r_i_glide_ligand_efficiency>  (206) 
-0.0901806

>  <r_i_glide_ligand_efficiency_sa>  (206) 
-0.29215

>  <r_i_glide_ligand_efficiency_ln>  (206) 
-0.677396

>  <r_i_glide_gscore>  (206) 
-3.06614

>  <r_i_glide_lipo>  (206) 
-0.369897

>  <r_i_glide_hbond>  (206) 
-0.16

>  <r_i_glide_metal>  (206) 
-0

>  <r_i_glide_rewards>  (206) 
-0.172981

>  <r_i_glide_evdw>  (206) 
-22.4042

>  <r_i_glide_ecoul>  (206) 
-7.90827

>  <r_i_glide_erotb>  (206) 
0

>  <r_i_glide_esite>  (206) 
-0.056813

>  <r_i_glide_emodel>  (206) 
-35.9028

>  <r_i_glide_energy>  (206) 
-30.3124

>  <r_i_glide_einternal>  (206) 
1.79823

>  <r_i_glide_intrahb_reward>  (206) 
-0

>  <i_i_glide_confnum>  (206) 
2

>  <i_i_glide_posenum>  (206) 
1

>  <r_i_glide_eff_state_penalty>  (206) 
0

>  <ligand_id>  (206) 
77

>  <original_smiles>  (206) 
COC1CC2C3C(C)C4CCC45C(C)(O)OCC5(C)C3(C)C(O)C2(O)C2(C)C(=O)CC=C(C)C12

>  <smiles>  (206) 
[H]OC1([H])C2(O[H])C([H])(C([H])([H])C([H])(OC([H])([H])[H])C3([H])C(C([H])([H])[H])=C([H])C([H])([H])C(=O)C32C([H])([H])[H])C2([H])C([H])(C([H])([H])[H])C3([H])C([H])([H])C([H])([H])C34C(O[H])(C([H])([H])[H])OC([H])([H])C4(C([H])([H])[H])C12C([H])([H])[H]

$$$$
77:0:1
     RDKit          3D

 76 81  0  0  1  0  0  0  0  0999 V2000
    5.0137   -4.2681   -1.6352 C   0  0  0  0  0  0  0  0  0  0  0  0
    4.0764   -3.8431   -0.6534 O   0  0  0  0  0  0  0  0  0  0  0  0
    4.5812   -3.8329    0.6792 C   0  0  2  0  0  0  0  0  0  0  0  0
    4.5169   -5.2959    1.1871 C   0  0  0  0  0  0  0  0  0  0  0  0
    3.5521   -5.4766    2.3676 C   0  0  1  0  0  0  0  0  0  0  0  0
    3.3514   -6.9059    2.9564 C   0  0  2  0  0  0  0  0  0  0  0  0
    2.6388   -7.9127    1.9915 C   0  0  1  0  0  0  0  0  0  0  0  0
    3.6299   -8.6879    1.0872 C   0  0  0  0  0  0  0  0  0  0  0  0
    1.7261   -8.9201    2.6827 C   0  0  1  0  0  0  0  0  0  0  0  0
    2.3092  -10.0754    3.4986 C   0  0  0  0  0  0  0  0  0  0  0  0
    1.2792   -9.8027    4.5782 C   0  0  0  0  0  0  0  0  0  0  0  0
    0.8377   -8.4939    3.8852 C   0  0  2  0  0  0  0  0  0  0  0  0
   -0.6897   -8.3523    3.6131 C   0  0  1  0  0  0  0  0  0  0  0  0
   -1.3113   -9.2092    2.4861 C   0  0  0  0  0  0  0  0  0  0  0  0
   -1.4096   -8.6392    4.7951 O   0  0  0  0  0  0  0  0  0  0  0  0
   -0.8791   -7.0248    3.2345 O   0  0  0  0  0  0  0  0  0  0  0  0
    0.1985   -6.2112    3.6953 C   0  0  0  0  0  0  0  0  0  0  0  0
    1.1673   -7.1047    4.4984 C   0  0  1  0  0  0  0  0  0  0  0  0
    0.7483   -6.9981    5.9975 C   0  0  0  0  0  0  0  0  0  0  0  0
    2.7074   -6.6567    4.3722 C   0  0  1  0  0  0  0  0  0  0  0  0
    3.5936   -7.4091    5.4212 C   0  0  0  0  0  0  0  0  0  0  0  0
    2.8918   -5.0950    4.5848 C   0  0  1  0  0  0  0  0  0  0  0  0
    3.2244   -4.7509    5.9234 O   0  0  0  0  0  0  0  0  0  0  0  0
    3.9134   -4.5374    3.5370 C   0  0  1  0  0  0  0  0  0  0  0  0
    5.1923   -4.9422    4.0185 O   0  0  0  0  0  0  0  0  0  0  0  0
    3.9545   -2.9793    3.0868 C   0  0  2  0  0  0  0  0  0  0  0  0
    5.3530   -2.3563    3.4093 C   0  0  0  0  0  0  0  0  0  0  0  0
    2.9507   -2.0210    3.7986 C   0  0  0  0  0  0  0  0  0  0  0  0
    2.3573   -2.2971    4.8371 O   0  0  0  0  0  0  0  0  0  0  0  0
    2.7420   -0.6038    3.2572 C   0  0  0  0  0  0  0  0  0  0  0  0
    3.2728   -0.4001    1.8515 C   0  0  0  0  0  0  0  0  0  0  0  0
    3.7302   -1.3840    1.0513 C   0  0  0  0  0  0  0  0  0  0  0  0
    4.2218   -1.0378   -0.3436 C   0  0  0  0  0  0  0  0  0  0  0  0
    3.7093   -2.8475    1.5291 C   0  0  1  0  0  0  0  0  0  0  0  0
    4.5647   -4.2447   -2.6290 H   0  0  0  0  0  0  0  0  0  0  0  0
    5.3329   -5.2902   -1.4473 H   0  0  0  0  0  0  0  0  0  0  0  0
    5.8942   -3.6270   -1.6522 H   0  0  0  0  0  0  0  0  0  0  0  0
    5.6163   -3.4939    0.6863 H   0  0  0  0  0  0  0  0  0  0  0  0
    4.1816   -5.9349    0.3748 H   0  0  0  0  0  0  0  0  0  0  0  0
    5.5156   -5.6300    1.4711 H   0  0  0  0  0  0  0  0  0  0  0  0
    2.5715   -5.1809    2.0021 H   0  0  0  0  0  0  0  0  0  0  0  0
    4.3533   -7.3135    3.1152 H   0  0  0  0  0  0  0  0  0  0  0  0
    2.0059   -7.3205    1.3264 H   0  0  0  0  0  0  0  0  0  0  0  0
    4.3130   -9.3098    1.6628 H   0  0  0  0  0  0  0  0  0  0  0  0
    4.2297   -8.0493    0.4484 H   0  0  0  0  0  0  0  0  0  0  0  0
    3.0867   -9.3771    0.4425 H   0  0  0  0  0  0  0  0  0  0  0  0
    1.1275   -9.4316    1.9319 H   0  0  0  0  0  0  0  0  0  0  0  0
    2.1944  -11.0488    3.0240 H   0  0  0  0  0  0  0  0  0  0  0  0
    3.3466   -9.9200    3.7989 H   0  0  0  0  0  0  0  0  0  0  0  0
    0.4980  -10.5669    4.5946 H   0  0  0  0  0  0  0  0  0  0  0  0
    1.7079   -9.6878    5.5671 H   0  0  0  0  0  0  0  0  0  0  0  0
   -2.3976   -9.1045    2.5084 H   0  0  0  0  0  0  0  0  0  0  0  0
   -1.0552  -10.2585    2.6188 H   0  0  0  0  0  0  0  0  0  0  0  0
   -0.9840   -8.8583    1.5057 H   0  0  0  0  0  0  0  0  0  0  0  0
   -1.6080   -9.5921    4.8408 H   0  0  0  0  0  0  0  0  0  0  0  0
    0.6627   -5.7911    2.8063 H   0  0  0  0  0  0  0  0  0  0  0  0
   -0.1868   -5.3740    4.2829 H   0  0  0  0  0  0  0  0  0  0  0  0
    1.1038   -6.0815    6.4570 H   0  0  0  0  0  0  0  0  0  0  0  0
    1.0951   -7.8283    6.6064 H   0  0  0  0  0  0  0  0  0  0  0  0
   -0.3300   -6.9480    6.1210 H   0  0  0  0  0  0  0  0  0  0  0  0
    3.2998   -7.2151    6.4517 H   0  0  0  0  0  0  0  0  0  0  0  0
    4.6459   -7.1249    5.3594 H   0  0  0  0  0  0  0  0  0  0  0  0
    3.5772   -8.4853    5.3138 H   0  0  0  0  0  0  0  0  0  0  0  0
    1.9471   -4.6120    4.3837 H   0  0  0  0  0  0  0  0  0  0  0  0
    4.0698   -5.1192    6.1272 H   0  0  0  0  0  0  0  0  0  0  0  0
    5.1686   -5.8699    4.1861 H   0  0  0  0  0  0  0  0  0  0  0  0
    6.1528   -2.8129    2.8259 H   0  0  0  0  0  0  0  0  0  0  0  0
    5.6010   -2.4622    4.4650 H   0  0  0  0  0  0  0  0  0  0  0  0
    5.4075   -1.2870    3.2023 H   0  0  0  0  0  0  0  0  0  0  0  0
    1.6816   -0.3569    3.2748 H   0  0  0  0  0  0  0  0  0  0  0  0
    3.2442    0.0979    3.9222 H   0  0  0  0  0  0  0  0  0  0  0  0
    3.2506    0.6234    1.5031 H   0  0  0  0  0  0  0  0  0  0  0  0
    3.5692   -1.4668   -1.1049 H   0  0  0  0  0  0  0  0  0  0  0  0
    5.2444   -1.3844   -0.5043 H   0  0  0  0  0  0  0  0  0  0  0  0
    4.2220    0.0413   -0.4813 H   0  0  0  0  0  0  0  0  0  0  0  0
    2.6742   -3.1254    1.3359 H   0  0  0  0  0  0  0  0  0  0  0  0
  1  2  1  0
  1 35  1  0
  1 36  1  0
  1 37  1  0
  2  3  1  0
  3 34  1  0
  3  4  1  0
  3 38  1  6
  4  5  1  0
  4 39  1  0
  4 40  1  0
  5 24  1  0
  5  6  1  0
  5 41  1  6
  6 20  1  0
  6  7  1  0
  6 42  1  1
  7  8  1  0
  7  9  1  0
  7 43  1  6
  8 44  1  0
  8 45  1  0
  8 46  1  0
  9 12  1  0
  9 10  1  0
  9 47  1  6
 10 11  1  0
 10 48  1  0
 10 49  1  0
 12 11  1  1
 11 50  1  0
 11 51  1  0
 12 18  1  0
 12 13  1  0
 13 14  1  0
 13 15  1  1
 13 16  1  0
 14 52  1  0
 14 53  1  0
 14 54  1  0
 15 55  1  0
 16 17  1  0
 17 18  1  0
 17 56  1  0
 17 57  1  0
 18 19  1  1
 18 20  1  0
 19 58  1  0
 19 59  1  0
 19 60  1  0
 20 21  1  1
 20 22  1  0
 21 61  1  0
 21 62  1  0
 21 63  1  0
 22 23  1  0
 22 24  1  0
 22 64  1  6
 23 65  1  0
 24 25  1  1
 24 26  1  0
 25 66  1  0
 26 34  1  0
 26 27  1  6
 26 28  1  0
 27 67  1  0
 27 68  1  0
 27 69  1  0
 28 29  2  0
 28 30  1  0
 30 31  1  0
 30 70  1  0
 30 71  1  0
 31 32  2  0
 31 72  1  0
 32 33  1  0
 32 34  1  0
 33 73  1  0
 33 74  1  0
 33 75  1  0
 34 76  1  1
M  END
>  <i_m_ct_stereo_status>  (207) 
1

>  <s_m_source_file>  (207) 
/var/tmp/pbs.5076255.sched01/tmppvoazpai/72cbyqjt17.sdf

>  <i_m_source_file_index>  (207) 
23

>  <i_lp_mmshare_version>  (207) 
48012

>  <i_f3d_flags>  (207) 
0

>  <s_epik_input>  (207) 
Tz1DMVtDSDJdW0NIXT1DKFtDSDNdKVtDQEBIXShbQ0BASF0oW0NIMl0yKU9bQ0gzXSlbQ0BdMShbQ0gzXSlbQ0BdKFtPSF0pKFtDQEBIXTJbQ0BASF0zW0NAQEhdKFtDSDNdKVtDQEhdKFtDQF00NTYpW0NIMl1bQ0gyXTQpW0NASF0oW09IXSlbQ0BAXTMoW0NIM10pW0NAQF02KFtDSDNdKVtDSDJdT1tDQF01KFtDSDNdKVtPSF0=

>  <s_epik_cmdline>  (207) 
J2VwaWtfcHl0aG9uJywgJy1waHQnLCAnMi4wJywgJy1waCcsICc3LjAnLCAnLXRuJywgJzgnLCAnLW1hJywgJzIwMCcsICctaW1hZScsICc8aW5maWxlLm1hZT4nLCAnLW9tYWUnLCAnPG91dGZpbGUubWFlPic=

>  <r_lp_tautomer_probability>  (207) 
1

>  <r_epik_Ionization_Penalty>  (207) 
2.04863e-07

>  <r_epik_Ionization_Penalty_Charging>  (207) 
0

>  <r_epik_Ionization_Penalty_Neutral>  (207) 
2.04863e-07

>  <r_epik_State_Penalty>  (207) 
-0

>  <r_epik_Charging_Adjusted_Penalty>  (207) 
0

>  <i_epik_Tot_Q>  (207) 
0

>  <i_epik_Tot_abs_Q>  (207) 
0

>  <s_lp_Force_Field>  (207) 
OPLS3e

>  <r_lp_Energy>  (207) 
86.9426

>  <b_lp_Chiralities_Consistent>  (207) 
1

>  <s_lp_Variant>  (207) 
77:0-1

>  <s_i_glide_gridfile>  (207) 
pfpi4k_grid

>  <i_i_glide_lignum>  (207) 
23

>  <i_i_glide_rotatable_bonds>  (207) 
4

>  <r_i_docking_score>  (207) 
-3.00791

>  <r_i_glide_ligand_efficiency>  (207) 
-0.0884679

>  <r_i_glide_ligand_efficiency_sa>  (207) 
-0.286602

>  <r_i_glide_ligand_efficiency_ln>  (207) 
-0.664531

>  <r_i_glide_gscore>  (207) 
-3.00791

>  <r_i_glide_lipo>  (207) 
-0.322632

>  <r_i_glide_hbond>  (207) 
-0.134348

>  <r_i_glide_metal>  (207) 
-0

>  <r_i_glide_rewards>  (207) 
-0.172981

>  <r_i_glide_evdw>  (207) 
-22.8382

>  <r_i_glide_ecoul>  (207) 
-7.86891

>  <r_i_glide_erotb>  (207) 
0

>  <r_i_glide_esite>  (207) 
-0.0556973

>  <r_i_glide_emodel>  (207) 
-36.2231

>  <r_i_glide_energy>  (207) 
-30.7071

>  <r_i_glide_einternal>  (207) 
1.77461

>  <r_i_glide_intrahb_reward>  (207) 
-0

>  <i_i_glide_confnum>  (207) 
2

>  <i_i_glide_posenum>  (207) 
40

>  <r_i_glide_eff_state_penalty>  (207) 
0

>  <ligand_id>  (207) 
77

>  <original_smiles>  (207) 
COC1CC2C3C(C)C4CCC45C(C)(O)OCC5(C)C3(C)C(O)C2(O)C2(C)C(=O)CC=C(C)C12

>  <smiles>  (207) 
[H]OC1([H])C2(O[H])C([H])(C([H])([H])C([H])(OC([H])([H])[H])C3([H])C(C([H])([H])[H])=C([H])C([H])([H])C(=O)C32C([H])([H])[H])C2([H])C([H])(C([H])([H])[H])C3([H])C([H])([H])C([H])([H])C34C(O[H])(C([H])([H])[H])OC([H])([H])C4(C([H])([H])[H])C12C([H])([H])[H]

$$$$
77:0:2
     RDKit          3D

 76 81  0  0  1  0  0  0  0  0999 V2000
   -1.2019   -6.5832    4.1407 C   0  0  0  0  0  0  0  0  0  0  0  0
   -0.1990   -6.3818    3.1413 O   0  0  0  0  0  0  0  0  0  0  0  0
    1.1600   -6.4440    3.5897 C   0  0  2  0  0  0  0  0  0  0  0  0
    1.7472   -5.0133    3.4334 C   0  0  0  0  0  0  0  0  0  0  0  0
    2.9253   -4.9392    2.4436 C   0  0  1  0  0  0  0  0  0  0  0  0
    3.5943   -3.5649    2.1648 C   0  0  2  0  0  0  0  0  0  0  0  0
    2.6915   -2.5373    1.4119 C   0  0  1  0  0  0  0  0  0  0  0  0
    1.8281   -1.6635    2.3529 C   0  0  0  0  0  0  0  0  0  0  0  0
    3.4415   -1.6220    0.4373 C   0  0  1  0  0  0  0  0  0  0  0  0
    4.3191   -0.4801    0.9426 C   0  0  0  0  0  0  0  0  0  0  0  0
    5.3712   -0.8953   -0.0799 C   0  0  0  0  0  0  0  0  0  0  0  0
    4.5858   -2.1693   -0.4440 C   0  0  2  0  0  0  0  0  0  0  0  0
    4.2680   -2.3757   -1.9633 C   0  0  1  0  0  0  0  0  0  0  0  0
    3.2032   -1.4832   -2.6222 C   0  0  0  0  0  0  0  0  0  0  0  0
    5.4124   -2.2231   -2.7417 O   0  0  0  0  0  0  0  0  0  0  0  0
    3.8080   -3.6682   -2.0528 O   0  0  0  0  0  0  0  0  0  0  0  0
    4.2629   -4.4515   -0.9590 C   0  0  0  0  0  0  0  0  0  0  0  0
    5.1269   -3.5640   -0.0430 C   0  0  1  0  0  0  0  0  0  0  0  0
    6.6160   -3.7542   -0.4811 C   0  0  0  0  0  0  0  0  0  0  0  0
    4.9797   -3.9233    1.5118 C   0  0  1  0  0  0  0  0  0  0  0  0
    6.0687   -3.1772    2.3281 C   0  0  0  0  0  0  0  0  0  0  0  0
    5.1120   -5.4779    1.7866 C   0  0  1  0  0  0  0  0  0  0  0  0
    6.4152   -5.9022    2.1659 O   0  0  0  0  0  0  0  0  0  0  0  0
    4.0451   -5.9101    2.8390 C   0  0  1  0  0  0  0  0  0  0  0  0
    4.5502   -5.4695    4.0989 O   0  0  0  0  0  0  0  0  0  0  0  0
    3.5189   -7.4416    2.9841 C   0  0  2  0  0  0  0  0  0  0  0  0
    3.8397   -8.0109    4.4101 C   0  0  0  0  0  0  0  0  0  0  0  0
    4.1923   -8.4796    2.0225 C   0  0  0  0  0  0  0  0  0  0  0  0
    5.2501   -8.2780    1.4457 O   0  0  0  0  0  0  0  0  0  0  0  0
    3.5818   -9.8808    1.8923 C   0  0  0  0  0  0  0  0  0  0  0  0
    2.1869   -9.9908    2.4364 C   0  0  0  0  0  0  0  0  0  0  0  0
    1.4237   -8.9690    2.8272 C   0  0  0  0  0  0  0  0  0  0  0  0
    0.0477   -9.2811    3.3826 C   0  0  0  0  0  0  0  0  0  0  0  0
    1.9508   -7.5148    2.7523 C   0  0  1  0  0  0  0  0  0  0  0  0
   -2.1781   -6.4519    3.6408 H   0  0  0  0  0  0  0  0  0  0  0  0
   -1.1174   -5.8084    4.9187 H   0  0  0  0  0  0  0  0  0  0  0  0
   -1.1999   -7.5460    4.6031 H   0  0  0  0  0  0  0  0  0  0  0  0
    1.1903   -6.7085    4.6492 H   0  0  0  0  0  0  0  0  0  0  0  0
    0.9583   -4.3420    3.0921 H   0  0  0  0  0  0  0  0  0  0  0  0
    2.0815   -4.6372    4.4004 H   0  0  0  0  0  0  0  0  0  0  0  0
    2.5459   -5.2630    1.4845 H   0  0  0  0  0  0  0  0  0  0  0  0
    3.8025   -3.1132    3.1371 H   0  0  0  0  0  0  0  0  0  0  0  0
    1.9947   -3.1172    0.7999 H   0  0  0  0  0  0  0  0  0  0  0  0
    2.4374   -1.0167    2.9839 H   0  0  0  0  0  0  0  0  0  0  0  0
    1.1827   -2.2358    3.0057 H   0  0  0  0  0  0  0  0  0  0  0  0
    1.1764   -1.0104    1.7716 H   0  0  0  0  0  0  0  0  0  0  0  0
    2.7204   -1.1131   -0.1757 H   0  0  0  0  0  0  0  0  0  0  0  0
    3.9041    0.5156    0.7755 H   0  0  0  0  0  0  0  0  0  0  0  0
    4.6180   -0.5981    1.9805 H   0  0  0  0  0  0  0  0  0  0  0  0
    5.4102   -0.2382   -0.9468 H   0  0  0  0  0  0  0  0  0  0  0  0
    6.3619   -1.0319    0.3508 H   0  0  0  0  0  0  0  0  0  0  0  0
    3.2080   -1.6509   -3.6968 H   0  0  0  0  0  0  0  0  0  0  0  0
    3.3998   -0.4268   -2.4374 H   0  0  0  0  0  0  0  0  0  0  0  0
    2.2107   -1.7540   -2.2806 H   0  0  0  0  0  0  0  0  0  0  0  0
    6.0476   -2.8458   -2.4145 H   0  0  0  0  0  0  0  0  0  0  0  0
    3.3658   -4.7956   -0.4666 H   0  0  0  0  0  0  0  0  0  0  0  0
    4.7984   -5.3313   -1.3101 H   0  0  0  0  0  0  0  0  0  0  0  0
    7.0193   -4.6852   -0.0927 H   0  0  0  0  0  0  0  0  0  0  0  0
    7.2789   -2.9553   -0.1614 H   0  0  0  0  0  0  0  0  0  0  0  0
    6.7342   -3.8229   -1.5575 H   0  0  0  0  0  0  0  0  0  0  0  0
    7.0700   -3.4780    2.0311 H   0  0  0  0  0  0  0  0  0  0  0  0
    5.9664   -3.4076    3.3849 H   0  0  0  0  0  0  0  0  0  0  0  0
    6.0492   -2.0981    2.2626 H   0  0  0  0  0  0  0  0  0  0  0  0
    4.8858   -5.9938    0.8597 H   0  0  0  0  0  0  0  0  0  0  0  0
    6.4376   -6.8486    2.0779 H   0  0  0  0  0  0  0  0  0  0  0  0
    5.3086   -5.9974    4.3109 H   0  0  0  0  0  0  0  0  0  0  0  0
    3.2992   -7.4840    5.1974 H   0  0  0  0  0  0  0  0  0  0  0  0
    4.9040   -7.9742    4.6498 H   0  0  0  0  0  0  0  0  0  0  0  0
    3.5675   -9.0539    4.5214 H   0  0  0  0  0  0  0  0  0  0  0  0
    3.5438  -10.1657    0.8443 H   0  0  0  0  0  0  0  0  0  0  0  0
    4.2061  -10.5988    2.4305 H   0  0  0  0  0  0  0  0  0  0  0  0
    1.7815  -10.9861    2.4869 H   0  0  0  0  0  0  0  0  0  0  0  0
   -0.7173   -8.7851    2.7953 H   0  0  0  0  0  0  0  0  0  0  0  0
    0.0105   -8.9467    4.4034 H   0  0  0  0  0  0  0  0  0  0  0  0
   -0.1835  -10.3567    3.3302 H   0  0  0  0  0  0  0  0  0  0  0  0
    1.7791   -7.2674    1.7027 H   0  0  0  0  0  0  0  0  0  0  0  0
  1  2  1  0
  1 35  1  0
  1 36  1  0
  1 37  1  0
  2  3  1  0
  3 34  1  0
  3  4  1  0
  3 38  1  1
  4  5  1  0
  4 39  1  0
  4 40  1  0
  5 24  1  0
  5  6  1  0
  5 41  1  6
  6 20  1  0
  6  7  1  0
  6 42  1  1
  7  8  1  0
  7  9  1  0
  7 43  1  6
  8 44  1  0
  8 45  1  0
  8 46  1  0
  9 12  1  0
  9 10  1  0
  9 47  1  6
 10 11  1  0
 10 48  1  0
 10 49  1  0
 12 11  1  6
 11 50  1  0
 11 51  1  0
 12 18  1  0
 12 13  1  0
 13 14  1  0
 13 15  1  6
 13 16  1  0
 14 52  1  0
 14 53  1  0
 14 54  1  0
 15 55  1  0
 16 17  1  0
 17 18  1  0
 17 56  1  0
 17 57  1  0
 18 19  1  6
 18 20  1  0
 19 58  1  0
 19 59  1  0
 19 60  1  0
 20 21  1  1
 20 22  1  0
 21 61  1  0
 21 62  1  0
 21 63  1  0
 22 23  1  0
 22 24  1  0
 22 64  1  6
 23 65  1  0
 24 25  1  1
 24 26  1  0
 25 66  1  0
 26 34  1  0
 26 27  1  1
 26 28  1  0
 27 67  1  0
 27 68  1  0
 27 69  1  0
 28 29  2  0
 28 30  1  0
 30 31  1  0
 30 70  1  0
 30 71  1  0
 31 32  2  0
 31 72  1  0
 32 33  1  0
 32 34  1  0
 33 73  1  0
 33 74  1  0
 33 75  1  0
 34 76  1  6
M  END
>  <i_m_ct_stereo_status>  (208) 
1

>  <s_m_source_file>  (208) 
/var/tmp/pbs.5076255.sched01/tmppvoazpai/72cbyqjt17.sdf

>  <i_m_source_file_index>  (208) 
23

>  <i_lp_mmshare_version>  (208) 
48012

>  <i_f3d_flags>  (208) 
0

>  <s_epik_input>  (208) 
Tz1DMVtDSDJdW0NIXT1DKFtDSDNdKVtDQEBIXShbQ0BASF0oW0NIMl0yKU9bQ0gzXSlbQ0BdMShbQ0gzXSlbQ0BdKFtPSF0pKFtDQEBIXTJbQ0BASF0zW0NAQEhdKFtDSDNdKVtDQEhdKFtDQF00NTYpW0NIMl1bQ0gyXTQpW0NASF0oW09IXSlbQ0BAXTMoW0NIM10pW0NAQF02KFtDSDNdKVtDSDJdT1tDQF01KFtDSDNdKVtPSF0=

>  <s_epik_cmdline>  (208) 
J2VwaWtfcHl0aG9uJywgJy1waHQnLCAnMi4wJywgJy1waCcsICc3LjAnLCAnLXRuJywgJzgnLCAnLW1hJywgJzIwMCcsICctaW1hZScsICc8aW5maWxlLm1hZT4nLCAnLW9tYWUnLCAnPG91dGZpbGUubWFlPic=

>  <r_lp_tautomer_probability>  (208) 
1

>  <r_epik_Ionization_Penalty>  (208) 
2.04863e-07

>  <r_epik_Ionization_Penalty_Charging>  (208) 
0

>  <r_epik_Ionization_Penalty_Neutral>  (208) 
2.04863e-07

>  <r_epik_State_Penalty>  (208) 
-0

>  <r_epik_Charging_Adjusted_Penalty>  (208) 
0

>  <i_epik_Tot_Q>  (208) 
0

>  <i_epik_Tot_abs_Q>  (208) 
0

>  <s_lp_Force_Field>  (208) 
OPLS3e

>  <r_lp_Energy>  (208) 
86.9426

>  <b_lp_Chiralities_Consistent>  (208) 
1

>  <s_lp_Variant>  (208) 
77:0-1

>  <s_i_glide_gridfile>  (208) 
pfpi4k_grid

>  <i_i_glide_lignum>  (208) 
23

>  <i_i_glide_rotatable_bonds>  (208) 
4

>  <r_i_docking_score>  (208) 
-2.71512

>  <r_i_glide_ligand_efficiency>  (208) 
-0.0798565

>  <r_i_glide_ligand_efficiency_sa>  (208) 
-0.258704

>  <r_i_glide_ligand_efficiency_ln>  (208) 
-0.599846

>  <r_i_glide_gscore>  (208) 
-2.71512

>  <r_i_glide_lipo>  (208) 
-0.376968

>  <r_i_glide_hbond>  (208) 
-0.138999

>  <r_i_glide_metal>  (208) 
-0

>  <r_i_glide_rewards>  (208) 
-0.672981

>  <r_i_glide_evdw>  (208) 
-21.7661

>  <r_i_glide_ecoul>  (208) 
-2.81315

>  <r_i_glide_erotb>  (208) 
0

>  <r_i_glide_esite>  (208) 
-0.0158955

>  <r_i_glide_emodel>  (208) 
-31.9021

>  <r_i_glide_energy>  (208) 
-24.5792

>  <r_i_glide_einternal>  (208) 
2.84315

>  <r_i_glide_intrahb_reward>  (208) 
-0.5

>  <i_i_glide_confnum>  (208) 
1

>  <i_i_glide_posenum>  (208) 
3

>  <r_i_glide_eff_state_penalty>  (208) 
0

>  <ligand_id>  (208) 
77

>  <original_smiles>  (208) 
COC1CC2C3C(C)C4CCC45C(C)(O)OCC5(C)C3(C)C(O)C2(O)C2(C)C(=O)CC=C(C)C12

>  <smiles>  (208) 
[H]OC1([H])C2(O[H])C([H])(C([H])([H])C([H])(OC([H])([H])[H])C3([H])C(C([H])([H])[H])=C([H])C([H])([H])C(=O)C32C([H])([H])[H])C2([H])C([H])(C([H])([H])[H])C3([H])C([H])([H])C([H])([H])C34C(O[H])(C([H])([H])[H])OC([H])([H])C4(C([H])([H])[H])C12C([H])([H])[H]

$$$$
78:0:0
     RDKit          3D

 91 99  0  0  1  0  0  0  0  0999 V2000
    5.3475   -3.6497   -1.6730 C   0  0  0  0  0  0  0  0  0  0  0  0
    5.4133   -3.1091   -0.2341 C   0  0  2  0  0  0  0  0  0  0  0  0
    6.1001   -4.0244    0.7663 C   0  0  0  0  0  0  0  0  0  0  0  0
    5.6994   -3.9101    2.0377 C   0  0  0  0  0  0  0  0  0  0  0  0
    5.8207   -2.6533    2.6002 O   0  0  0  0  0  0  0  0  0  0  0  0
    4.6546   -1.8277    2.6370 C   0  0  2  0  0  0  0  0  0  0  0  0
    3.5440   -2.5888    3.3787 C   0  0  1  0  0  0  0  0  0  0  0  0
    2.3706   -1.7838    3.5855 O   0  0  0  0  0  0  0  0  0  0  0  0
    2.4877   -0.5725    4.3475 C   0  0  0  0  0  0  0  0  0  0  0  0
    1.2790    0.3272    4.0791 C   0  0  0  0  0  0  0  0  0  0  0  0
    0.6721    0.9880    5.2160 C   0  0  0  0  0  0  0  0  0  0  0  0
   -0.4340    1.8255    4.9717 C   0  0  0  0  0  0  0  0  0  0  0  0
   -0.9108    2.0568    3.6667 C   0  0  0  0  0  0  0  0  0  0  0  0
   -2.2955    3.0993    3.3412 Cl  0  0  0  0  0  0  0  0  0  0  0  0
   -0.2658    1.4176    2.5710 C   0  0  0  0  0  0  0  0  0  0  0  0
    0.7849    0.5499    2.7800 C   0  0  0  0  0  0  0  0  0  0  0  0
    3.2712   -3.9432    2.6217 C   0  0  1  0  0  0  0  0  0  0  0  0
    1.9789   -4.4926    3.4324 C   0  0  0  0  0  0  0  0  0  0  0  0
    1.2871   -5.8228    3.0133 C   0  0  2  0  0  0  0  0  0  0  0  0
    0.3955   -6.8368    3.7211 O   0  0  0  0  0  0  0  0  0  0  0  0
    1.0295   -8.1781    4.1581 C   0  0  1  0  0  0  0  0  0  0  0  0
    0.1768   -8.9692    5.1628 C   0  0  0  0  0  0  0  0  0  0  0  0
    0.7845  -10.3772    5.2767 C   0  0  0  0  0  0  0  0  0  0  0  0
    2.1120  -10.4248    4.4986 C   0  0  1  0  0  0  0  0  0  0  0  0
    2.4537  -11.8246    3.9642 C   0  0  0  0  0  0  0  0  0  0  0  0
    1.9689   -9.3432    3.4025 C   0  0  2  0  0  0  0  0  0  0  0  0
    3.4087   -8.8480    2.6918 C   0  0  0  0  0  0  0  0  0  0  0  0
    3.6613   -7.2434    2.8124 C   0  0  1  0  0  0  0  0  0  0  0  0
    4.4300   -6.2186    1.9136 C   0  0  1  0  0  0  0  0  0  0  0  0
    3.8656   -6.0776    0.4659 C   0  0  0  0  0  0  0  0  0  0  0  0
    2.8446   -4.9333    0.2283 C   0  0  0  0  0  0  0  0  0  0  0  0
    3.0369   -3.6509    1.0596 C   0  0  2  0  0  0  0  0  0  0  0  0
    4.0231   -2.5969    0.3226 C   0  0  1  0  0  0  0  0  0  0  0  0
    4.2757   -1.3515    1.2089 C   0  0  0  0  0  0  0  0  0  0  0  0
    3.0413   -0.5061    1.1616 C   0  0  0  0  0  0  0  0  0  0  0  0
    5.3430   -0.3461    0.7446 C   0  0  0  0  0  0  0  0  0  0  0  0
    4.6176   -4.8163    2.6834 C   0  0  1  0  0  0  0  0  0  0  0  0
    5.1652   -5.0439    4.1230 C   0  0  0  0  0  0  0  0  0  0  0  0
    2.2645   -6.8714    3.1030 C   0  0  2  0  0  0  0  0  0  0  0  0
    1.6954   -7.3318    1.7971 O   0  0  0  0  0  0  0  0  0  0  0  0
    2.1040   -7.3698    4.6274 C   0  0  1  0  0  0  0  0  0  0  0  0
    1.8292   -6.4530    5.8695 C   0  0  0  0  0  0  0  0  0  0  0  0
    6.3537   -3.8272   -2.0390 H   0  0  0  0  0  0  0  0  0  0  0  0
    4.8822   -2.9214   -2.3364 H   0  0  0  0  0  0  0  0  0  0  0  0
    4.7949   -4.5749   -1.7756 H   0  0  0  0  0  0  0  0  0  0  0  0
    6.1048   -2.2845   -0.3691 H   0  0  0  0  0  0  0  0  0  0  0  0
    6.1963   -5.0010    0.3552 H   0  0  0  0  0  0  0  0  0  0  0  0
    4.9666   -0.9752    3.2338 H   0  0  0  0  0  0  0  0  0  0  0  0
    3.8966   -2.8106    4.3880 H   0  0  0  0  0  0  0  0  0  0  0  0
    2.6518   -0.8131    5.4243 H   0  0  0  0  0  0  0  0  0  0  0  0
    3.3846   -0.0013    4.0683 H   0  0  0  0  0  0  0  0  0  0  0  0
    1.0571    0.8088    6.2451 H   0  0  0  0  0  0  0  0  0  0  0  0
   -0.9424    2.3067    5.8193 H   0  0  0  0  0  0  0  0  0  0  0  0
   -0.5845    1.5616    1.5658 H   0  0  0  0  0  0  0  0  0  0  0  0
    1.0827    0.1190    1.8895 H   0  0  0  0  0  0  0  0  0  0  0  0
    2.2313   -4.4767    4.4865 H   0  0  0  0  0  0  0  0  0  0  0  0
    1.1695   -3.7632    3.3602 H   0  0  0  0  0  0  0  0  0  0  0  0
    0.7074   -5.5351    2.1270 H   0  0  0  0  0  0  0  0  0  0  0  0
    0.0908   -8.4908    6.1335 H   0  0  0  0  0  0  0  0  0  0  0  0
   -0.8369   -9.0635    4.7753 H   0  0  0  0  0  0  0  0  0  0  0  0
    0.9329  -10.6549    6.3180 H   0  0  0  0  0  0  0  0  0  0  0  0
    0.1004  -11.1196    4.8698 H   0  0  0  0  0  0  0  0  0  0  0  0
    2.9043  -10.1400    5.1892 H   0  0  0  0  0  0  0  0  0  0  0  0
    1.6946  -12.1904    3.2710 H   0  0  0  0  0  0  0  0  0  0  0  0
    2.5244  -12.5477    4.7791 H   0  0  0  0  0  0  0  0  0  0  0  0
    3.4105  -11.8303    3.4386 H   0  0  0  0  0  0  0  0  0  0  0  0
    1.3589   -9.8005    2.6201 H   0  0  0  0  0  0  0  0  0  0  0  0
    4.2535   -9.4094    3.0887 H   0  0  0  0  0  0  0  0  0  0  0  0
    3.3790   -9.1510    1.6392 H   0  0  0  0  0  0  0  0  0  0  0  0
    4.2777   -7.2409    3.7049 H   0  0  0  0  0  0  0  0  0  0  0  0
    5.4237   -6.6542    1.8006 H   0  0  0  0  0  0  0  0  0  0  0  0
    4.6640   -6.0312   -0.2621 H   0  0  0  0  0  0  0  0  0  0  0  0
    3.4371   -7.0229    0.1540 H   0  0  0  0  0  0  0  0  0  0  0  0
    2.8254   -4.6496   -0.8173 H   0  0  0  0  0  0  0  0  0  0  0  0
    1.8433   -5.3114    0.3756 H   0  0  0  0  0  0  0  0  0  0  0  0
    2.0519   -3.1984    1.0261 H   0  0  0  0  0  0  0  0  0  0  0  0
    3.4803   -2.2261   -0.5458 H   0  0  0  0  0  0  0  0  0  0  0  0
    2.8368   -0.0093    0.2204 H   0  0  0  0  0  0  0  0  0  0  0  0
    3.0691    0.2733    1.9330 H   0  0  0  0  0  0  0  0  0  0  0  0
    2.1835   -1.1584    1.3257 H   0  0  0  0  0  0  0  0  0  0  0  0
    5.2305   -0.1118   -0.3188 H   0  0  0  0  0  0  0  0  0  0  0  0
    6.3696   -0.6627    0.9641 H   0  0  0  0  0  0  0  0  0  0  0  0
    5.2152    0.5839    1.2817 H   0  0  0  0  0  0  0  0  0  0  0  0
    4.3981   -5.3894    4.8052 H   0  0  0  0  0  0  0  0  0  0  0  0
    5.5934   -4.1501    4.5737 H   0  0  0  0  0  0  0  0  0  0  0  0
    5.9693   -5.7774    4.1172 H   0  0  0  0  0  0  0  0  0  0  0  0
    1.9007   -8.2556    1.6984 H   0  0  0  0  0  0  0  0  0  0  0  0
    2.9220   -7.9790    5.0128 H   0  0  0  0  0  0  0  0  0  0  0  0
    0.9578   -5.8070    5.7959 H   0  0  0  0  0  0  0  0  0  0  0  0
    2.6859   -5.8357    6.1144 H   0  0  0  0  0  0  0  0  0  0  0  0
    1.6758   -7.0637    6.7521 H   0  0  0  0  0  0  0  0  0  0  0  0
  1  2  1  0
  1 43  1  0
  1 44  1  0
  1 45  1  0
  2 33  1  0
  2  3  1  0
  2 46  1  6
  3  4  2  0
  3 47  1  0
  4 37  1  0
  4  5  1  0
  5  6  1  0
  6 34  1  0
  6  7  1  0
  6 48  1  1
  7  8  1  0
  7 17  1  0
  7 49  1  1
  8  9  1  0
  9 10  1  0
  9 50  1  0
  9 51  1  0
 10 16  1  0
 10 11  2  0
 11 12  1  0
 11 52  1  0
 12 13  2  0
 12 53  1  0
 13 14  1  0
 13 15  1  0
 15 16  2  0
 15 54  1  0
 16 55  1  0
 17 32  1  0
 17 37  1  0
 17 18  1  1
 18 19  1  0
 18 56  1  0
 18 57  1  0
 19 39  1  0
 19 20  1  0
 19 58  1  6
 21 20  1  6
 21 26  1  0
 21 41  1  0
 21 22  1  0
 22 23  1  0
 22 59  1  0
 22 60  1  0
 23 24  1  0
 23 61  1  0
 23 62  1  0
 24 25  1  0
 24 26  1  0
 24 63  1  1
 25 64  1  0
 25 65  1  0
 25 66  1  0
 26 27  1  0
 26 67  1  6
 27 28  1  0
 27 68  1  0
 27 69  1  0
 28 29  1  0
 28 39  1  0
 28 70  1  1
 29 30  1  0
 29 37  1  0
 29 71  1  6
 30 31  1  0
 30 72  1  0
 30 73  1  0
 31 32  1  0
 31 74  1  0
 31 75  1  0
 32 33  1  0
 32 76  1  1
 33 34  1  0
 33 77  1  6
 34 35  1  0
 34 36  1  0
 35 78  1  0
 35 79  1  0
 35 80  1  0
 36 81  1  0
 36 82  1  0
 36 83  1  0
 37 38  1  1
 38 84  1  0
 38 85  1  0
 38 86  1  0
 39 40  1  6
 39 41  1  0
 40 87  1  0
 41 42  1  0
 41 88  1  1
 42 89  1  0
 42 90  1  0
 42 91  1  0
M  END
>  <i_m_ct_stereo_status>  (209) 
1

>  <s_m_source_file>  (209) 
/var/tmp/pbs.5076255.sched01/tmppvoazpai/72cbyqjt17.sdf

>  <i_m_source_file_index>  (209) 
24

>  <i_lp_mmshare_version>  (209) 
48012

>  <i_f3d_flags>  (209) 
0

>  <s_epik_input>  (209) 
W0NIMl0xW0NIMl1bQ0BASF0oW0NIM10pW0NASF0oW0NIMl0yKVtDQEBdMShbQ0BASF0zW0NIM10pT1tDQEBIXShbQ0gyXTQpW0NAQF0zKFtPSF0pW0NAQEhdMltDQEBIXShbQ0gyXVtDSDJdNSlbQ0BAXTYoW0NIM10pQyg9W0NIXVtDQEBIXShbQ0gzXSlbQ0BIXTdbQ0BASF01W0NAQF00NjgpT1tDQEBIXShDNyhbQ0gzXSlbQ0gzXSlbQ0BIXThPW0NIMl1jOVtjSF1bY0hdYyhDbClbY0hdW2NIXTk=

>  <s_epik_cmdline>  (209) 
J2VwaWtfcHl0aG9uJywgJy1waHQnLCAnMi4wJywgJy1waCcsICc3LjAnLCAnLXRuJywgJzgnLCAnLW1hJywgJzIwMCcsICctaW1hZScsICc8aW5maWxlLm1hZT4nLCAnLW9tYWUnLCAnPG91dGZpbGUubWFlPic=

>  <r_lp_tautomer_probability>  (209) 
1

>  <r_epik_Ionization_Penalty>  (209) 
1.46986e-07

>  <r_epik_Ionization_Penalty_Charging>  (209) 
0

>  <r_epik_Ionization_Penalty_Neutral>  (209) 
1.46986e-07

>  <r_epik_State_Penalty>  (209) 
-0

>  <r_epik_Charging_Adjusted_Penalty>  (209) 
0

>  <i_epik_Tot_Q>  (209) 
0

>  <i_epik_Tot_abs_Q>  (209) 
0

>  <s_lp_Force_Field>  (209) 
OPLS3e

>  <r_lp_Energy>  (209) 
355.524

>  <b_lp_Chiralities_Consistent>  (209) 
1

>  <s_lp_Variant>  (209) 
78:0-1

>  <s_i_glide_gridfile>  (209) 
pfpi4k_grid

>  <i_i_glide_lignum>  (209) 
24

>  <i_i_glide_rotatable_bonds>  (209) 
4

>  <r_i_docking_score>  (209) 
-2.52722

>  <r_i_glide_ligand_efficiency>  (209) 
-0.060172

>  <r_i_glide_ligand_efficiency_sa>  (209) 
-0.209159

>  <r_i_glide_ligand_efficiency_ln>  (209) 
-0.533432

>  <r_i_glide_gscore>  (209) 
-2.52722

>  <r_i_glide_lipo>  (209) 
-0.530642

>  <r_i_glide_hbond>  (209) 
0

>  <r_i_glide_metal>  (209) 
-0

>  <r_i_glide_rewards>  (209) 
0

>  <r_i_glide_evdw>  (209) 
-37.7488

>  <r_i_glide_ecoul>  (209) 
-1.92134

>  <r_i_glide_erotb>  (209) 
0.0676343

>  <r_i_glide_esite>  (209) 
0

>  <r_i_glide_emodel>  (209) 
-41.3302

>  <r_i_glide_energy>  (209) 
-39.6702

>  <r_i_glide_einternal>  (209) 
1.59715

>  <r_i_glide_intrahb_reward>  (209) 
-0

>  <i_i_glide_confnum>  (209) 
3

>  <i_i_glide_posenum>  (209) 
18

>  <r_i_glide_eff_state_penalty>  (209) 
0

>  <ligand_id>  (209) 
78

>  <original_smiles>  (209) 
CC1C=C2OC3C(OCc4ccc(Cl)cc4)C45CC6OC78CCC(C)C7CC(C(CCC4C1C3(C)C)C25C)C6(O)C8C

>  <smiles>  (209) 
[H]OC12C3([H])OC4(C([H])([H])C([H])([H])C([H])(C([H])([H])[H])C4([H])C([H])([H])C1([H])C1([H])C([H])([H])C([H])([H])C4([H])C5([H])C([H])(C([H])([H])[H])C([H])=C6OC([H])(C([H])(OC([H])([H])c7c([H])c([H])c(Cl)c([H])c7[H])C4(C3([H])[H])C61C([H])([H])[H])C5(C([H])([H])[H])C([H])([H])[H])C2([H])C([H])([H])[H]

$$$$
78:0:1
     RDKit          3D

 91 99  0  0  1  0  0  0  0  0999 V2000
    2.7891   -5.8133    6.9133 C   0  0  0  0  0  0  0  0  0  0  0  0
    3.6979   -4.7988    6.1857 C   0  0  2  0  0  0  0  0  0  0  0  0
    3.8840   -3.4940    6.9332 C   0  0  0  0  0  0  0  0  0  0  0  0
    4.1547   -2.4253    6.1691 C   0  0  0  0  0  0  0  0  0  0  0  0
    5.2411   -2.5436    5.3182 O   0  0  0  0  0  0  0  0  0  0  0  0
    5.0107   -2.8635    3.9438 C   0  0  2  0  0  0  0  0  0  0  0  0
    4.0435   -1.8356    3.3855 C   0  0  1  0  0  0  0  0  0  0  0  0
    3.8802   -2.0159    1.9843 O   0  0  0  0  0  0  0  0  0  0  0  0
    4.8705   -1.4273    1.1532 C   0  0  0  0  0  0  0  0  0  0  0  0
    4.8252   -2.0375   -0.2350 C   0  0  0  0  0  0  0  0  0  0  0  0
    6.0083   -2.4544   -0.8784 C   0  0  0  0  0  0  0  0  0  0  0  0
    5.9365   -3.0559   -2.1537 C   0  0  0  0  0  0  0  0  0  0  0  0
    4.6927   -3.2422   -2.7779 C   0  0  0  0  0  0  0  0  0  0  0  0
    4.6085   -4.0217   -4.3123 Cl  0  0  0  0  0  0  0  0  0  0  0  0
    3.5116   -2.8082   -2.1445 C   0  0  0  0  0  0  0  0  0  0  0  0
    3.5789   -2.2071   -0.8722 C   0  0  0  0  0  0  0  0  0  0  0  0
    2.7140   -1.8865    4.1944 C   0  0  1  0  0  0  0  0  0  0  0  0
    1.7891   -0.9120    3.3003 C   0  0  0  0  0  0  0  0  0  0  0  0
    0.3128   -0.6651    3.6912 C   0  0  2  0  0  0  0  0  0  0  0  0
   -0.7088    0.4264    3.4046 O   0  0  0  0  0  0  0  0  0  0  0  0
   -1.0276    1.4428    4.5156 C   0  0  1  0  0  0  0  0  0  0  0  0
   -1.7568    2.6994    4.0210 C   0  0  0  0  0  0  0  0  0  0  0  0
   -2.2481    3.4564    5.2692 C   0  0  0  0  0  0  0  0  0  0  0  0
   -1.6842    2.7877    6.5344 C   0  0  1  0  0  0  0  0  0  0  0  0
   -2.5804    2.9765    7.7699 C   0  0  0  0  0  0  0  0  0  0  0  0
   -1.4479    1.3216    6.1242 C   0  0  2  0  0  0  0  0  0  0  0  0
   -0.4052    0.4885    7.1408 C   0  0  0  0  0  0  0  0  0  0  0  0
    0.8678   -0.1667    6.3691 C   0  0  1  0  0  0  0  0  0  0  0  0
    1.7294   -1.4529    6.6110 C   0  0  1  0  0  0  0  0  0  0  0  0
    0.9267   -2.7935    6.5571 C   0  0  0  0  0  0  0  0  0  0  0  0
    0.9368   -3.5482    5.1966 C   0  0  0  0  0  0  0  0  0  0  0  0
    2.2168   -3.4087    4.3269 C   0  0  2  0  0  0  0  0  0  0  0  0
    3.3123   -4.5511    4.6618 C   0  0  1  0  0  0  0  0  0  0  0  0
    4.5907   -4.3472    3.7842 C   0  0  0  0  0  0  0  0  0  0  0  0
    4.3002   -4.7598    2.3152 C   0  0  0  0  0  0  0  0  0  0  0  0
    5.8092   -5.2360    4.1614 C   0  0  0  0  0  0  0  0  0  0  0  0
    3.0578   -1.4386    5.6952 C   0  0  1  0  0  0  0  0  0  0  0  0
    3.7702   -0.0563    5.7986 C   0  0  0  0  0  0  0  0  0  0  0  0
    0.2987   -0.0918    5.0102 C   0  0  2  0  0  0  0  0  0  0  0  0
   -0.8493   -1.0255    5.2675 O   0  0  0  0  0  0  0  0  0  0  0  0
    0.3804    1.4851    4.7205 C   0  0  1  0  0  0  0  0  0  0  0  0
    1.2385    2.1466    3.5896 C   0  0  0  0  0  0  0  0  0  0  0  0
    3.1985   -6.0523    7.8951 H   0  0  0  0  0  0  0  0  0  0  0  0
    2.7299   -6.7511    6.3587 H   0  0  0  0  0  0  0  0  0  0  0  0
    1.7697   -5.4822    7.0729 H   0  0  0  0  0  0  0  0  0  0  0  0
    4.6532   -5.2996    6.2773 H   0  0  0  0  0  0  0  0  0  0  0  0
    3.1609   -3.4012    7.7150 H   0  0  0  0  0  0  0  0  0  0  0  0
    5.9546   -2.7280    3.4219 H   0  0  0  0  0  0  0  0  0  0  0  0
    4.4884   -0.8475    3.4911 H   0  0  0  0  0  0  0  0  0  0  0  0
    4.6900   -0.3565    1.0759 H   0  0  0  0  0  0  0  0  0  0  0  0
    5.8727   -1.5527    1.5598 H   0  0  0  0  0  0  0  0  0  0  0  0
    6.9662   -2.3423   -0.3915 H   0  0  0  0  0  0  0  0  0  0  0  0
    6.8382   -3.3921   -2.6433 H   0  0  0  0  0  0  0  0  0  0  0  0
    2.5534   -2.9516   -2.6164 H   0  0  0  0  0  0  0  0  0  0  0  0
    2.6705   -1.8900   -0.3795 H   0  0  0  0  0  0  0  0  0  0  0  0
    2.3419    0.0050    3.1594 H   0  0  0  0  0  0  0  0  0  0  0  0
    1.7038   -1.3188    2.2947 H   0  0  0  0  0  0  0  0  0  0  0  0
   -0.1690   -1.6044    3.3928 H   0  0  0  0  0  0  0  0  0  0  0  0
   -1.1527    3.3303    3.3696 H   0  0  0  0  0  0  0  0  0  0  0  0
   -2.6247    2.3972    3.4331 H   0  0  0  0  0  0  0  0  0  0  0  0
   -1.9618    4.5082    5.2227 H   0  0  0  0  0  0  0  0  0  0  0  0
   -3.3388    3.4167    5.2955 H   0  0  0  0  0  0  0  0  0  0  0  0
   -0.7291    3.2681    6.7535 H   0  0  0  0  0  0  0  0  0  0  0  0
   -3.5700    2.5417    7.6287 H   0  0  0  0  0  0  0  0  0  0  0  0
   -2.7208    4.0358    7.9935 H   0  0  0  0  0  0  0  0  0  0  0  0
   -2.1326    2.5218    8.6546 H   0  0  0  0  0  0  0  0  0  0  0  0
   -2.4164    0.8256    6.1585 H   0  0  0  0  0  0  0  0  0  0  0  0
   -0.0545    1.1232    7.9539 H   0  0  0  0  0  0  0  0  0  0  0  0
   -0.9620   -0.3093    7.6338 H   0  0  0  0  0  0  0  0  0  0  0  0
    1.5938    0.6190    6.5569 H   0  0  0  0  0  0  0  0  0  0  0  0
    2.0573   -1.3504    7.6424 H   0  0  0  0  0  0  0  0  0  0  0  0
    1.2386   -3.4605    7.3497 H   0  0  0  0  0  0  0  0  0  0  0  0
   -0.0970   -2.6417    6.8896 H   0  0  0  0  0  0  0  0  0  0  0  0
    0.7325   -4.6037    5.3691 H   0  0  0  0  0  0  0  0  0  0  0  0
    0.0746   -3.2574    4.6088 H   0  0  0  0  0  0  0  0  0  0  0  0
    1.8746   -3.6656    3.3292 H   0  0  0  0  0  0  0  0  0  0  0  0
    2.8796   -5.4944    4.3255 H   0  0  0  0  0  0  0  0  0  0  0  0
    4.2087   -5.8439    2.2171 H   0  0  0  0  0  0  0  0  0  0  0  0
    5.1064   -4.4436    1.6491 H   0  0  0  0  0  0  0  0  0  0  0  0
    3.3761   -4.3411    1.9211 H   0  0  0  0  0  0  0  0  0  0  0  0
    5.5223   -6.2778    4.3105 H   0  0  0  0  0  0  0  0  0  0  0  0
    6.3139   -4.8895    5.0622 H   0  0  0  0  0  0  0  0  0  0  0  0
    6.5735   -5.2216    3.3850 H   0  0  0  0  0  0  0  0  0  0  0  0
    3.2746    0.7119    5.2105 H   0  0  0  0  0  0  0  0  0  0  0  0
    4.8078   -0.0731    5.4619 H   0  0  0  0  0  0  0  0  0  0  0  0
    3.8125    0.2806    6.8358 H   0  0  0  0  0  0  0  0  0  0  0  0
   -0.5113   -1.9019    5.2529 H   0  0  0  0  0  0  0  0  0  0  0  0
    0.6466    2.1241    5.5644 H   0  0  0  0  0  0  0  0  0  0  0  0
    1.0506    1.7659    2.5821 H   0  0  0  0  0  0  0  0  0  0  0  0
    2.3057    2.0676    3.7920 H   0  0  0  0  0  0  0  0  0  0  0  0
    1.0386    3.2175    3.5447 H   0  0  0  0  0  0  0  0  0  0  0  0
  1  2  1  0
  1 43  1  0
  1 44  1  0
  1 45  1  0
  2 33  1  0
  2  3  1  0
  2 46  1  6
  3  4  2  0
  3 47  1  0
  4 37  1  0
  4  5  1  0
  5  6  1  0
  6 34  1  0
  6  7  1  0
  6 48  1  6
  7  8  1  0
  7 17  1  0
  7 49  1  6
  8  9  1  0
  9 10  1  0
  9 50  1  0
  9 51  1  0
 10 16  1  0
 10 11  2  0
 11 12  1  0
 11 52  1  0
 12 13  2  0
 12 53  1  0
 13 14  1  0
 13 15  1  0
 15 16  2  0
 15 54  1  0
 16 55  1  0
 17 32  1  0
 17 37  1  0
 17 18  1  6
 18 19  1  0
 18 56  1  0
 18 57  1  0
 19 39  1  0
 19 20  1  0
 19 58  1  1
 21 20  1  6
 21 26  1  0
 21 41  1  0
 21 22  1  0
 22 23  1  0
 22 59  1  0
 22 60  1  0
 23 24  1  0
 23 61  1  0
 23 62  1  0
 24 25  1  0
 24 26  1  0
 24 63  1  1
 25 64  1  0
 25 65  1  0
 25 66  1  0
 26 27  1  0
 26 67  1  6
 27 28  1  0
 27 68  1  0
 27 69  1  0
 28 29  1  0
 28 39  1  0
 28 70  1  6
 29 30  1  0
 29 37  1  0
 29 71  1  1
 30 31  1  0
 30 72  1  0
 30 73  1  0
 31 32  1  0
 31 74  1  0
 31 75  1  0
 32 33  1  0
 32 76  1  6
 33 34  1  0
 33 77  1  6
 34 35  1  0
 34 36  1  0
 35 78  1  0
 35 79  1  0
 35 80  1  0
 36 81  1  0
 36 82  1  0
 36 83  1  0
 37 38  1  6
 38 84  1  0
 38 85  1  0
 38 86  1  0
 39 40  1  1
 39 41  1  0
 40 87  1  0
 41 42  1  0
 41 88  1  1
 42 89  1  0
 42 90  1  0
 42 91  1  0
M  END
>  <i_m_ct_stereo_status>  (210) 
1

>  <s_m_source_file>  (210) 
/var/tmp/pbs.5076255.sched01/tmppvoazpai/72cbyqjt17.sdf

>  <i_m_source_file_index>  (210) 
24

>  <i_lp_mmshare_version>  (210) 
48012

>  <i_f3d_flags>  (210) 
0

>  <s_epik_input>  (210) 
W0NIMl0xW0NIMl1bQ0BASF0oW0NIM10pW0NASF0oW0NIMl0yKVtDQEBdMShbQ0BASF0zW0NIM10pT1tDQEBIXShbQ0gyXTQpW0NAQF0zKFtPSF0pW0NAQEhdMltDQEBIXShbQ0gyXVtDSDJdNSlbQ0BAXTYoW0NIM10pQyg9W0NIXVtDQEBIXShbQ0gzXSlbQ0BIXTdbQ0BASF01W0NAQF00NjgpT1tDQEBIXShDNyhbQ0gzXSlbQ0gzXSlbQ0BIXThPW0NIMl1jOVtjSF1bY0hdYyhDbClbY0hdW2NIXTk=

>  <s_epik_cmdline>  (210) 
J2VwaWtfcHl0aG9uJywgJy1waHQnLCAnMi4wJywgJy1waCcsICc3LjAnLCAnLXRuJywgJzgnLCAnLW1hJywgJzIwMCcsICctaW1hZScsICc8aW5maWxlLm1hZT4nLCAnLW9tYWUnLCAnPG91dGZpbGUubWFlPic=

>  <r_lp_tautomer_probability>  (210) 
1

>  <r_epik_Ionization_Penalty>  (210) 
1.46986e-07

>  <r_epik_Ionization_Penalty_Charging>  (210) 
0

>  <r_epik_Ionization_Penalty_Neutral>  (210) 
1.46986e-07

>  <r_epik_State_Penalty>  (210) 
-0

>  <r_epik_Charging_Adjusted_Penalty>  (210) 
0

>  <i_epik_Tot_Q>  (210) 
0

>  <i_epik_Tot_abs_Q>  (210) 
0

>  <s_lp_Force_Field>  (210) 
OPLS3e

>  <r_lp_Energy>  (210) 
355.524

>  <b_lp_Chiralities_Consistent>  (210) 
1

>  <s_lp_Variant>  (210) 
78:0-1

>  <s_i_glide_gridfile>  (210) 
pfpi4k_grid

>  <i_i_glide_lignum>  (210) 
24

>  <i_i_glide_rotatable_bonds>  (210) 
4

>  <r_i_docking_score>  (210) 
-2.49314

>  <r_i_glide_ligand_efficiency>  (210) 
-0.0593606

>  <r_i_glide_ligand_efficiency_sa>  (210) 
-0.206339

>  <r_i_glide_ligand_efficiency_ln>  (210) 
-0.526239

>  <r_i_glide_gscore>  (210) 
-2.49314

>  <r_i_glide_lipo>  (210) 
-0.5205

>  <r_i_glide_hbond>  (210) 
0

>  <r_i_glide_metal>  (210) 
-0

>  <r_i_glide_rewards>  (210) 
0

>  <r_i_glide_evdw>  (210) 
-35.9878

>  <r_i_glide_ecoul>  (210) 
-1.60592

>  <r_i_glide_erotb>  (210) 
0.0676343

>  <r_i_glide_esite>  (210) 
0

>  <r_i_glide_emodel>  (210) 
-43.395

>  <r_i_glide_energy>  (210) 
-37.5937

>  <r_i_glide_einternal>  (210) 
0.842928

>  <r_i_glide_intrahb_reward>  (210) 
-0

>  <i_i_glide_confnum>  (210) 
2

>  <i_i_glide_posenum>  (210) 
1

>  <r_i_glide_eff_state_penalty>  (210) 
0

>  <ligand_id>  (210) 
78

>  <original_smiles>  (210) 
CC1C=C2OC3C(OCc4ccc(Cl)cc4)C45CC6OC78CCC(C)C7CC(C(CCC4C1C3(C)C)C25C)C6(O)C8C

>  <smiles>  (210) 
[H]OC12C3([H])OC4(C([H])([H])C([H])([H])C([H])(C([H])([H])[H])C4([H])C([H])([H])C1([H])C1([H])C([H])([H])C([H])([H])C4([H])C5([H])C([H])(C([H])([H])[H])C([H])=C6OC([H])(C([H])(OC([H])([H])c7c([H])c([H])c(Cl)c([H])c7[H])C4(C3([H])[H])C61C([H])([H])[H])C5(C([H])([H])[H])C([H])([H])[H])C2([H])C([H])([H])[H]

$$$$
78:0:2
     RDKit          3D

 91 99  0  0  1  0  0  0  0  0999 V2000
    8.1540  -12.7827    3.3540 C   0  0  0  0  0  0  0  0  0  0  0  0
    7.8738  -12.1723    4.7422 C   0  0  2  0  0  0  0  0  0  0  0  0
    6.5261  -12.5617    5.3156 C   0  0  0  0  0  0  0  0  0  0  0  0
    5.9972  -11.6855    6.1787 C   0  0  0  0  0  0  0  0  0  0  0  0
    6.7946  -11.3400    7.2596 O   0  0  0  0  0  0  0  0  0  0  0  0
    7.5293  -10.1142    7.2240 C   0  0  2  0  0  0  0  0  0  0  0  0
    6.5426   -8.9931    6.9332 C   0  0  1  0  0  0  0  0  0  0  0  0
    7.1475   -7.7064    7.0174 O   0  0  0  0  0  0  0  0  0  0  0  0
    7.5180   -7.2569    8.3135 C   0  0  0  0  0  0  0  0  0  0  0  0
    7.8143   -5.7743    8.2810 C   0  0  0  0  0  0  0  0  0  0  0  0
    9.1056   -5.2752    8.5448 C   0  0  0  0  0  0  0  0  0  0  0  0
    9.3551   -3.8930    8.4864 C   0  0  0  0  0  0  0  0  0  0  0  0
    8.3083   -3.0013    8.1660 C   0  0  0  0  0  0  0  0  0  0  0  0
    8.6116   -1.3063    8.0903 Cl  0  0  0  0  0  0  0  0  0  0  0  0
    7.0218   -3.4979    7.8976 C   0  0  0  0  0  0  0  0  0  0  0  0
    6.7734   -4.8792    7.9542 C   0  0  0  0  0  0  0  0  0  0  0  0
    5.8207   -9.2606    5.5749 C   0  0  1  0  0  0  0  0  0  0  0  0
    5.0109   -7.8767    5.3711 C   0  0  0  0  0  0  0  0  0  0  0  0
    4.1473   -7.6403    4.1029 C   0  0  2  0  0  0  0  0  0  0  0  0
    2.9668   -6.7361    3.7601 O   0  0  0  0  0  0  0  0  0  0  0  0
    1.5615   -7.3600    3.6874 C   0  0  1  0  0  0  0  0  0  0  0  0
    0.4230   -6.3256    3.7068 C   0  0  0  0  0  0  0  0  0  0  0  0
   -0.8790   -7.0672    3.3451 C   0  0  0  0  0  0  0  0  0  0  0  0
   -0.5866   -8.5761    3.2756 C   0  0  1  0  0  0  0  0  0  0  0  0
   -1.5239   -9.2981    2.3081 C   0  0  0  0  0  0  0  0  0  0  0  0
    0.9119   -8.6842    2.9140 C   0  0  2  0  0  0  0  0  0  0  0  0
    1.5894  -10.1849    3.2334 C   0  0  0  0  0  0  0  0  0  0  0  0
    2.8748  -10.1171    4.2320 C   0  0  1  0  0  0  0  0  0  0  0  0
    4.1788  -10.9744    4.3886 C   0  0  1  0  0  0  0  0  0  0  0  0
    5.0869  -10.9990    3.1194 C   0  0  0  0  0  0  0  0  0  0  0  0
    6.2612   -9.9824    3.0880 C   0  0  0  0  0  0  0  0  0  0  0  0
    6.9091   -9.6091    4.4492 C   0  0  2  0  0  0  0  0  0  0  0  0
    8.1242  -10.6018    4.8372 C   0  0  1  0  0  0  0  0  0  0  0  0
    8.7193  -10.2100    6.2312 C   0  0  0  0  0  0  0  0  0  0  0  0
    9.5417   -8.8977    6.1006 C   0  0  0  0  0  0  0  0  0  0  0  0
    9.7476  -11.2089    6.8302 C   0  0  0  0  0  0  0  0  0  0  0  0
    4.9681  -10.6072    5.7497 C   0  0  1  0  0  0  0  0  0  0  0  0
    3.9801  -10.5820    6.9506 C   0  0  0  0  0  0  0  0  0  0  0  0
    3.1424   -8.6771    4.0856 C   0  0  2  0  0  0  0  0  0  0  0  0
    3.4665   -8.7518    2.6273 O   0  0  0  0  0  0  0  0  0  0  0  0
    1.9191   -8.0281    4.8954 C   0  0  1  0  0  0  0  0  0  0  0  0
    2.0730   -7.1363    6.1731 C   0  0  0  0  0  0  0  0  0  0  0  0
    8.1065  -13.8700    3.3951 H   0  0  0  0  0  0  0  0  0  0  0  0
    9.1614  -12.5328    3.0343 H   0  0  0  0  0  0  0  0  0  0  0  0
    7.4789  -12.4641    2.5677 H   0  0  0  0  0  0  0  0  0  0  0  0
    8.5896  -12.7221    5.3399 H   0  0  0  0  0  0  0  0  0  0  0  0
    5.9016  -12.9748    4.5527 H   0  0  0  0  0  0  0  0  0  0  0  0
    7.9263   -9.9727    8.2296 H   0  0  0  0  0  0  0  0  0  0  0  0
    5.7994   -8.9884    7.7244 H   0  0  0  0  0  0  0  0  0  0  0  0
    6.7169   -7.4292    9.0317 H   0  0  0  0  0  0  0  0  0  0  0  0
    8.3862   -7.8017    8.6820 H   0  0  0  0  0  0  0  0  0  0  0  0
    9.9097   -5.9555    8.7885 H   0  0  0  0  0  0  0  0  0  0  0  0
   10.3469   -3.5123    8.6782 H   0  0  0  0  0  0  0  0  0  0  0  0
    6.2205   -2.8182    7.6412 H   0  0  0  0  0  0  0  0  0  0  0  0
    5.7883   -5.2640    7.7449 H   0  0  0  0  0  0  0  0  0  0  0  0
    4.4568   -7.7055    6.2833 H   0  0  0  0  0  0  0  0  0  0  0  0
    5.7155   -7.0498    5.3341 H   0  0  0  0  0  0  0  0  0  0  0  0
    4.9049   -7.4279    3.3329 H   0  0  0  0  0  0  0  0  0  0  0  0
    0.3360   -5.7856    4.6488 H   0  0  0  0  0  0  0  0  0  0  0  0
    0.6233   -5.5730    2.9427 H   0  0  0  0  0  0  0  0  0  0  0  0
   -1.6797   -6.8511    4.0565 H   0  0  0  0  0  0  0  0  0  0  0  0
   -1.2234   -6.7283    2.3666 H   0  0  0  0  0  0  0  0  0  0  0  0
   -0.7659   -8.9905    4.2691 H   0  0  0  0  0  0  0  0  0  0  0  0
   -1.4242   -8.9351    1.2853 H   0  0  0  0  0  0  0  0  0  0  0  0
   -2.5708   -9.1972    2.6064 H   0  0  0  0  0  0  0  0  0  0  0  0
   -1.2866  -10.3565    2.2891 H   0  0  0  0  0  0  0  0  0  0  0  0
    0.9902   -8.5015    1.8410 H   0  0  0  0  0  0  0  0  0  0  0  0
    0.8495  -10.8641    3.6582 H   0  0  0  0  0  0  0  0  0  0  0  0
    1.8836  -10.6556    2.2929 H   0  0  0  0  0  0  0  0  0  0  0  0
    2.3685  -10.3391    5.1656 H   0  0  0  0  0  0  0  0  0  0  0  0
    3.7998  -11.9887    4.5022 H   0  0  0  0  0  0  0  0  0  0  0  0
    5.4469  -11.9948    2.9160 H   0  0  0  0  0  0  0  0  0  0  0  0
    4.4844  -10.8762    2.2215 H   0  0  0  0  0  0  0  0  0  0  0  0
    7.0274  -10.3373    2.4008 H   0  0  0  0  0  0  0  0  0  0  0  0
    5.9272   -9.0819    2.5887 H   0  0  0  0  0  0  0  0  0  0  0  0
    7.3962   -8.6605    4.2450 H   0  0  0  0  0  0  0  0  0  0  0  0
    8.9153  -10.3965    4.1156 H   0  0  0  0  0  0  0  0  0  0  0  0
   10.4730   -9.0647    5.5565 H   0  0  0  0  0  0  0  0  0  0  0  0
    9.8183   -8.5024    7.0789 H   0  0  0  0  0  0  0  0  0  0  0  0
    9.0165   -8.1067    5.5671 H   0  0  0  0  0  0  0  0  0  0  0  0
   10.4899  -11.5124    6.0914 H   0  0  0  0  0  0  0  0  0  0  0  0
    9.2705  -12.1044    7.2297 H   0  0  0  0  0  0  0  0  0  0  0  0
   10.2840  -10.7717    7.6736 H   0  0  0  0  0  0  0  0  0  0  0  0
    3.3699   -9.6843    6.9768 H   0  0  0  0  0  0  0  0  0  0  0  0
    4.4665  -10.6529    7.9242 H   0  0  0  0  0  0  0  0  0  0  0  0
    3.3196  -11.4459    6.9018 H   0  0  0  0  0  0  0  0  0  0  0  0
    2.8977   -9.3871    2.2237 H   0  0  0  0  0  0  0  0  0  0  0  0
    1.1363   -8.7133    5.2247 H   0  0  0  0  0  0  0  0  0  0  0  0
    2.7305   -6.2733    6.0520 H   0  0  0  0  0  0  0  0  0  0  0  0
    2.4242   -7.7152    7.0244 H   0  0  0  0  0  0  0  0  0  0  0  0
    1.1030   -6.7447    6.4747 H   0  0  0  0  0  0  0  0  0  0  0  0
  1  2  1  0
  1 43  1  0
  1 44  1  0
  1 45  1  0
  2 33  1  0
  2  3  1  0
  2 46  1  1
  3  4  2  0
  3 47  1  0
  4 37  1  0
  4  5  1  0
  5  6  1  0
  6 34  1  0
  6  7  1  0
  6 48  1  1
  7  8  1  0
  7 17  1  0
  7 49  1  1
  8  9  1  0
  9 10  1  0
  9 50  1  0
  9 51  1  0
 10 16  1  0
 10 11  2  0
 11 12  1  0
 11 52  1  0
 12 13  2  0
 12 53  1  0
 13 14  1  0
 13 15  1  0
 15 16  2  0
 15 54  1  0
 16 55  1  0
 17 32  1  0
 17 37  1  0
 17 18  1  6
 18 19  1  0
 18 56  1  0
 18 57  1  0
 19 39  1  0
 19 20  1  0
 19 58  1  6
 21 20  1  6
 21 26  1  0
 21 41  1  0
 21 22  1  0
 22 23  1  0
 22 59  1  0
 22 60  1  0
 23 24  1  0
 23 61  1  0
 23 62  1  0
 24 25  1  0
 24 26  1  0
 24 63  1  1
 25 64  1  0
 25 65  1  0
 25 66  1  0
 26 27  1  0
 26 67  1  6
 27 28  1  0
 27 68  1  0
 27 69  1  0
 28 29  1  0
 28 39  1  0
 28 70  1  1
 29 30  1  0
 29 37  1  0
 29 71  1  1
 30 31  1  0
 30 72  1  0
 30 73  1  0
 31 32  1  0
 31 74  1  0
 31 75  1  0
 32 33  1  0
 32 76  1  6
 33 34  1  0
 33 77  1  6
 34 35  1  0
 34 36  1  0
 35 78  1  0
 35 79  1  0
 35 80  1  0
 36 81  1  0
 36 82  1  0
 36 83  1  0
 37 38  1  1
 38 84  1  0
 38 85  1  0
 38 86  1  0
 39 40  1  6
 39 41  1  0
 40 87  1  0
 41 42  1  0
 41 88  1  1
 42 89  1  0
 42 90  1  0
 42 91  1  0
M  END
>  <i_m_ct_stereo_status>  (211) 
1

>  <s_m_source_file>  (211) 
/var/tmp/pbs.5076255.sched01/tmppvoazpai/72cbyqjt17.sdf

>  <i_m_source_file_index>  (211) 
24

>  <i_lp_mmshare_version>  (211) 
48012

>  <i_f3d_flags>  (211) 
0

>  <s_epik_input>  (211) 
W0NIMl0xW0NIMl1bQ0BASF0oW0NIM10pW0NASF0oW0NIMl0yKVtDQEBdMShbQ0BASF0zW0NIM10pT1tDQEBIXShbQ0gyXTQpW0NAQF0zKFtPSF0pW0NAQEhdMltDQEBIXShbQ0gyXVtDSDJdNSlbQ0BAXTYoW0NIM10pQyg9W0NIXVtDQEBIXShbQ0gzXSlbQ0BIXTdbQ0BASF01W0NAQF00NjgpT1tDQEBIXShDNyhbQ0gzXSlbQ0gzXSlbQ0BIXThPW0NIMl1jOVtjSF1bY0hdYyhDbClbY0hdW2NIXTk=

>  <s_epik_cmdline>  (211) 
J2VwaWtfcHl0aG9uJywgJy1waHQnLCAnMi4wJywgJy1waCcsICc3LjAnLCAnLXRuJywgJzgnLCAnLW1hJywgJzIwMCcsICctaW1hZScsICc8aW5maWxlLm1hZT4nLCAnLW9tYWUnLCAnPG91dGZpbGUubWFlPic=

>  <r_lp_tautomer_probability>  (211) 
1

>  <r_epik_Ionization_Penalty>  (211) 
1.46986e-07

>  <r_epik_Ionization_Penalty_Charging>  (211) 
0

>  <r_epik_Ionization_Penalty_Neutral>  (211) 
1.46986e-07

>  <r_epik_State_Penalty>  (211) 
-0

>  <r_epik_Charging_Adjusted_Penalty>  (211) 
0

>  <i_epik_Tot_Q>  (211) 
0

>  <i_epik_Tot_abs_Q>  (211) 
0

>  <s_lp_Force_Field>  (211) 
OPLS3e

>  <r_lp_Energy>  (211) 
355.524

>  <b_lp_Chiralities_Consistent>  (211) 
1

>  <s_lp_Variant>  (211) 
78:0-1

>  <s_i_glide_gridfile>  (211) 
pfpi4k_grid

>  <i_i_glide_lignum>  (211) 
24

>  <i_i_glide_rotatable_bonds>  (211) 
4

>  <r_i_docking_score>  (211) 
-2.08049

>  <r_i_glide_ligand_efficiency>  (211) 
-0.0495355

>  <r_i_glide_ligand_efficiency_sa>  (211) 
-0.172187

>  <r_i_glide_ligand_efficiency_ln>  (211) 
-0.439138

>  <r_i_glide_gscore>  (211) 
-2.08049

>  <r_i_glide_lipo>  (211) 
-0.600029

>  <r_i_glide_hbond>  (211) 
0

>  <r_i_glide_metal>  (211) 
-0

>  <r_i_glide_rewards>  (211) 
0

>  <r_i_glide_evdw>  (211) 
-27.6451

>  <r_i_glide_ecoul>  (211) 
-1.10562

>  <r_i_glide_erotb>  (211) 
0.0676343

>  <r_i_glide_esite>  (211) 
0

>  <r_i_glide_emodel>  (211) 
-33.6225

>  <r_i_glide_energy>  (211) 
-28.7507

>  <r_i_glide_einternal>  (211) 
0.538141

>  <r_i_glide_intrahb_reward>  (211) 
-0

>  <i_i_glide_confnum>  (211) 
1

>  <i_i_glide_posenum>  (211) 
30

>  <r_i_glide_eff_state_penalty>  (211) 
0

>  <ligand_id>  (211) 
78

>  <original_smiles>  (211) 
CC1C=C2OC3C(OCc4ccc(Cl)cc4)C45CC6OC78CCC(C)C7CC(C(CCC4C1C3(C)C)C25C)C6(O)C8C

>  <smiles>  (211) 
[H]OC12C3([H])OC4(C([H])([H])C([H])([H])C([H])(C([H])([H])[H])C4([H])C([H])([H])C1([H])C1([H])C([H])([H])C([H])([H])C4([H])C5([H])C([H])(C([H])([H])[H])C([H])=C6OC([H])(C([H])(OC([H])([H])c7c([H])c([H])c(Cl)c([H])c7[H])C4(C3([H])[H])C61C([H])([H])[H])C5(C([H])([H])[H])C([H])([H])[H])C2([H])C([H])([H])[H]

$$$$
79:0:0
     RDKit          3D

 44 47  0  0  1  0  0  0  0  0999 V2000
    9.0808   -3.1350    0.3907 C   0  0  0  0  0  0  0  0  0  0  0  0
    7.7379   -2.4235    0.5007 C   0  0  0  0  0  0  0  0  0  0  0  0
    6.5348   -3.3868    0.7109 C   0  0  0  0  0  0  0  0  0  0  0  0
    5.1772   -2.7270    1.1177 C   0  0  2  0  0  0  0  0  0  0  0  0
    4.3923   -3.7334    1.9497 C   0  0  0  0  0  0  0  0  0  0  0  0
    3.3655   -4.5230    1.3203 C   0  0  0  0  0  0  0  0  0  0  0  0
    2.7750   -5.3393    2.2386 N   0  0  0  0  0  0  0  0  0  0  0  0
    1.6709   -6.2684    2.0487 C   0  0  0  0  0  0  0  0  0  0  0  0
    3.4000   -5.1033    3.4010 C   0  0  0  0  0  0  0  0  0  0  0  0
    3.4009   -5.4620    4.6597 N   0  0  0  0  0  0  0  0  0  0  0  0
    4.4124   -4.6856    5.1896 C   0  0  0  0  0  0  0  0  0  0  0  0
    5.0322   -3.8366    4.3386 N   0  0  0  0  0  0  0  0  0  0  0  0
    4.3522   -4.1670    3.2362 N   0  0  0  0  0  0  0  0  0  0  0  0
    2.9798   -4.2925   -0.0636 C   0  0  0  0  0  0  0  0  0  0  0  0
    3.3967   -3.2091   -0.7397 C   0  0  0  0  0  0  0  0  0  0  0  0
    2.8482   -2.9389   -2.1519 C   0  0  0  0  0  0  0  0  0  0  0  0
    3.8020   -2.1610   -3.0463 C   0  0  0  0  0  0  0  0  0  0  0  0
    3.9502   -2.4145   -4.2413 O   0  0  0  0  0  0  0  0  0  0  0  0
    4.5090   -0.9878   -2.4057 C   0  0  0  0  0  0  0  0  0  0  0  0
    5.2165   -1.4795   -1.1557 C   0  0  0  0  0  0  0  0  0  0  0  0
    4.3195   -2.1525   -0.0855 C   0  0  2  0  0  0  0  0  0  0  0  0
    3.3906   -1.0742    0.5020 C   0  0  0  0  0  0  0  0  0  0  0  0
    9.8584   -2.3979    0.1881 H   0  0  0  0  0  0  0  0  0  0  0  0
    9.0652   -3.8284   -0.4533 H   0  0  0  0  0  0  0  0  0  0  0  0
    9.3397   -3.6777    1.2992 H   0  0  0  0  0  0  0  0  0  0  0  0
    7.7489   -1.6524    1.2809 H   0  0  0  0  0  0  0  0  0  0  0  0
    7.7016   -1.8277   -0.3946 H   0  0  0  0  0  0  0  0  0  0  0  0
    6.3884   -4.0632   -0.1378 H   0  0  0  0  0  0  0  0  0  0  0  0
    6.8248   -4.0469    1.5258 H   0  0  0  0  0  0  0  0  0  0  0  0
    5.4088   -1.9109    1.8105 H   0  0  0  0  0  0  0  0  0  0  0  0
    1.7101   -7.0297    2.8266 H   0  0  0  0  0  0  0  0  0  0  0  0
    1.7399   -6.7662    1.0828 H   0  0  0  0  0  0  0  0  0  0  0  0
    0.7150   -5.7551    2.1424 H   0  0  0  0  0  0  0  0  0  0  0  0
    4.7060   -4.7352    6.2268 H   0  0  0  0  0  0  0  0  0  0  0  0
    2.3183   -5.0116   -0.5265 H   0  0  0  0  0  0  0  0  0  0  0  0
    2.5667   -3.8588   -2.6536 H   0  0  0  0  0  0  0  0  0  0  0  0
    1.9566   -2.3262   -2.0526 H   0  0  0  0  0  0  0  0  0  0  0  0
    5.2255   -0.5825   -3.1083 H   0  0  0  0  0  0  0  0  0  0  0  0
    3.7923   -0.2026   -2.1957 H   0  0  0  0  0  0  0  0  0  0  0  0
    5.9145   -2.2111   -1.5570 H   0  0  0  0  0  0  0  0  0  0  0  0
    5.7644   -0.6480   -0.7121 H   0  0  0  0  0  0  0  0  0  0  0  0
    3.9412   -0.2481    0.9503 H   0  0  0  0  0  0  0  0  0  0  0  0
    2.7299   -1.5064    1.2538 H   0  0  0  0  0  0  0  0  0  0  0  0
    2.7518   -0.6543   -0.2652 H   0  0  0  0  0  0  0  0  0  0  0  0
  1  2  1  0
  1 23  1  0
  1 24  1  0
  1 25  1  0
  2  3  1  0
  2 26  1  0
  2 27  1  0
  3  4  1  0
  3 28  1  0
  3 29  1  0
  4 21  1  0
  4  5  1  0
  4 30  1  1
  5 13  1  0
  5  6  2  0
  6  7  1  0
  6 14  1  0
  7  8  1  0
  7  9  1  0
  8 31  1  0
  8 32  1  0
  8 33  1  0
  9 13  1  0
  9 10  2  0
 10 11  1  0
 11 12  2  0
 11 34  1  0
 12 13  1  0
 14 15  2  0
 14 35  1  0
 15 21  1  0
 15 16  1  0
 16 17  1  0
 16 36  1  0
 16 37  1  0
 17 18  2  0
 17 19  1  0
 19 20  1  0
 19 38  1  0
 19 39  1  0
 20 21  1  0
 20 40  1  0
 20 41  1  0
 21 22  1  1
 22 42  1  0
 22 43  1  0
 22 44  1  0
M  END
>  <i_m_ct_stereo_status>  (212) 
1

>  <s_m_source_file>  (212) 
/var/tmp/pbs.5076255.sched01/tmppvoazpai/72cbyqjt17.sdf

>  <i_m_source_file_index>  (212) 
25

>  <i_lp_mmshare_version>  (212) 
48012

>  <i_f3d_flags>  (212) 
0

>  <s_epik_input>  (212) 
bjFbY0hdbmMobjJbQ0gzXSluMWMoW0NASF0zW0NIMl1bQ0gyXVtDSDNdKWMyW0NIXT1DKFtDQEBdMzRbQ0gzXSlbQ0gyXUMoPU8pW0NIMl1bQ0gyXTQ=

>  <s_epik_cmdline>  (212) 
J2VwaWtfcHl0aG9uJywgJy1waHQnLCAnMi4wJywgJy1waCcsICc3LjAnLCAnLXRuJywgJzgnLCAnLW1hJywgJzIwMCcsICctaW1hZScsICc8aW5maWxlLm1hZT4nLCAnLW9tYWUnLCAnPG91dGZpbGUubWFlPic=

>  <r_lp_tautomer_probability>  (212) 
0.99995

>  <r_epik_Ionization_Penalty>  (212) 
0.00566146

>  <r_epik_Ionization_Penalty_Charging>  (212) 
0

>  <r_epik_Ionization_Penalty_Neutral>  (212) 
0.00566146

>  <r_epik_State_Penalty>  (212) 
0.00415085

>  <r_epik_Charging_Adjusted_Penalty>  (212) 
0.00415085

>  <i_epik_Tot_Q>  (212) 
0

>  <i_epik_Tot_abs_Q>  (212) 
0

>  <s_lp_Force_Field>  (212) 
OPLS3e

>  <r_lp_Energy>  (212) 
30.3941

>  <b_lp_Chiralities_Consistent>  (212) 
1

>  <s_lp_Variant>  (212) 
79:0-1

>  <s_i_glide_gridfile>  (212) 
pfpi4k_grid

>  <i_i_glide_lignum>  (212) 
25

>  <i_i_glide_rotatable_bonds>  (212) 
2

>  <r_i_docking_score>  (212) 
-3.70597

>  <r_i_glide_ligand_efficiency>  (212) 
-0.168453

>  <r_i_glide_ligand_efficiency_sa>  (212) 
-0.472012

>  <r_i_glide_ligand_efficiency_ln>  (212) 
-0.905873

>  <r_i_glide_gscore>  (212) 
-3.70597

>  <r_i_glide_lipo>  (212) 
-0.469382

>  <r_i_glide_hbond>  (212) 
-0.32

>  <r_i_glide_metal>  (212) 
-0

>  <r_i_glide_rewards>  (212) 
-1.51229

>  <r_i_glide_evdw>  (212) 
-21.4097

>  <r_i_glide_ecoul>  (212) 
-3.55553

>  <r_i_glide_erotb>  (212) 
0.206107

>  <r_i_glide_esite>  (212) 
-0.00658785

>  <r_i_glide_emodel>  (212) 
-28.6666

>  <r_i_glide_energy>  (212) 
-24.9653

>  <r_i_glide_einternal>  (212) 
2.55012

>  <r_i_glide_intrahb_reward>  (212) 
-0

>  <i_i_glide_confnum>  (212) 
1

>  <i_i_glide_posenum>  (212) 
7

>  <r_i_glide_eff_state_penalty>  (212) 
0

>  <ligand_id>  (212) 
79

>  <original_smiles>  (212) 
CCCC1c2c(n(C)c3ncnn23)C=C2CC(=O)CCC21C

>  <smiles>  (212) 
[H]C1=C2C([H])([H])C(=O)C([H])([H])C([H])([H])C2(C([H])([H])[H])C([H])(C([H])([H])C([H])([H])C([H])([H])[H])c2c1n(C([H])([H])[H])c1nc([H])nn21

$$$$
79:0:1
     RDKit          3D

 44 47  0  0  1  0  0  0  0  0999 V2000
    8.2591   -6.1734    1.3683 C   0  0  0  0  0  0  0  0  0  0  0  0
    6.9795   -5.5112    1.8905 C   0  0  0  0  0  0  0  0  0  0  0  0
    6.4071   -4.4450    0.9310 C   0  0  0  0  0  0  0  0  0  0  0  0
    5.1306   -3.6904    1.4176 C   0  0  2  0  0  0  0  0  0  0  0  0
    4.1498   -4.6852    2.0266 C   0  0  0  0  0  0  0  0  0  0  0  0
    3.0581   -5.1764    1.2400 C   0  0  0  0  0  0  0  0  0  0  0  0
    2.3243   -6.0666    1.9704 N   0  0  0  0  0  0  0  0  0  0  0  0
    1.1181   -6.7720    1.5836 C   0  0  0  0  0  0  0  0  0  0  0  0
    2.9241   -6.1518    3.1735 C   0  0  0  0  0  0  0  0  0  0  0  0
    2.8272   -6.7416    4.3281 N   0  0  0  0  0  0  0  0  0  0  0  0
    3.9174   -6.2313    5.0132 C   0  0  0  0  0  0  0  0  0  0  0  0
    4.6755   -5.3338    4.3551 N   0  0  0  0  0  0  0  0  0  0  0  0
    3.9964   -5.3354    3.2057 N   0  0  0  0  0  0  0  0  0  0  0  0
    2.7897   -4.6402   -0.0886 C   0  0  0  0  0  0  0  0  0  0  0  0
    3.4192   -3.5413   -0.5477 C   0  0  0  0  0  0  0  0  0  0  0  0
    2.9942   -2.9428   -1.8917 C   0  0  0  0  0  0  0  0  0  0  0  0
    4.0780   -2.1446   -2.6027 C   0  0  0  0  0  0  0  0  0  0  0  0
    4.2151   -2.1761   -3.8253 O   0  0  0  0  0  0  0  0  0  0  0  0
    4.9280   -1.2366   -1.7250 C   0  0  0  0  0  0  0  0  0  0  0  0
    5.5077   -2.0556   -0.5663 C   0  0  0  0  0  0  0  0  0  0  0  0
    4.4428   -2.7704    0.3198 C   0  0  2  0  0  0  0  0  0  0  0  0
    3.6250   -1.6898    1.0678 C   0  0  0  0  0  0  0  0  0  0  0  0
    8.6198   -6.9210    2.0756 H   0  0  0  0  0  0  0  0  0  0  0  0
    9.0549   -5.4442    1.2242 H   0  0  0  0  0  0  0  0  0  0  0  0
    8.0859   -6.6826    0.4204 H   0  0  0  0  0  0  0  0  0  0  0  0
    6.2526   -6.3053    2.0646 H   0  0  0  0  0  0  0  0  0  0  0  0
    7.1802   -5.0581    2.8615 H   0  0  0  0  0  0  0  0  0  0  0  0
    7.1947   -3.7183    0.7342 H   0  0  0  0  0  0  0  0  0  0  0  0
    6.1931   -4.9373   -0.0180 H   0  0  0  0  0  0  0  0  0  0  0  0
    5.4561   -3.0549    2.2436 H   0  0  0  0  0  0  0  0  0  0  0  0
    1.0121   -7.6671    2.1960 H   0  0  0  0  0  0  0  0  0  0  0  0
    1.1606   -7.0736    0.5368 H   0  0  0  0  0  0  0  0  0  0  0  0
    0.2451   -6.1447    1.7556 H   0  0  0  0  0  0  0  0  0  0  0  0
    4.1540   -6.5260    6.0287 H   0  0  0  0  0  0  0  0  0  0  0  0
    2.0507   -5.1402   -0.6986 H   0  0  0  0  0  0  0  0  0  0  0  0
    2.5708   -3.6944   -2.5584 H   0  0  0  0  0  0  0  0  0  0  0  0
    2.2106   -2.2228   -1.6756 H   0  0  0  0  0  0  0  0  0  0  0  0
    5.7237   -0.7875   -2.3174 H   0  0  0  0  0  0  0  0  0  0  0  0
    4.3110   -0.4110   -1.3717 H   0  0  0  0  0  0  0  0  0  0  0  0
    6.1782   -2.7800   -1.0271 H   0  0  0  0  0  0  0  0  0  0  0  0
    6.1332   -1.4088    0.0480 H   0  0  0  0  0  0  0  0  0  0  0  0
    4.2598   -1.0473    1.6784 H   0  0  0  0  0  0  0  0  0  0  0  0
    2.8865   -2.1483    1.7277 H   0  0  0  0  0  0  0  0  0  0  0  0
    3.0636   -1.0527    0.3837 H   0  0  0  0  0  0  0  0  0  0  0  0
  1  2  1  0
  1 23  1  0
  1 24  1  0
  1 25  1  0
  2  3  1  0
  2 26  1  0
  2 27  1  0
  3  4  1  0
  3 28  1  0
  3 29  1  0
  4 21  1  0
  4  5  1  0
  4 30  1  1
  5 13  1  0
  5  6  2  0
  6  7  1  0
  6 14  1  0
  7  8  1  0
  7  9  1  0
  8 31  1  0
  8 32  1  0
  8 33  1  0
  9 13  1  0
  9 10  2  0
 10 11  1  0
 11 12  2  0
 11 34  1  0
 12 13  1  0
 14 15  2  0
 14 35  1  0
 15 21  1  0
 15 16  1  0
 16 17  1  0
 16 36  1  0
 16 37  1  0
 17 18  2  0
 17 19  1  0
 19 20  1  0
 19 38  1  0
 19 39  1  0
 20 21  1  0
 20 40  1  0
 20 41  1  0
 21 22  1  1
 22 42  1  0
 22 43  1  0
 22 44  1  0
M  END
>  <i_m_ct_stereo_status>  (213) 
1

>  <s_m_source_file>  (213) 
/var/tmp/pbs.5076255.sched01/tmppvoazpai/72cbyqjt17.sdf

>  <i_m_source_file_index>  (213) 
25

>  <i_lp_mmshare_version>  (213) 
48012

>  <i_f3d_flags>  (213) 
0

>  <s_epik_input>  (213) 
bjFbY0hdbmMobjJbQ0gzXSluMWMoW0NASF0zW0NIMl1bQ0gyXVtDSDNdKWMyW0NIXT1DKFtDQEBdMzRbQ0gzXSlbQ0gyXUMoPU8pW0NIMl1bQ0gyXTQ=

>  <s_epik_cmdline>  (213) 
J2VwaWtfcHl0aG9uJywgJy1waHQnLCAnMi4wJywgJy1waCcsICc3LjAnLCAnLXRuJywgJzgnLCAnLW1hJywgJzIwMCcsICctaW1hZScsICc8aW5maWxlLm1hZT4nLCAnLW9tYWUnLCAnPG91dGZpbGUubWFlPic=

>  <r_lp_tautomer_probability>  (213) 
0.99995

>  <r_epik_Ionization_Penalty>  (213) 
0.00566146

>  <r_epik_Ionization_Penalty_Charging>  (213) 
0

>  <r_epik_Ionization_Penalty_Neutral>  (213) 
0.00566146

>  <r_epik_State_Penalty>  (213) 
0.00415085

>  <r_epik_Charging_Adjusted_Penalty>  (213) 
0.00415085

>  <i_epik_Tot_Q>  (213) 
0

>  <i_epik_Tot_abs_Q>  (213) 
0

>  <s_lp_Force_Field>  (213) 
OPLS3e

>  <r_lp_Energy>  (213) 
30.3941

>  <b_lp_Chiralities_Consistent>  (213) 
1

>  <s_lp_Variant>  (213) 
79:0-1

>  <s_i_glide_gridfile>  (213) 
pfpi4k_grid

>  <i_i_glide_lignum>  (213) 
25

>  <i_i_glide_rotatable_bonds>  (213) 
2

>  <r_i_docking_score>  (213) 
-3.01874

>  <r_i_glide_ligand_efficiency>  (213) 
-0.137215

>  <r_i_glide_ligand_efficiency_sa>  (213) 
-0.384483

>  <r_i_glide_ligand_efficiency_ln>  (213) 
-0.73789

>  <r_i_glide_gscore>  (213) 
-3.01874

>  <r_i_glide_lipo>  (213) 
-0.239517

>  <r_i_glide_hbond>  (213) 
-0.0858939

>  <r_i_glide_metal>  (213) 
-0

>  <r_i_glide_rewards>  (213) 
-1.44465

>  <r_i_glide_evdw>  (213) 
-21.4924

>  <r_i_glide_ecoul>  (213) 
-2.43269

>  <r_i_glide_erotb>  (213) 
0.206107

>  <r_i_glide_esite>  (213) 
-0.0152652

>  <r_i_glide_emodel>  (213) 
-28.2132

>  <r_i_glide_energy>  (213) 
-23.9251

>  <r_i_glide_einternal>  (213) 
0.20242

>  <r_i_glide_intrahb_reward>  (213) 
-0

>  <i_i_glide_confnum>  (213) 
1

>  <i_i_glide_posenum>  (213) 
1

>  <r_i_glide_eff_state_penalty>  (213) 
0

>  <ligand_id>  (213) 
79

>  <original_smiles>  (213) 
CCCC1c2c(n(C)c3ncnn23)C=C2CC(=O)CCC21C

>  <smiles>  (213) 
[H]C1=C2C([H])([H])C(=O)C([H])([H])C([H])([H])C2(C([H])([H])[H])C([H])(C([H])([H])C([H])([H])C([H])([H])[H])c2c1n(C([H])([H])[H])c1nc([H])nn21

$$$$
79:0:2
     RDKit          3D

 44 47  0  0  1  0  0  0  0  0999 V2000
    2.3754   -3.8497   -0.6262 C   0  0  0  0  0  0  0  0  0  0  0  0
    2.4867   -4.4546    0.7674 C   0  0  0  0  0  0  0  0  0  0  0  0
    3.9141   -4.6812    1.3555 C   0  0  0  0  0  0  0  0  0  0  0  0
    4.8642   -3.4409    1.5209 C   0  0  2  0  0  0  0  0  0  0  0  0
    4.2611   -2.4823    2.5280 C   0  0  0  0  0  0  0  0  0  0  0  0
    3.5581   -1.3089    2.0785 C   0  0  0  0  0  0  0  0  0  0  0  0
    3.0746   -0.6310    3.1370 N   0  0  0  0  0  0  0  0  0  0  0  0
    2.3288    0.6165    3.1338 C   0  0  0  0  0  0  0  0  0  0  0  0
    3.4697   -1.2899    4.2426 C   0  0  0  0  0  0  0  0  0  0  0  0
    3.4308   -1.2386    5.5415 N   0  0  0  0  0  0  0  0  0  0  0  0
    4.1324   -2.3566    5.9024 C   0  0  0  0  0  0  0  0  0  0  0  0
    4.6272   -3.1232    4.9085 N   0  0  0  0  0  0  0  0  0  0  0  0
    4.1638   -2.3872    3.8965 N   0  0  0  0  0  0  0  0  0  0  0  0
    3.5951   -0.9320    0.6501 C   0  0  0  0  0  0  0  0  0  0  0  0
    4.4092   -1.4926   -0.2238 C   0  0  0  0  0  0  0  0  0  0  0  0
    4.3211   -1.1357   -1.7230 C   0  0  0  0  0  0  0  0  0  0  0  0
    4.6332   -2.2556   -2.7196 C   0  0  0  0  0  0  0  0  0  0  0  0
    4.0806   -2.3413   -3.8262 O   0  0  0  0  0  0  0  0  0  0  0  0
    5.7957   -3.1738   -2.3632 C   0  0  0  0  0  0  0  0  0  0  0  0
    5.5895   -3.7445   -0.9627 C   0  0  0  0  0  0  0  0  0  0  0  0
    5.3322   -2.7030    0.1771 C   0  0  2  0  0  0  0  0  0  0  0  0
    6.6520   -1.9883    0.4425 C   0  0  0  0  0  0  0  0  0  0  0  0
    1.4143   -3.5385   -0.9838 H   0  0  0  0  0  0  0  0  0  0  0  0
    2.9096   -4.3272   -1.4414 H   0  0  0  0  0  0  0  0  0  0  0  0
    2.7617   -2.8925   -0.5635 H   0  0  0  0  0  0  0  0  0  0  0  0
    1.9252   -3.8247    1.4637 H   0  0  0  0  0  0  0  0  0  0  0  0
    1.9743   -5.4009    0.6688 H   0  0  0  0  0  0  0  0  0  0  0  0
    3.7508   -5.1268    2.3510 H   0  0  0  0  0  0  0  0  0  0  0  0
    4.4060   -5.4828    0.8083 H   0  0  0  0  0  0  0  0  0  0  0  0
    5.7572   -3.8490    1.9946 H   0  0  0  0  0  0  0  0  0  0  0  0
    1.7769    0.7265    4.0679 H   0  0  0  0  0  0  0  0  0  0  0  0
    1.6169    0.6192    2.3069 H   0  0  0  0  0  0  0  0  0  0  0  0
    3.0177    1.4552    3.0304 H   0  0  0  0  0  0  0  0  0  0  0  0
    4.2896   -2.6297    6.9530 H   0  0  0  0  0  0  0  0  0  0  0  0
    2.8101   -0.2442    0.3176 H   0  0  0  0  0  0  0  0  0  0  0  0
    3.3323   -0.7127   -1.9683 H   0  0  0  0  0  0  0  0  0  0  0  0
    5.0647   -0.3651   -1.8563 H   0  0  0  0  0  0  0  0  0  0  0  0
    5.8876   -3.9632   -3.1097 H   0  0  0  0  0  0  0  0  0  0  0  0
    6.7176   -2.5982   -2.3860 H   0  0  0  0  0  0  0  0  0  0  0  0
    4.8123   -4.5002   -1.0800 H   0  0  0  0  0  0  0  0  0  0  0  0
    6.3850   -4.4324   -0.6994 H   0  0  0  0  0  0  0  0  0  0  0  0
    7.4473   -2.6852    0.6960 H   0  0  0  0  0  0  0  0  0  0  0  0
    6.5304   -1.2643    1.2520 H   0  0  0  0  0  0  0  0  0  0  0  0
    6.9484   -1.4273   -0.4455 H   0  0  0  0  0  0  0  0  0  0  0  0
  1  2  1  0
  1 23  1  0
  1 24  1  0
  1 25  1  0
  2  3  1  0
  2 26  1  0
  2 27  1  0
  3  4  1  0
  3 28  1  0
  3 29  1  0
  4 21  1  0
  4  5  1  0
  4 30  1  1
  5 13  1  0
  5  6  2  0
  6  7  1  0
  6 14  1  0
  7  8  1  0
  7  9  1  0
  8 31  1  0
  8 32  1  0
  8 33  1  0
  9 13  1  0
  9 10  2  0
 10 11  1  0
 11 12  2  0
 11 34  1  0
 12 13  1  0
 14 15  2  0
 14 35  1  0
 15 21  1  0
 15 16  1  0
 16 17  1  0
 16 36  1  0
 16 37  1  0
 17 18  2  0
 17 19  1  0
 19 20  1  0
 19 38  1  0
 19 39  1  0
 20 21  1  0
 20 40  1  0
 20 41  1  0
 21 22  1  1
 22 42  1  0
 22 43  1  0
 22 44  1  0
M  END
>  <i_m_ct_stereo_status>  (214) 
1

>  <s_m_source_file>  (214) 
/var/tmp/pbs.5076255.sched01/tmppvoazpai/72cbyqjt17.sdf

>  <i_m_source_file_index>  (214) 
25

>  <i_lp_mmshare_version>  (214) 
48012

>  <i_f3d_flags>  (214) 
0

>  <s_epik_input>  (214) 
bjFbY0hdbmMobjJbQ0gzXSluMWMoW0NASF0zW0NIMl1bQ0gyXVtDSDNdKWMyW0NIXT1DKFtDQEBdMzRbQ0gzXSlbQ0gyXUMoPU8pW0NIMl1bQ0gyXTQ=

>  <s_epik_cmdline>  (214) 
J2VwaWtfcHl0aG9uJywgJy1waHQnLCAnMi4wJywgJy1waCcsICc3LjAnLCAnLXRuJywgJzgnLCAnLW1hJywgJzIwMCcsICctaW1hZScsICc8aW5maWxlLm1hZT4nLCAnLW9tYWUnLCAnPG91dGZpbGUubWFlPic=

>  <r_lp_tautomer_probability>  (214) 
0.99995

>  <r_epik_Ionization_Penalty>  (214) 
0.00566146

>  <r_epik_Ionization_Penalty_Charging>  (214) 
0

>  <r_epik_Ionization_Penalty_Neutral>  (214) 
0.00566146

>  <r_epik_State_Penalty>  (214) 
0.00415085

>  <r_epik_Charging_Adjusted_Penalty>  (214) 
0.00415085

>  <i_epik_Tot_Q>  (214) 
0

>  <i_epik_Tot_abs_Q>  (214) 
0

>  <s_lp_Force_Field>  (214) 
OPLS3e

>  <r_lp_Energy>  (214) 
30.3941

>  <b_lp_Chiralities_Consistent>  (214) 
1

>  <s_lp_Variant>  (214) 
79:0-1

>  <s_i_glide_gridfile>  (214) 
pfpi4k_grid

>  <i_i_glide_lignum>  (214) 
25

>  <i_i_glide_rotatable_bonds>  (214) 
2

>  <r_i_docking_score>  (214) 
-2.77932

>  <r_i_glide_ligand_efficiency>  (214) 
-0.126333

>  <r_i_glide_ligand_efficiency_sa>  (214) 
-0.353989

>  <r_i_glide_ligand_efficiency_ln>  (214) 
-0.679367

>  <r_i_glide_gscore>  (214) 
-2.77932

>  <r_i_glide_lipo>  (214) 
-0.399085

>  <r_i_glide_hbond>  (214) 
-0.0936886

>  <r_i_glide_metal>  (214) 
-0

>  <r_i_glide_rewards>  (214) 
-1.53641

>  <r_i_glide_evdw>  (214) 
-21.4734

>  <r_i_glide_ecoul>  (214) 
-2.0466

>  <r_i_glide_erotb>  (214) 
0.206107

>  <r_i_glide_esite>  (214) 
-0.00163847

>  <r_i_glide_emodel>  (214) 
-21.6877

>  <r_i_glide_energy>  (214) 
-23.52

>  <r_i_glide_einternal>  (214) 
1.98182

>  <r_i_glide_intrahb_reward>  (214) 
-0

>  <i_i_glide_confnum>  (214) 
5

>  <i_i_glide_posenum>  (214) 
22

>  <r_i_glide_eff_state_penalty>  (214) 
0

>  <ligand_id>  (214) 
79

>  <original_smiles>  (214) 
CCCC1c2c(n(C)c3ncnn23)C=C2CC(=O)CCC21C

>  <smiles>  (214) 
[H]C1=C2C([H])([H])C(=O)C([H])([H])C([H])([H])C2(C([H])([H])[H])C([H])(C([H])([H])C([H])([H])C([H])([H])[H])c2c1n(C([H])([H])[H])c1nc([H])nn21

$$$$
80:0:0
     RDKit          3D

 48 51  0  0  1  0  0  0  0  0999 V2000
    0.3065   -6.2758    2.5259 O   0  0  0  0  0  0  0  0  0  0  0  0
    1.1016   -7.1028    2.9805 C   0  0  0  0  0  0  0  0  0  0  0  0
    2.5657   -6.7060    3.1821 C   0  0  0  0  0  0  0  0  0  0  0  0
    2.7371   -5.5069    4.1458 C   0  0  0  0  0  0  0  0  0  0  0  0
    2.1783   -3.9134    3.4500 S   0  0  0  0  0  0  0  0  0  0  0  0
    3.3100   -3.5590    2.0921 C   0  0  0  0  0  0  0  0  0  0  0  0
    2.8637   -2.9235    1.0820 N   0  0  0  0  0  0  0  0  0  0  0  0
    3.6806   -2.7121    0.0504 C   0  0  0  0  0  0  0  0  0  0  0  0
    3.4127   -1.8976   -0.9730 N   0  0  0  0  0  0  0  0  0  0  0  0
    4.4564   -1.9450   -1.8683 C   0  0  0  0  0  0  0  0  0  0  0  0
    5.3800   -2.8368   -1.3607 C   0  0  0  0  0  0  0  0  0  0  0  0
    4.8837   -3.2738   -0.1548 N   0  0  0  0  0  0  0  0  0  0  0  0
    5.4268   -4.2794    0.8024 C   0  0  0  0  0  0  0  0  0  0  0  0
    6.9746   -4.1698    0.8968 C   0  0  0  0  0  0  0  0  0  0  0  0
    7.5921   -5.2602    1.7983 C   0  0  0  0  0  0  0  0  0  0  0  0
    7.2139   -6.6632    1.3181 C   0  0  0  0  0  0  0  0  0  0  0  0
    5.6924   -6.8247    1.1954 C   0  0  0  0  0  0  0  0  0  0  0  0
    5.0612   -5.7133    0.3204 C   0  0  0  0  0  0  0  0  0  0  0  0
    4.7941   -3.9596    2.1871 C   0  0  0  0  0  0  0  0  0  0  0  0
    0.7770   -8.3634    3.3179 N   0  0  0  0  0  0  0  0  0  0  0  0
   -0.5049   -9.0004    3.2544 C   0  0  0  0  0  0  0  0  0  0  0  0
   -1.4374   -8.6935    2.1034 C   0  0  0  0  0  0  0  0  0  0  0  0
   -1.7751   -8.2099    3.5004 C   0  0  0  0  0  0  0  0  0  0  0  0
    3.1268   -7.5656    3.5672 H   0  0  0  0  0  0  0  0  0  0  0  0
    2.9522   -6.4851    2.1894 H   0  0  0  0  0  0  0  0  0  0  0  0
    2.1744   -5.6924    5.0613 H   0  0  0  0  0  0  0  0  0  0  0  0
    3.7776   -5.4324    4.4572 H   0  0  0  0  0  0  0  0  0  0  0  0
    4.4584   -1.3683   -2.7892 H   0  0  0  0  0  0  0  0  0  0  0  0
    6.3254   -3.1836   -1.7651 H   0  0  0  0  0  0  0  0  0  0  0  0
    7.4129   -4.2742   -0.0972 H   0  0  0  0  0  0  0  0  0  0  0  0
    7.2624   -3.1787    1.2562 H   0  0  0  0  0  0  0  0  0  0  0  0
    8.6754   -5.1531    1.8018 H   0  0  0  0  0  0  0  0  0  0  0  0
    7.2686   -5.1229    2.8291 H   0  0  0  0  0  0  0  0  0  0  0  0
    7.6958   -6.8482    0.3606 H   0  0  0  0  0  0  0  0  0  0  0  0
    7.6116   -7.4093    2.0037 H   0  0  0  0  0  0  0  0  0  0  0  0
    5.4467   -7.8015    0.7829 H   0  0  0  0  0  0  0  0  0  0  0  0
    5.2562   -6.8238    2.1933 H   0  0  0  0  0  0  0  0  0  0  0  0
    3.9771   -5.8433    0.2698 H   0  0  0  0  0  0  0  0  0  0  0  0
    5.4073   -5.8399   -0.7077 H   0  0  0  0  0  0  0  0  0  0  0  0
    5.3144   -3.1139    2.6456 H   0  0  0  0  0  0  0  0  0  0  0  0
    4.9356   -4.7881    2.8670 H   0  0  0  0  0  0  0  0  0  0  0  0
    1.5269   -8.9552    3.6509 H   0  0  0  0  0  0  0  0  0  0  0  0
   -0.5247  -10.0258    3.6230 H   0  0  0  0  0  0  0  0  0  0  0  0
   -1.0657   -7.9852    1.3629 H   0  0  0  0  0  0  0  0  0  0  0  0
   -2.0263   -9.5144    1.7039 H   0  0  0  0  0  0  0  0  0  0  0  0
   -2.5799   -8.7237    4.0175 H   0  0  0  0  0  0  0  0  0  0  0  0
   -1.6669   -7.1536    3.7490 H   0  0  0  0  0  0  0  0  0  0  0  0
    2.5253   -1.3891   -1.0701 H   0  0  0  0  0  0  0  0  0  0  0  0
  1  2  2  0
  2  3  1  0
  2 20  1  0
  3  4  1  0
  3 24  1  0
  3 25  1  0
  4  5  1  0
  4 26  1  0
  4 27  1  0
  5  6  1  0
  6 19  1  0
  6  7  2  0
  7  8  1  0
  8 12  1  0
  8  9  2  0
  9 10  1  0
  9 48  1  0
 10 11  2  0
 10 28  1  0
 11 12  1  0
 11 29  1  0
 12 13  1  0
 13 18  1  0
 13 14  1  0
 13 19  1  0
 14 15  1  0
 14 30  1  0
 14 31  1  0
 15 16  1  0
 15 32  1  0
 15 33  1  0
 16 17  1  0
 16 34  1  0
 16 35  1  0
 17 18  1  0
 17 36  1  0
 17 37  1  0
 18 38  1  0
 18 39  1  0
 19 40  1  0
 19 41  1  0
 20 21  1  0
 20 42  1  0
 21 23  1  0
 21 22  1  0
 21 43  1  0
 22 23  1  0
 22 44  1  0
 22 45  1  0
 23 46  1  0
 23 47  1  0
M  CHG  1   9   1
M  END
>  <i_m_ct_stereo_status>  (215) 
1

>  <s_m_source_file>  (215) 
/var/tmp/pbs.5076255.sched01/tmppvoazpai/72cbyqjt17.sdf

>  <i_m_source_file_index>  (215) 
26

>  <i_lp_mmshare_version>  (215) 
48012

>  <i_f3d_flags>  (215) 
0

>  <s_epik_input>  (215) 
W0NIMl0xW0NIMl1bQ0hdMVtOSF1DKD1PKVtDSDJdW0NIMl1TQyhbQ0gyXTIpPU5jKG5bY0hdW2NIXTMpbjNDMjRbQ0gyXVtDSDJdW0NIMl1bQ0gyXVtDSDJdNA==

>  <s_epik_cmdline>  (215) 
J2VwaWtfcHl0aG9uJywgJy1waHQnLCAnMi4wJywgJy1waCcsICc3LjAnLCAnLXRuJywgJzgnLCAnLW1hJywgJzIwMCcsICctaW1hZScsICc8aW5maWxlLm1hZT4nLCAnLW9tYWUnLCAnPG91dGZpbGUubWFlPic=

>  <r_lp_tautomer_probability>  (215) 
0.999601

>  <r_epik_Ionization_Penalty>  (215) 
0.00573367

>  <r_epik_Ionization_Penalty_Charging>  (215) 
0

>  <r_epik_Ionization_Penalty_Neutral>  (215) 
0.00573367

>  <r_epik_State_Penalty>  (215) 
0.00420707

>  <r_epik_Charging_Adjusted_Penalty>  (215) 
0.00420707

>  <i_epik_Tot_Q>  (215) 
1

>  <i_epik_Tot_abs_Q>  (215) 
1

>  <s_epik_Chemistry_Notes>  (215) 
This compound has an imine and may undergo hydrolysis.

>  <s_lp_Force_Field>  (215) 
OPLS3e

>  <r_lp_Energy>  (215) 
27.9192

>  <b_lp_Chiralities_Consistent>  (215) 
1

>  <s_lp_Variant>  (215) 
80:0-1

>  <s_i_glide_gridfile>  (215) 
pfpi4k_grid

>  <i_i_glide_lignum>  (215) 
26

>  <i_i_glide_rotatable_bonds>  (215) 
6

>  <r_i_docking_score>  (215) 
-3.23789

>  <r_i_glide_ligand_efficiency>  (215) 
-0.140778

>  <r_i_glide_ligand_efficiency_sa>  (215) 
-0.400353

>  <r_i_glide_ligand_efficiency_ln>  (215) 
-0.78295

>  <r_i_glide_gscore>  (215) 
-3.23789

>  <r_i_glide_lipo>  (215) 
-0.612261

>  <r_i_glide_hbond>  (215) 
-0.321732

>  <r_i_glide_metal>  (215) 
-0

>  <r_i_glide_rewards>  (215) 
-1.18672

>  <r_i_glide_evdw>  (215) 
-23.1101

>  <r_i_glide_ecoul>  (215) 
-3.23336

>  <r_i_glide_erotb>  (215) 
0.67796

>  <r_i_glide_esite>  (215) 
-0.154623

>  <r_i_glide_emodel>  (215) 
-27.9734

>  <r_i_glide_energy>  (215) 
-26.3434

>  <r_i_glide_einternal>  (215) 
12.6667

>  <r_i_glide_intrahb_reward>  (215) 
-0

>  <i_i_glide_confnum>  (215) 
3

>  <i_i_glide_posenum>  (215) 
9

>  <r_i_glide_eff_state_penalty>  (215) 
0

>  <ligand_id>  (215) 
80

>  <original_smiles>  (215) 
O=C(CCSC1=Nc2nccn2C2(CCCCC2)C1)NC1CC1

>  <smiles>  (215) 
[H]c1c([H])[n+]([H])c2n1C1(C([H])([H])C(SC([H])([H])C([H])([H])C(=O)N([H])C3([H])C([H])([H])C3([H])[H])=N2)C([H])([H])C([H])([H])C([H])([H])C([H])([H])C1([H])[H]

$$$$
80:0:1
     RDKit          3D

 48 51  0  0  1  0  0  0  0  0999 V2000
    0.1330   -5.0789    4.8370 O   0  0  0  0  0  0  0  0  0  0  0  0
    0.7820   -5.9608    4.2776 C   0  0  0  0  0  0  0  0  0  0  0  0
    2.3047   -5.8478    4.1459 C   0  0  0  0  0  0  0  0  0  0  0  0
    2.9186   -4.5772    4.7806 C   0  0  0  0  0  0  0  0  0  0  0  0
    2.4663   -3.0451    3.8964 S   0  0  0  0  0  0  0  0  0  0  0  0
    3.3588   -3.0973    2.3254 C   0  0  0  0  0  0  0  0  0  0  0  0
    2.7886   -2.6173    1.2958 N   0  0  0  0  0  0  0  0  0  0  0  0
    3.4164   -2.7124    0.1177 C   0  0  0  0  0  0  0  0  0  0  0  0
    3.0166   -2.0961   -0.9924 N   0  0  0  0  0  0  0  0  0  0  0  0
    3.8803   -2.4313   -2.0112 C   0  0  0  0  0  0  0  0  0  0  0  0
    4.8046   -3.3160   -1.4895 C   0  0  0  0  0  0  0  0  0  0  0  0
    4.5090   -3.4502   -0.1532 N   0  0  0  0  0  0  0  0  0  0  0  0
    5.1187   -4.3054    0.8899 C   0  0  0  0  0  0  0  0  0  0  0  0
    6.6586   -4.3768    0.7077 C   0  0  0  0  0  0  0  0  0  0  0  0
    7.3296   -5.3538    1.6940 C   0  0  0  0  0  0  0  0  0  0  0  0
    6.7385   -6.7596    1.5929 C   0  0  0  0  0  0  0  0  0  0  0  0
    5.2138   -6.7438    1.7615 C   0  0  0  0  0  0  0  0  0  0  0  0
    4.5375   -5.7477    0.7873 C   0  0  0  0  0  0  0  0  0  0  0  0
    4.7880   -3.6466    2.2611 C   0  0  0  0  0  0  0  0  0  0  0  0
    0.2202   -7.0569    3.7459 N   0  0  0  0  0  0  0  0  0  0  0  0
   -1.1793   -7.3379    3.7165 C   0  0  0  0  0  0  0  0  0  0  0  0
   -1.6230   -8.7840    3.6591 C   0  0  0  0  0  0  0  0  0  0  0  0
   -1.7101   -7.9253    2.4329 C   0  0  0  0  0  0  0  0  0  0  0  0
    2.7445   -6.7261    4.6281 H   0  0  0  0  0  0  0  0  0  0  0  0
    2.5509   -5.9116    3.0853 H   0  0  0  0  0  0  0  0  0  0  0  0
    2.5798   -4.4841    5.8120 H   0  0  0  0  0  0  0  0  0  0  0  0
    3.9994   -4.6774    4.8551 H   0  0  0  0  0  0  0  0  0  0  0  0
    3.7636   -2.0432   -3.0207 H   0  0  0  0  0  0  0  0  0  0  0  0
    5.6260   -3.8475   -1.9680 H   0  0  0  0  0  0  0  0  0  0  0  0
    6.8865   -4.7121   -0.3059 H   0  0  0  0  0  0  0  0  0  0  0  0
    7.0960   -3.3744    0.7962 H   0  0  0  0  0  0  0  0  0  0  0  0
    8.4032   -5.3828    1.4975 H   0  0  0  0  0  0  0  0  0  0  0  0
    7.2105   -5.0198    2.7197 H   0  0  0  0  0  0  0  0  0  0  0  0
    7.0034   -7.1740    0.6290 H   0  0  0  0  0  0  0  0  0  0  0  0
    7.1914   -7.4042    2.3437 H   0  0  0  0  0  0  0  0  0  0  0  0
    4.8134   -7.7430    1.5966 H   0  0  0  0  0  0  0  0  0  0  0  0
    4.9633   -6.5015    2.7923 H   0  0  0  0  0  0  0  0  0  0  0  0
    3.4570   -5.7442    0.9479 H   0  0  0  0  0  0  0  0  0  0  0  0
    4.6739   -6.1144   -0.2322 H   0  0  0  0  0  0  0  0  0  0  0  0
    5.4587   -2.8023    2.4360 H   0  0  0  0  0  0  0  0  0  0  0  0
    4.9838   -4.3436    3.0677 H   0  0  0  0  0  0  0  0  0  0  0  0
    0.8287   -7.7701    3.3644 H   0  0  0  0  0  0  0  0  0  0  0  0
   -1.8436   -6.6678    4.2658 H   0  0  0  0  0  0  0  0  0  0  0  0
   -0.8663   -9.5674    3.6731 H   0  0  0  0  0  0  0  0  0  0  0  0
   -2.5693   -9.0478    4.1252 H   0  0  0  0  0  0  0  0  0  0  0  0
   -2.7014   -7.6165    2.1202 H   0  0  0  0  0  0  0  0  0  0  0  0
   -0.9988   -8.1258    1.6322 H   0  0  0  0  0  0  0  0  0  0  0  0
    2.1811   -1.4861   -1.0447 H   0  0  0  0  0  0  0  0  0  0  0  0
  1  2  2  0
  2  3  1  0
  2 20  1  0
  3  4  1  0
  3 24  1  0
  3 25  1  0
  4  5  1  0
  4 26  1  0
  4 27  1  0
  5  6  1  0
  6 19  1  0
  6  7  2  0
  7  8  1  0
  8 12  1  0
  8  9  2  0
  9 10  1  0
  9 48  1  0
 10 11  2  0
 10 28  1  0
 11 12  1  0
 11 29  1  0
 12 13  1  0
 13 18  1  0
 13 14  1  0
 13 19  1  0
 14 15  1  0
 14 30  1  0
 14 31  1  0
 15 16  1  0
 15 32  1  0
 15 33  1  0
 16 17  1  0
 16 34  1  0
 16 35  1  0
 17 18  1  0
 17 36  1  0
 17 37  1  0
 18 38  1  0
 18 39  1  0
 19 40  1  0
 19 41  1  0
 20 21  1  0
 20 42  1  0
 21 23  1  0
 21 22  1  0
 21 43  1  0
 22 23  1  0
 22 44  1  0
 22 45  1  0
 23 46  1  0
 23 47  1  0
M  CHG  1   9   1
M  END
>  <i_m_ct_stereo_status>  (216) 
1

>  <s_m_source_file>  (216) 
/var/tmp/pbs.5076255.sched01/tmppvoazpai/72cbyqjt17.sdf

>  <i_m_source_file_index>  (216) 
26

>  <i_lp_mmshare_version>  (216) 
48012

>  <i_f3d_flags>  (216) 
0

>  <s_epik_input>  (216) 
W0NIMl0xW0NIMl1bQ0hdMVtOSF1DKD1PKVtDSDJdW0NIMl1TQyhbQ0gyXTIpPU5jKG5bY0hdW2NIXTMpbjNDMjRbQ0gyXVtDSDJdW0NIMl1bQ0gyXVtDSDJdNA==

>  <s_epik_cmdline>  (216) 
J2VwaWtfcHl0aG9uJywgJy1waHQnLCAnMi4wJywgJy1waCcsICc3LjAnLCAnLXRuJywgJzgnLCAnLW1hJywgJzIwMCcsICctaW1hZScsICc8aW5maWxlLm1hZT4nLCAnLW9tYWUnLCAnPG91dGZpbGUubWFlPic=

>  <r_lp_tautomer_probability>  (216) 
0.999601

>  <r_epik_Ionization_Penalty>  (216) 
0.00573367

>  <r_epik_Ionization_Penalty_Charging>  (216) 
0

>  <r_epik_Ionization_Penalty_Neutral>  (216) 
0.00573367

>  <r_epik_State_Penalty>  (216) 
0.00420707

>  <r_epik_Charging_Adjusted_Penalty>  (216) 
0.00420707

>  <i_epik_Tot_Q>  (216) 
1

>  <i_epik_Tot_abs_Q>  (216) 
1

>  <s_epik_Chemistry_Notes>  (216) 
This compound has an imine and may undergo hydrolysis.

>  <s_lp_Force_Field>  (216) 
OPLS3e

>  <r_lp_Energy>  (216) 
27.9192

>  <b_lp_Chiralities_Consistent>  (216) 
1

>  <s_lp_Variant>  (216) 
80:0-1

>  <s_i_glide_gridfile>  (216) 
pfpi4k_grid

>  <i_i_glide_lignum>  (216) 
26

>  <i_i_glide_rotatable_bonds>  (216) 
6

>  <r_i_docking_score>  (216) 
-2.77347

>  <r_i_glide_ligand_efficiency>  (216) 
-0.120586

>  <r_i_glide_ligand_efficiency_sa>  (216) 
-0.342929

>  <r_i_glide_ligand_efficiency_ln>  (216) 
-0.67065

>  <r_i_glide_gscore>  (216) 
-2.77347

>  <r_i_glide_lipo>  (216) 
-0.528236

>  <r_i_glide_hbond>  (216) 
-0.2

>  <r_i_glide_metal>  (216) 
-0

>  <r_i_glide_rewards>  (216) 
-1.18358

>  <r_i_glide_evdw>  (216) 
-18.7427

>  <r_i_glide_ecoul>  (216) 
-2.85244

>  <r_i_glide_erotb>  (216) 
0.67796

>  <r_i_glide_esite>  (216) 
-0.174605

>  <r_i_glide_emodel>  (216) 
-27.2398

>  <r_i_glide_energy>  (216) 
-21.5952

>  <r_i_glide_einternal>  (216) 
2.46391

>  <r_i_glide_intrahb_reward>  (216) 
-0

>  <i_i_glide_confnum>  (216) 
3

>  <i_i_glide_posenum>  (216) 
25

>  <r_i_glide_eff_state_penalty>  (216) 
0

>  <ligand_id>  (216) 
80

>  <original_smiles>  (216) 
O=C(CCSC1=Nc2nccn2C2(CCCCC2)C1)NC1CC1

>  <smiles>  (216) 
[H]c1c([H])[n+]([H])c2n1C1(C([H])([H])C(SC([H])([H])C([H])([H])C(=O)N([H])C3([H])C([H])([H])C3([H])[H])=N2)C([H])([H])C([H])([H])C([H])([H])C([H])([H])C1([H])[H]

$$$$
80:0:2
     RDKit          3D

 48 51  0  0  1  0  0  0  0  0999 V2000
   -0.1078   -5.8552    4.8333 O   0  0  0  0  0  0  0  0  0  0  0  0
    0.7511   -6.5174    4.2540 C   0  0  0  0  0  0  0  0  0  0  0  0
    2.2235   -6.1094    4.2840 C   0  0  0  0  0  0  0  0  0  0  0  0
    2.5417   -4.7724    4.9897 C   0  0  0  0  0  0  0  0  0  0  0  0
    2.0529   -3.3280    3.9938 S   0  0  0  0  0  0  0  0  0  0  0  0
    3.0636   -3.3942    2.4961 C   0  0  0  0  0  0  0  0  0  0  0  0
    2.6165   -2.8345    1.4444 N   0  0  0  0  0  0  0  0  0  0  0  0
    3.2929   -2.9622    0.3060 C   0  0  0  0  0  0  0  0  0  0  0  0
    3.0258   -2.2840   -0.8130 N   0  0  0  0  0  0  0  0  0  0  0  0
    3.9037   -2.6827   -1.7937 C   0  0  0  0  0  0  0  0  0  0  0  0
    4.7099   -3.6543   -1.2422 C   0  0  0  0  0  0  0  0  0  0  0  0
    4.3258   -3.7930    0.0720 N   0  0  0  0  0  0  0  0  0  0  0  0
    4.8007   -4.7294    1.1269 C   0  0  0  0  0  0  0  0  0  0  0  0
    6.3379   -4.9262    1.0317 C   0  0  0  0  0  0  0  0  0  0  0  0
    6.8702   -5.9738    2.0290 C   0  0  0  0  0  0  0  0  0  0  0  0
    6.1829   -7.3314    1.8371 C   0  0  0  0  0  0  0  0  0  0  0  0
    4.6641   -7.1999    1.9128 C   0  0  0  0  0  0  0  0  0  0  0  0
    4.1195   -6.1178    0.9430 C   0  0  0  0  0  0  0  0  0  0  0  0
    4.4431   -4.0796    2.4978 C   0  0  0  0  0  0  0  0  0  0  0  0
    0.4707   -7.6146    3.5375 N   0  0  0  0  0  0  0  0  0  0  0  0
   -0.8217   -8.2007    3.4299 C   0  0  0  0  0  0  0  0  0  0  0  0
   -0.9729   -9.4468    2.5848 C   0  0  0  0  0  0  0  0  0  0  0  0
   -1.5007   -8.1284    2.0866 C   0  0  0  0  0  0  0  0  0  0  0  0
    2.7980   -6.9113    4.7554 H   0  0  0  0  0  0  0  0  0  0  0  0
    2.5264   -6.0594    3.2413 H   0  0  0  0  0  0  0  0  0  0  0  0
    2.0399   -4.7269    5.9523 H   0  0  0  0  0  0  0  0  0  0  0  0
    3.6050   -4.7017    5.2234 H   0  0  0  0  0  0  0  0  0  0  0  0
    3.8847   -2.2687   -2.7962 H   0  0  0  0  0  0  0  0  0  0  0  0
    5.5045   -4.2472   -1.6814 H   0  0  0  0  0  0  0  0  0  0  0  0
    6.6034   -5.2719    0.0329 H   0  0  0  0  0  0  0  0  0  0  0  0
    6.8534   -3.9730    1.1742 H   0  0  0  0  0  0  0  0  0  0  0  0
    7.9471   -6.0888    1.8953 H   0  0  0  0  0  0  0  0  0  0  0  0
    6.7308   -5.6195    3.0531 H   0  0  0  0  0  0  0  0  0  0  0  0
    6.4648   -7.7622    0.8813 H   0  0  0  0  0  0  0  0  0  0  0  0
    6.5250   -8.0282    2.5984 H   0  0  0  0  0  0  0  0  0  0  0  0
    4.1842   -8.1576    1.7080 H   0  0  0  0  0  0  0  0  0  0  0  0
    4.4317   -6.9706    2.9535 H   0  0  0  0  0  0  0  0  0  0  0  0
    3.0348   -6.0331    1.0392 H   0  0  0  0  0  0  0  0  0  0  0  0
    4.2801   -6.4641   -0.0794 H   0  0  0  0  0  0  0  0  0  0  0  0
    5.1725   -3.3034    2.7378 H   0  0  0  0  0  0  0  0  0  0  0  0
    4.5259   -4.8073    3.2923 H   0  0  0  0  0  0  0  0  0  0  0  0
    1.2235   -8.1055    3.0707 H   0  0  0  0  0  0  0  0  0  0  0  0
   -1.4506   -8.1595    4.3189 H   0  0  0  0  0  0  0  0  0  0  0  0
   -0.0885   -9.8512    2.0957 H   0  0  0  0  0  0  0  0  0  0  0  0
   -1.7167  -10.1777    2.8835 H   0  0  0  0  0  0  0  0  0  0  0  0
   -2.5775   -7.9813    2.0923 H   0  0  0  0  0  0  0  0  0  0  0  0
   -0.9531   -7.6364    1.2851 H   0  0  0  0  0  0  0  0  0  0  0  0
    2.2618   -1.6050   -0.9021 H   0  0  0  0  0  0  0  0  0  0  0  0
  1  2  2  0
  2  3  1  0
  2 20  1  0
  3  4  1  0
  3 24  1  0
  3 25  1  0
  4  5  1  0
  4 26  1  0
  4 27  1  0
  5  6  1  0
  6 19  1  0
  6  7  2  0
  7  8  1  0
  8 12  1  0
  8  9  2  0
  9 10  1  0
  9 48  1  0
 10 11  2  0
 10 28  1  0
 11 12  1  0
 11 29  1  0
 12 13  1  0
 13 18  1  0
 13 14  1  0
 13 19  1  0
 14 15  1  0
 14 30  1  0
 14 31  1  0
 15 16  1  0
 15 32  1  0
 15 33  1  0
 16 17  1  0
 16 34  1  0
 16 35  1  0
 17 18  1  0
 17 36  1  0
 17 37  1  0
 18 38  1  0
 18 39  1  0
 19 40  1  0
 19 41  1  0
 20 21  1  0
 20 42  1  0
 21 23  1  0
 21 22  1  0
 21 43  1  0
 22 23  1  0
 22 44  1  0
 22 45  1  0
 23 46  1  0
 23 47  1  0
M  CHG  1   9   1
M  END
>  <i_m_ct_stereo_status>  (217) 
1

>  <s_m_source_file>  (217) 
/var/tmp/pbs.5076255.sched01/tmppvoazpai/72cbyqjt17.sdf

>  <i_m_source_file_index>  (217) 
26

>  <i_lp_mmshare_version>  (217) 
48012

>  <i_f3d_flags>  (217) 
0

>  <s_epik_input>  (217) 
W0NIMl0xW0NIMl1bQ0hdMVtOSF1DKD1PKVtDSDJdW0NIMl1TQyhbQ0gyXTIpPU5jKG5bY0hdW2NIXTMpbjNDMjRbQ0gyXVtDSDJdW0NIMl1bQ0gyXVtDSDJdNA==

>  <s_epik_cmdline>  (217) 
J2VwaWtfcHl0aG9uJywgJy1waHQnLCAnMi4wJywgJy1waCcsICc3LjAnLCAnLXRuJywgJzgnLCAnLW1hJywgJzIwMCcsICctaW1hZScsICc8aW5maWxlLm1hZT4nLCAnLW9tYWUnLCAnPG91dGZpbGUubWFlPic=

>  <r_lp_tautomer_probability>  (217) 
0.999601

>  <r_epik_Ionization_Penalty>  (217) 
0.00573367

>  <r_epik_Ionization_Penalty_Charging>  (217) 
0

>  <r_epik_Ionization_Penalty_Neutral>  (217) 
0.00573367

>  <r_epik_State_Penalty>  (217) 
0.00420707

>  <r_epik_Charging_Adjusted_Penalty>  (217) 
0.00420707

>  <i_epik_Tot_Q>  (217) 
1

>  <i_epik_Tot_abs_Q>  (217) 
1

>  <s_epik_Chemistry_Notes>  (217) 
This compound has an imine and may undergo hydrolysis.

>  <s_lp_Force_Field>  (217) 
OPLS3e

>  <r_lp_Energy>  (217) 
27.9192

>  <b_lp_Chiralities_Consistent>  (217) 
1

>  <s_lp_Variant>  (217) 
80:0-1

>  <s_i_glide_gridfile>  (217) 
pfpi4k_grid

>  <i_i_glide_lignum>  (217) 
26

>  <i_i_glide_rotatable_bonds>  (217) 
6

>  <r_i_docking_score>  (217) 
-2.72617

>  <r_i_glide_ligand_efficiency>  (217) 
-0.118529

>  <r_i_glide_ligand_efficiency_sa>  (217) 
-0.337081

>  <r_i_glide_ligand_efficiency_ln>  (217) 
-0.659213

>  <r_i_glide_gscore>  (217) 
-2.72617

>  <r_i_glide_lipo>  (217) 
-0.540928

>  <r_i_glide_hbond>  (217) 
-0.2

>  <r_i_glide_metal>  (217) 
-0

>  <r_i_glide_rewards>  (217) 
-1.16127

>  <r_i_glide_evdw>  (217) 
-20.01

>  <r_i_glide_ecoul>  (217) 
-2.32327

>  <r_i_glide_erotb>  (217) 
0.67796

>  <r_i_glide_esite>  (217) 
-0.152946

>  <r_i_glide_emodel>  (217) 
-27.4726

>  <r_i_glide_energy>  (217) 
-22.3332

>  <r_i_glide_einternal>  (217) 
2.65774

>  <r_i_glide_intrahb_reward>  (217) 
-0

>  <i_i_glide_confnum>  (217) 
3

>  <i_i_glide_posenum>  (217) 
21

>  <r_i_glide_eff_state_penalty>  (217) 
0

>  <ligand_id>  (217) 
80

>  <original_smiles>  (217) 
O=C(CCSC1=Nc2nccn2C2(CCCCC2)C1)NC1CC1

>  <smiles>  (217) 
[H]c1c([H])[n+]([H])c2n1C1(C([H])([H])C(SC([H])([H])C([H])([H])C(=O)N([H])C3([H])C([H])([H])C3([H])[H])=N2)C([H])([H])C([H])([H])C([H])([H])C([H])([H])C1([H])[H]

$$$$
81:0:0
     RDKit          3D

 43 47  0  0  1  0  0  0  0  0999 V2000
    4.8435   -3.4547    2.5368 C   0  0  0  0  0  0  0  0  0  0  0  0
    4.9081   -2.2428    1.5905 C   0  0  1  0  0  0  0  0  0  0  0  0
    5.7652   -2.6296    0.3640 C   0  0  0  0  0  0  0  0  0  0  0  0
    5.1228   -3.8450   -0.3581 C   0  0  1  0  0  0  0  0  0  0  0  0
    5.0317   -5.0471    0.5914 C   0  0  0  0  0  0  0  0  0  0  0  0
    4.1825   -4.6679    1.8242 C   0  0  2  0  0  0  0  0  0  0  0  0
    2.7664   -4.2856    1.3577 C   0  0  0  0  0  0  0  0  0  0  0  0
    2.8434   -3.0723    0.4095 C   0  0  1  0  0  0  0  0  0  0  0  0
    3.4801   -1.8655    1.1471 C   0  0  0  0  0  0  0  0  0  0  0  0
    3.6965   -3.4311   -0.8311 C   0  0  1  0  0  0  0  0  0  0  0  0
    3.7307   -2.3283   -1.7988 N   0  0  2  0  0  0  0  0  0  0  0  0
    2.6122   -2.2046   -2.7584 C   0  0  1  0  0  0  0  0  0  0  0  0
    3.0158   -0.8616   -3.4182 C   0  0  0  0  0  0  0  0  0  0  0  0
    4.5301   -0.9547   -3.4517 C   0  0  0  0  0  0  0  0  0  0  0  0
    4.7917   -2.3089   -2.8087 C   0  0  2  0  0  0  0  0  0  0  0  0
    4.3751   -3.4552   -3.7532 C   0  0  0  0  0  0  0  0  0  0  0  0
    2.8511   -3.3348   -3.7566 C   0  0  0  0  0  0  0  0  0  0  0  0
    4.2784   -3.1914    3.4365 H   0  0  0  0  0  0  0  0  0  0  0  0
    5.8528   -3.7212    2.8496 H   0  0  0  0  0  0  0  0  0  0  0  0
    5.3608   -1.3894    2.0960 H   0  0  0  0  0  0  0  0  0  0  0  0
    5.8474   -1.7576   -0.2831 H   0  0  0  0  0  0  0  0  0  0  0  0
    6.7877   -2.8751    0.6645 H   0  0  0  0  0  0  0  0  0  0  0  0
    5.7322   -4.1831   -1.1954 H   0  0  0  0  0  0  0  0  0  0  0  0
    4.5973   -5.9035    0.0776 H   0  0  0  0  0  0  0  0  0  0  0  0
    6.0358   -5.3393    0.8944 H   0  0  0  0  0  0  0  0  0  0  0  0
    4.1390   -5.5180    2.5092 H   0  0  0  0  0  0  0  0  0  0  0  0
    2.3026   -5.1255    0.8471 H   0  0  0  0  0  0  0  0  0  0  0  0
    2.1359   -4.0589    2.2184 H   0  0  0  0  0  0  0  0  0  0  0  0
    1.8437   -2.8151    0.0898 H   0  0  0  0  0  0  0  0  0  0  0  0
    2.8675   -1.5989    2.0105 H   0  0  0  0  0  0  0  0  0  0  0  0
    3.4862   -0.9819    0.5114 H   0  0  0  0  0  0  0  0  0  0  0  0
    3.2174   -4.2999   -1.2762 H   0  0  0  0  0  0  0  0  0  0  0  0
    1.6251   -2.2591   -2.3212 H   0  0  0  0  0  0  0  0  0  0  0  0
    2.5760   -0.7183   -4.4103 H   0  0  0  0  0  0  0  0  0  0  0  0
    2.6865   -0.0151   -2.8089 H   0  0  0  0  0  0  0  0  0  0  0  0
    4.9288   -0.8887   -4.4595 H   0  0  0  0  0  0  0  0  0  0  0  0
    4.9607   -0.1656   -2.8360 H   0  0  0  0  0  0  0  0  0  0  0  0
    5.8311   -2.3676   -2.4735 H   0  0  0  0  0  0  0  0  0  0  0  0
    4.8194   -3.3693   -4.7391 H   0  0  0  0  0  0  0  0  0  0  0  0
    4.6763   -4.4192   -3.3468 H   0  0  0  0  0  0  0  0  0  0  0  0
    2.3500   -4.2499   -3.4638 H   0  0  0  0  0  0  0  0  0  0  0  0
    2.4387   -3.0375   -4.7180 H   0  0  0  0  0  0  0  0  0  0  0  0
    3.7597   -1.4501   -1.2973 H   0  0  0  0  0  0  0  0  0  0  0  0
  1  6  1  0
  1  2  1  0
  1 18  1  0
  1 19  1  0
  2  9  1  0
  2  3  1  0
  2 20  1  1
  3  4  1  0
  3 21  1  0
  3 22  1  0
  4 10  1  0
  4  5  1  0
  4 23  1  6
  5  6  1  0
  5 24  1  0
  5 25  1  0
  6  7  1  0
  6 26  1  1
  7  8  1  0
  7 27  1  0
  7 28  1  0
  8  9  1  0
  8 10  1  0
  8 29  1  6
  9 30  1  0
  9 31  1  0
 10 11  1  0
 10 32  1  6
 11 15  1  0
 11 12  1  0
 11 43  1  1
 12 17  1  0
 12 13  1  0
 12 33  1  1
 13 14  1  0
 13 34  1  0
 13 35  1  0
 14 15  1  0
 14 36  1  0
 14 37  1  0
 15 16  1  0
 15 38  1  1
 16 17  1  0
 16 39  1  0
 16 40  1  0
 17 41  1  0
 17 42  1  0
M  CHG  1  11   1
M  END
>  <i_m_ct_stereo_status>  (218) 
1

>  <s_m_source_file>  (218) 
/var/tmp/pbs.5076255.sched01/tmppvoazpai/72cbyqjt17.sdf

>  <i_m_source_file_index>  (218) 
27

>  <i_lp_mmshare_version>  (218) 
48012

>  <i_f3d_flags>  (218) 
0

>  <s_epik_input>  (218) 
W0NAQEhdMTJbQ0gyXVtDQEhdM1tDSDJdW0NAQEhdKFtDSDJdMSlbQ0BASF0oW0NASF0oW0NIMl0zKVtDSDJdMilOKFtDQEBIXTQ1KVtDQEhdKFtDSDJdW0NIMl00KVtDSDJdW0NIMl01

>  <s_epik_cmdline>  (218) 
J2VwaWtfcHl0aG9uJywgJy1waHQnLCAnMi4wJywgJy1waCcsICc3LjAnLCAnLXRuJywgJzgnLCAnLW1hJywgJzIwMCcsICctaW1hZScsICc8aW5maWxlLm1hZT4nLCAnLW9tYWUnLCAnPG91dGZpbGUubWFlPic=

>  <r_lp_tautomer_probability>  (218) 
1

>  <r_epik_Ionization_Penalty>  (218) 
7.09147e-05

>  <r_epik_Ionization_Penalty_Charging>  (218) 
7.09147e-05

>  <r_epik_Ionization_Penalty_Neutral>  (218) 
0

>  <r_epik_State_Penalty>  (218) 
-0

>  <r_epik_Charging_Adjusted_Penalty>  (218) 
7.09147e-05

>  <i_epik_Tot_Q>  (218) 
1

>  <i_epik_Tot_abs_Q>  (218) 
1

>  <s_lp_Force_Field>  (218) 
OPLS3e

>  <r_lp_Energy>  (218) 
32.2397

>  <b_lp_Chiralities_Consistent>  (218) 
1

>  <s_lp_Variant>  (218) 
81:0-1

>  <s_i_glide_gridfile>  (218) 
pfpi4k_grid

>  <i_i_glide_lignum>  (218) 
27

>  <i_i_glide_rotatable_bonds>  (218) 
1

>  <r_i_docking_score>  (218) 
-3.88334

>  <r_i_glide_ligand_efficiency>  (218) 
-0.228432

>  <r_i_glide_ligand_efficiency_sa>  (218) 
-0.587362

>  <r_i_glide_ligand_efficiency_ln>  (218) 
-1.01308

>  <r_i_glide_gscore>  (218) 
-3.88334

>  <r_i_glide_lipo>  (218) 
-0.985173

>  <r_i_glide_hbond>  (218) 
0

>  <r_i_glide_metal>  (218) 
-0

>  <r_i_glide_rewards>  (218) 
-1.82465

>  <r_i_glide_evdw>  (218) 
-17.9016

>  <r_i_glide_ecoul>  (218) 
-3.08007

>  <r_i_glide_erotb>  (218) 
0.317189

>  <r_i_glide_esite>  (218) 
-0.0336087

>  <r_i_glide_emodel>  (218) 
-24.6528

>  <r_i_glide_energy>  (218) 
-20.9817

>  <r_i_glide_einternal>  (218) 
2.28027

>  <r_i_glide_intrahb_reward>  (218) 
-0

>  <i_i_glide_confnum>  (218) 
2

>  <i_i_glide_posenum>  (218) 
3

>  <r_i_glide_eff_state_penalty>  (218) 
0

>  <ligand_id>  (218) 
81

>  <original_smiles>  (218) 
C1C2CC3CC1CC(C2)C3N1C2CCC1CC2

>  <smiles>  (218) 
[H]C1([H])C2([H])C([H])([H])C3([H])C([H])([H])C1([H])C([H])([H])C([H])(C2([H])[H])C3([H])[N+]1([H])C2([H])C([H])([H])C([H])([H])C1([H])C([H])([H])C2([H])[H]

$$$$
81:0:1
     RDKit          3D

 43 47  0  0  1  0  0  0  0  0999 V2000
    5.5449   -2.1595    2.0739 C   0  0  0  0  0  0  0  0  0  0  0  0
    5.4108   -1.1970    0.8762 C   0  0  1  0  0  0  0  0  0  0  0  0
    6.1820   -1.7933   -0.3207 C   0  0  0  0  0  0  0  0  0  0  0  0
    5.5965   -3.1807   -0.6799 C   0  0  1  0  0  0  0  0  0  0  0  0
    5.7129   -4.1331    0.5232 C   0  0  0  0  0  0  0  0  0  0  0  0
    4.9484   -3.5457    1.7215 C   0  0  2  0  0  0  0  0  0  0  0  0
    3.4629   -3.3917    1.3522 C   0  0  0  0  0  0  0  0  0  0  0  0
    3.3393   -2.4229    0.1607 C   0  0  1  0  0  0  0  0  0  0  0  0
    3.9170   -1.0366    0.5297 C   0  0  0  0  0  0  0  0  0  0  0  0
    4.0954   -3.0106   -1.0713 C   0  0  1  0  0  0  0  0  0  0  0  0
    3.9348   -2.1367   -2.2646 N   0  0  2  0  0  0  0  0  0  0  0  0
    2.6573   -2.1173   -2.9643 C   0  0  1  0  0  0  0  0  0  0  0  0
    2.8905   -0.9634   -3.9388 C   0  0  0  0  0  0  0  0  0  0  0  0
    4.3394   -1.2054   -4.3009 C   0  0  0  0  0  0  0  0  0  0  0  0
    4.7354   -2.4144   -3.4478 C   0  0  2  0  0  0  0  0  0  0  0  0
    4.1130   -3.6980   -4.0061 C   0  0  0  0  0  0  0  0  0  0  0  0
    2.6234   -3.4519   -3.7350 C   0  0  0  0  0  0  0  0  0  0  0  0
    5.0287   -1.7350    2.9410 H   0  0  0  0  0  0  0  0  0  0  0  0
    6.6096   -2.2657    2.3162 H   0  0  0  0  0  0  0  0  0  0  0  0
    5.8222   -0.2185    1.1360 H   0  0  0  0  0  0  0  0  0  0  0  0
    6.1191   -1.1098   -1.1639 H   0  0  0  0  0  0  0  0  0  0  0  0
    7.2395   -1.8882   -0.0839 H   0  0  0  0  0  0  0  0  0  0  0  0
    6.1588   -3.6535   -1.4883 H   0  0  0  0  0  0  0  0  0  0  0  0
    5.3245   -5.1140    0.2545 H   0  0  0  0  0  0  0  0  0  0  0  0
    6.7665   -4.2667    0.7664 H   0  0  0  0  0  0  0  0  0  0  0  0
    5.0423   -4.2162    2.5738 H   0  0  0  0  0  0  0  0  0  0  0  0
    3.0303   -4.3530    1.0846 H   0  0  0  0  0  0  0  0  0  0  0  0
    2.8919   -3.0147    2.1946 H   0  0  0  0  0  0  0  0  0  0  0  0
    2.2745   -2.3386   -0.0661 H   0  0  0  0  0  0  0  0  0  0  0  0
    3.3729   -0.6187    1.3718 H   0  0  0  0  0  0  0  0  0  0  0  0
    3.8020   -0.3194   -0.2813 H   0  0  0  0  0  0  0  0  0  0  0  0
    3.6857   -4.0192   -1.2466 H   0  0  0  0  0  0  0  0  0  0  0  0
    1.8168   -1.9413   -2.3222 H   0  0  0  0  0  0  0  0  0  0  0  0
    2.2225   -0.9870   -4.7915 H   0  0  0  0  0  0  0  0  0  0  0  0
    2.7799    0.0181   -3.4633 H   0  0  0  0  0  0  0  0  0  0  0  0
    4.5006   -1.3559   -5.3631 H   0  0  0  0  0  0  0  0  0  0  0  0
    4.9014   -0.3331   -3.9867 H   0  0  0  0  0  0  0  0  0  0  0  0
    5.8028   -2.4709   -3.2945 H   0  0  0  0  0  0  0  0  0  0  0  0
    4.3456   -3.8653   -5.0573 H   0  0  0  0  0  0  0  0  0  0  0  0
    4.4923   -4.5572   -3.4565 H   0  0  0  0  0  0  0  0  0  0  0  0
    2.1927   -4.2113   -3.0885 H   0  0  0  0  0  0  0  0  0  0  0  0
    2.0139   -3.3908   -4.6355 H   0  0  0  0  0  0  0  0  0  0  0  0
    4.1115   -1.1801   -1.9911 H   0  0  0  0  0  0  0  0  0  0  0  0
  1  6  1  0
  1  2  1  0
  1 18  1  0
  1 19  1  0
  2  9  1  0
  2  3  1  0
  2 20  1  1
  3  4  1  0
  3 21  1  0
  3 22  1  0
  4 10  1  0
  4  5  1  0
  4 23  1  6
  5  6  1  0
  5 24  1  0
  5 25  1  0
  6  7  1  0
  6 26  1  1
  7  8  1  0
  7 27  1  0
  7 28  1  0
  8  9  1  0
  8 10  1  0
  8 29  1  6
  9 30  1  0
  9 31  1  0
 10 11  1  0
 10 32  1  6
 11 15  1  0
 11 12  1  0
 11 43  1  1
 12 17  1  0
 12 13  1  0
 12 33  1  1
 13 14  1  0
 13 34  1  0
 13 35  1  0
 14 15  1  0
 14 36  1  0
 14 37  1  0
 15 16  1  0
 15 38  1  1
 16 17  1  0
 16 39  1  0
 16 40  1  0
 17 41  1  0
 17 42  1  0
M  CHG  1  11   1
M  END
>  <i_m_ct_stereo_status>  (219) 
1

>  <s_m_source_file>  (219) 
/var/tmp/pbs.5076255.sched01/tmppvoazpai/72cbyqjt17.sdf

>  <i_m_source_file_index>  (219) 
27

>  <i_lp_mmshare_version>  (219) 
48012

>  <i_f3d_flags>  (219) 
0

>  <s_epik_input>  (219) 
W0NAQEhdMTJbQ0gyXVtDQEhdM1tDSDJdW0NAQEhdKFtDSDJdMSlbQ0BASF0oW0NASF0oW0NIMl0zKVtDSDJdMilOKFtDQEBIXTQ1KVtDQEhdKFtDSDJdW0NIMl00KVtDSDJdW0NIMl01

>  <s_epik_cmdline>  (219) 
J2VwaWtfcHl0aG9uJywgJy1waHQnLCAnMi4wJywgJy1waCcsICc3LjAnLCAnLXRuJywgJzgnLCAnLW1hJywgJzIwMCcsICctaW1hZScsICc8aW5maWxlLm1hZT4nLCAnLW9tYWUnLCAnPG91dGZpbGUubWFlPic=

>  <r_lp_tautomer_probability>  (219) 
1

>  <r_epik_Ionization_Penalty>  (219) 
7.09147e-05

>  <r_epik_Ionization_Penalty_Charging>  (219) 
7.09147e-05

>  <r_epik_Ionization_Penalty_Neutral>  (219) 
0

>  <r_epik_State_Penalty>  (219) 
-0

>  <r_epik_Charging_Adjusted_Penalty>  (219) 
7.09147e-05

>  <i_epik_Tot_Q>  (219) 
1

>  <i_epik_Tot_abs_Q>  (219) 
1

>  <s_lp_Force_Field>  (219) 
OPLS3e

>  <r_lp_Energy>  (219) 
32.2397

>  <b_lp_Chiralities_Consistent>  (219) 
1

>  <s_lp_Variant>  (219) 
81:0-1

>  <s_i_glide_gridfile>  (219) 
pfpi4k_grid

>  <i_i_glide_lignum>  (219) 
27

>  <i_i_glide_rotatable_bonds>  (219) 
1

>  <r_i_docking_score>  (219) 
-3.21173

>  <r_i_glide_ligand_efficiency>  (219) 
-0.188926

>  <r_i_glide_ligand_efficiency_sa>  (219) 
-0.485781

>  <r_i_glide_ligand_efficiency_ln>  (219) 
-0.83787

>  <r_i_glide_gscore>  (219) 
-3.21173

>  <r_i_glide_lipo>  (219) 
-0.684054

>  <r_i_glide_hbond>  (219) 
0

>  <r_i_glide_metal>  (219) 
-0

>  <r_i_glide_rewards>  (219) 
-1.82465

>  <r_i_glide_evdw>  (219) 
-13.578

>  <r_i_glide_ecoul>  (219) 
-2.21101

>  <r_i_glide_erotb>  (219) 
0.317189

>  <r_i_glide_esite>  (219) 
-0.00966798

>  <r_i_glide_emodel>  (219) 
-19.5034

>  <r_i_glide_energy>  (219) 
-15.789

>  <r_i_glide_einternal>  (219) 
0.719317

>  <r_i_glide_intrahb_reward>  (219) 
-0

>  <i_i_glide_confnum>  (219) 
1

>  <i_i_glide_posenum>  (219) 
1

>  <r_i_glide_eff_state_penalty>  (219) 
0

>  <ligand_id>  (219) 
81

>  <original_smiles>  (219) 
C1C2CC3CC1CC(C2)C3N1C2CCC1CC2

>  <smiles>  (219) 
[H]C1([H])C2([H])C([H])([H])C3([H])C([H])([H])C1([H])C([H])([H])C([H])(C2([H])[H])C3([H])[N+]1([H])C2([H])C([H])([H])C([H])([H])C1([H])C([H])([H])C2([H])[H]

$$$$
81:0:2
     RDKit          3D

 43 47  0  0  1  0  0  0  0  0999 V2000
    4.4072   -1.3349   -4.3205 C   0  0  0  0  0  0  0  0  0  0  0  0
    4.5252   -2.7960   -3.8733 C   0  0  1  0  0  0  0  0  0  0  0  0
    5.5695   -2.9114   -2.7430 C   0  0  0  0  0  0  0  0  0  0  0  0
    5.1475   -2.0091   -1.5571 C   0  0  1  0  0  0  0  0  0  0  0  0
    5.0131   -0.5678   -1.9989 C   0  0  0  0  0  0  0  0  0  0  0  0
    4.0491   -0.4365   -3.1413 C   0  0  2  0  0  0  0  0  0  0  0  0
    2.7551   -0.9421   -2.6372 C   0  0  0  0  0  0  0  0  0  0  0  0
    2.7683   -2.3834   -2.1632 C   0  0  1  0  0  0  0  0  0  0  0  0
    3.1566   -3.2459   -3.3681 C   0  0  0  0  0  0  0  0  0  0  0  0
    3.7826   -2.4778   -1.0151 C   0  0  1  0  0  0  0  0  0  0  0  0
    3.8701   -3.8598   -0.5396 N   0  0  2  0  0  0  0  0  0  0  0  0
    2.8593   -4.3218    0.4143 C   0  0  1  0  0  0  0  0  0  0  0  0
    3.2750   -5.7871    0.5379 C   0  0  0  0  0  0  0  0  0  0  0  0
    4.8108   -5.7153    0.4349 C   0  0  0  0  0  0  0  0  0  0  0  0
    5.0378   -4.2184    0.2773 C   0  0  2  0  0  0  0  0  0  0  0  0
    4.7627   -3.4893    1.6058 C   0  0  0  0  0  0  0  0  0  0  0  0
    3.2300   -3.5995    1.7246 C   0  0  0  0  0  0  0  0  0  0  0  0
    3.7024   -1.2127   -5.1497 H   0  0  0  0  0  0  0  0  0  0  0  0
    5.3456   -1.0109   -4.7129 H   0  0  0  0  0  0  0  0  0  0  0  0
    4.8203   -3.4429   -4.7000 H   0  0  0  0  0  0  0  0  0  0  0  0
    5.6669   -3.9479   -2.4388 H   0  0  0  0  0  0  0  0  0  0  0  0
    6.5648   -2.6647   -3.1041 H   0  0  0  0  0  0  0  0  0  0  0  0
    5.9016   -1.9930   -0.7762 H   0  0  0  0  0  0  0  0  0  0  0  0
    4.6935    0.0741   -1.1779 H   0  0  0  0  0  0  0  0  0  0  0  0
    5.9727   -0.1978   -2.3055 H   0  0  0  0  0  0  0  0  0  0  0  0
    3.9293    0.6012   -3.4749 H   0  0  0  0  0  0  0  0  0  0  0  0
    2.3064   -0.2516   -1.9329 H   0  0  0  0  0  0  0  0  0  0  0  0
    2.2365   -0.9038   -3.5761 H   0  0  0  0  0  0  0  0  0  0  0  0
    1.7758   -2.6879   -1.8327 H   0  0  0  0  0  0  0  0  0  0  0  0
    2.4008   -3.1906   -4.1603 H   0  0  0  0  0  0  0  0  0  0  0  0
    3.2192   -4.2442   -3.0811 H   0  0  0  0  0  0  0  0  0  0  0  0
    3.4600   -1.8076   -0.2098 H   0  0  0  0  0  0  0  0  0  0  0  0
    1.8268   -4.1813    0.0883 H   0  0  0  0  0  0  0  0  0  0  0  0
    2.9332   -6.2630    1.4531 H   0  0  0  0  0  0  0  0  0  0  0  0
    2.8732   -6.3248   -0.3109 H   0  0  0  0  0  0  0  0  0  0  0  0
    5.3245   -6.1119    1.3066 H   0  0  0  0  0  0  0  0  0  0  0  0
    5.1717   -6.2418   -0.4513 H   0  0  0  0  0  0  0  0  0  0  0  0
    6.0178   -4.0101   -0.1539 H   0  0  0  0  0  0  0  0  0  0  0  0
    5.2886   -3.9506    2.4382 H   0  0  0  0  0  0  0  0  0  0  0  0
    5.0661   -2.4418    1.5560 H   0  0  0  0  0  0  0  0  0  0  0  0
    2.7628   -2.6150    1.7910 H   0  0  0  0  0  0  0  0  0  0  0  0
    2.9269   -4.1701    2.6013 H   0  0  0  0  0  0  0  0  0  0  0  0
    3.8386   -4.4298   -1.3823 H   0  0  0  0  0  0  0  0  0  0  0  0
  1  6  1  0
  1  2  1  0
  1 18  1  0
  1 19  1  0
  2  9  1  0
  2  3  1  0
  2 20  1  6
  3  4  1  0
  3 21  1  0
  3 22  1  0
  4 10  1  0
  4  5  1  0
  4 23  1  1
  5  6  1  0
  5 24  1  0
  5 25  1  0
  6  7  1  0
  6 26  1  6
  7  8  1  0
  7 27  1  0
  7 28  1  0
  8  9  1  0
  8 10  1  0
  8 29  1  1
  9 30  1  0
  9 31  1  0
 10 11  1  0
 10 32  1  1
 11 15  1  0
 11 12  1  0
 11 43  1  6
 12 17  1  0
 12 13  1  0
 12 33  1  6
 13 14  1  0
 13 34  1  0
 13 35  1  0
 14 15  1  0
 14 36  1  0
 14 37  1  0
 15 16  1  0
 15 38  1  6
 16 17  1  0
 16 39  1  0
 16 40  1  0
 17 41  1  0
 17 42  1  0
M  CHG  1  11   1
M  END
>  <i_m_ct_stereo_status>  (220) 
1

>  <s_m_source_file>  (220) 
/var/tmp/pbs.5076255.sched01/tmppvoazpai/72cbyqjt17.sdf

>  <i_m_source_file_index>  (220) 
27

>  <i_lp_mmshare_version>  (220) 
48012

>  <i_f3d_flags>  (220) 
0

>  <s_epik_input>  (220) 
W0NAQEhdMTJbQ0gyXVtDQEhdM1tDSDJdW0NAQEhdKFtDSDJdMSlbQ0BASF0oW0NASF0oW0NIMl0zKVtDSDJdMilOKFtDQEBIXTQ1KVtDQEhdKFtDSDJdW0NIMl00KVtDSDJdW0NIMl01

>  <s_epik_cmdline>  (220) 
J2VwaWtfcHl0aG9uJywgJy1waHQnLCAnMi4wJywgJy1waCcsICc3LjAnLCAnLXRuJywgJzgnLCAnLW1hJywgJzIwMCcsICctaW1hZScsICc8aW5maWxlLm1hZT4nLCAnLW9tYWUnLCAnPG91dGZpbGUubWFlPic=

>  <r_lp_tautomer_probability>  (220) 
1

>  <r_epik_Ionization_Penalty>  (220) 
7.09147e-05

>  <r_epik_Ionization_Penalty_Charging>  (220) 
7.09147e-05

>  <r_epik_Ionization_Penalty_Neutral>  (220) 
0

>  <r_epik_State_Penalty>  (220) 
-0

>  <r_epik_Charging_Adjusted_Penalty>  (220) 
7.09147e-05

>  <i_epik_Tot_Q>  (220) 
1

>  <i_epik_Tot_abs_Q>  (220) 
1

>  <s_lp_Force_Field>  (220) 
OPLS3e

>  <r_lp_Energy>  (220) 
32.2397

>  <b_lp_Chiralities_Consistent>  (220) 
1

>  <s_lp_Variant>  (220) 
81:0-1

>  <s_i_glide_gridfile>  (220) 
pfpi4k_grid

>  <i_i_glide_lignum>  (220) 
27

>  <i_i_glide_rotatable_bonds>  (220) 
1

>  <r_i_docking_score>  (220) 
-2.67859

>  <r_i_glide_ligand_efficiency>  (220) 
-0.157564

>  <r_i_glide_ligand_efficiency_sa>  (220) 
-0.405142

>  <r_i_glide_ligand_efficiency_ln>  (220) 
-0.698786

>  <r_i_glide_gscore>  (220) 
-2.67859

>  <r_i_glide_lipo>  (220) 
-0.774261

>  <r_i_glide_hbond>  (220) 
0

>  <r_i_glide_metal>  (220) 
-0

>  <r_i_glide_rewards>  (220) 
-1.82465

>  <r_i_glide_evdw>  (220) 
3.76311

>  <r_i_glide_ecoul>  (220) 
-3.84211

>  <r_i_glide_erotb>  (220) 
0.317189

>  <r_i_glide_esite>  (220) 
-0.00870956

>  <r_i_glide_emodel>  (220) 
-0.577367

>  <r_i_glide_energy>  (220) 
-0.0790014

>  <r_i_glide_einternal>  (220) 
1.55243

>  <r_i_glide_intrahb_reward>  (220) 
-0

>  <i_i_glide_confnum>  (220) 
2

>  <i_i_glide_posenum>  (220) 
32

>  <r_i_glide_eff_state_penalty>  (220) 
0

>  <ligand_id>  (220) 
81

>  <original_smiles>  (220) 
C1C2CC3CC1CC(C2)C3N1C2CCC1CC2

>  <smiles>  (220) 
[H]C1([H])C2([H])C([H])([H])C3([H])C([H])([H])C1([H])C([H])([H])C([H])(C2([H])[H])C3([H])[N+]1([H])C2([H])C([H])([H])C([H])([H])C1([H])C([H])([H])C2([H])[H]

$$$$
82:0:0
     RDKit          3D

 66 72  0  0  1  0  0  0  0  0999 V2000
    1.5517   -2.3611    4.7807 C   0  0  0  0  0  0  0  0  0  0  0  0
    2.4202   -3.4436    4.1736 C   0  0  0  0  0  0  0  0  0  0  0  0
    2.8726   -4.5372    4.7625 C   0  0  0  0  0  0  0  0  0  0  0  0
    4.2795   -5.1111    4.0180 C   0  0  2  0  0  0  0  0  0  0  0  0
    5.3005   -5.3280    5.1712 C   0  0  0  0  0  0  0  0  0  0  0  0
    5.0259   -3.9785    3.2100 C   0  0  0  0  0  0  0  0  0  0  0  0
    4.4816   -3.2033    1.9147 C   0  0  1  0  0  0  0  0  0  0  0  0
    5.0812   -1.7959    2.1736 C   0  0  0  0  0  0  0  0  0  0  0  0
    4.9162   -0.7940    1.0266 C   0  0  0  0  0  0  0  0  0  0  0  0
    5.5039   -1.3528   -0.2722 C   0  0  0  0  0  0  0  0  0  0  0  0
    4.8947   -2.7287   -0.6574 C   0  0  0  0  0  0  0  0  0  0  0  0
    3.4248   -2.5479   -1.1144 C   0  0  0  0  0  0  0  0  0  0  0  0
    5.6056   -3.2280   -1.9369 C   0  0  0  0  0  0  0  0  0  0  0  0
    5.0657   -3.7122    0.5480 C   0  0  1  0  0  0  0  0  0  0  0  0
    6.1384   -4.7931    0.5255 C   0  0  0  0  0  0  0  0  0  0  0  0
    4.7718   -5.0698    0.2142 O   0  0  0  0  0  0  0  0  0  0  0  0
    2.9315   -3.1225    1.8010 C   0  0  0  0  0  0  0  0  0  0  0  0
    2.0706   -3.8993    2.7942 C   0  0  1  0  0  0  0  0  0  0  0  0
    2.1724   -5.4985    2.6387 C   0  0  1  0  0  0  0  0  0  0  0  0
    2.9750   -6.7088    3.7331 C   0  0  1  0  0  0  0  0  0  0  0  0
    4.2435   -6.5974    3.2105 C   0  0  1  0  0  0  0  0  0  0  0  0
    3.4716   -7.3769    1.8655 C   0  0  0  0  0  0  0  0  0  0  0  0
    1.7315   -7.4224    1.9252 C   0  0  0  0  0  0  0  0  0  0  0  0
    1.1341   -6.2486    3.0406 C   0  0  1  0  0  0  0  0  0  0  0  0
    1.6660   -5.6961    4.6270 C   0  0  2  0  0  0  0  0  0  0  0  0
    0.4422   -5.3118    5.4892 C   0  0  0  0  0  0  0  0  0  0  0  0
    2.4479   -6.7796    5.1764 C   0  0  1  0  0  0  0  0  0  0  0  0
    1.6207   -7.8782    5.5332 O   0  0  0  0  0  0  0  0  0  0  0  0
    2.0520   -1.3972    4.6728 H   0  0  0  0  0  0  0  0  0  0  0  0
    1.3856   -2.5422    5.8401 H   0  0  0  0  0  0  0  0  0  0  0  0
    0.5828   -2.2744    4.2821 H   0  0  0  0  0  0  0  0  0  0  0  0
    6.3155   -5.4558    4.7911 H   0  0  0  0  0  0  0  0  0  0  0  0
    5.1185   -6.2139    5.7752 H   0  0  0  0  0  0  0  0  0  0  0  0
    5.3172   -4.4674    5.8436 H   0  0  0  0  0  0  0  0  0  0  0  0
    5.1288   -3.2281    3.9955 H   0  0  0  0  0  0  0  0  0  0  0  0
    6.0553   -4.2712    3.0324 H   0  0  0  0  0  0  0  0  0  0  0  0
    4.6558   -1.3370    3.0625 H   0  0  0  0  0  0  0  0  0  0  0  0
    6.1541   -1.8777    2.3543 H   0  0  0  0  0  0  0  0  0  0  0  0
    3.8644   -0.5190    0.9014 H   0  0  0  0  0  0  0  0  0  0  0  0
    5.4280    0.1253    1.2951 H   0  0  0  0  0  0  0  0  0  0  0  0
    5.3570   -0.6351   -1.0686 H   0  0  0  0  0  0  0  0  0  0  0  0
    6.5784   -1.4795   -0.1400 H   0  0  0  0  0  0  0  0  0  0  0  0
    2.9631   -3.5173   -1.2943 H   0  0  0  0  0  0  0  0  0  0  0  0
    3.3328   -2.0001   -2.0665 H   0  0  0  0  0  0  0  0  0  0  0  0
    2.8039   -2.0448   -0.3865 H   0  0  0  0  0  0  0  0  0  0  0  0
    5.2227   -4.1967   -2.2425 H   0  0  0  0  0  0  0  0  0  0  0  0
    6.6890   -3.3072   -1.8365 H   0  0  0  0  0  0  0  0  0  0  0  0
    5.4306   -2.5529   -2.7752 H   0  0  0  0  0  0  0  0  0  0  0  0
    6.8230   -4.8666   -0.3096 H   0  0  0  0  0  0  0  0  0  0  0  0
    6.4968   -5.3135    1.4155 H   0  0  0  0  0  0  0  0  0  0  0  0
    2.5927   -2.0928    1.8785 H   0  0  0  0  0  0  0  0  0  0  0  0
    2.5895   -3.4610    0.8623 H   0  0  0  0  0  0  0  0  0  0  0  0
    1.0414   -3.6172    2.6018 H   0  0  0  0  0  0  0  0  0  0  0  0
    2.3357   -5.4313    1.5429 H   0  0  0  0  0  0  0  0  0  0  0  0
    2.8755   -7.8123    3.7931 H   0  0  0  0  0  0  0  0  0  0  0  0
    4.9534   -7.2854    3.6482 H   0  0  0  0  0  0  0  0  0  0  0  0
    3.8042   -6.9905    0.9106 H   0  0  0  0  0  0  0  0  0  0  0  0
    3.8231   -8.4091    1.8429 H   0  0  0  0  0  0  0  0  0  0  0  0
    1.3161   -7.2679    0.9142 H   0  0  0  0  0  0  0  0  0  0  0  0
    1.3881   -8.4197    2.2199 H   0  0  0  0  0  0  0  0  0  0  0  0
    0.1839   -5.8382    2.7408 H   0  0  0  0  0  0  0  0  0  0  0  0
   -0.2509   -6.1407    5.5942 H   0  0  0  0  0  0  0  0  0  0  0  0
   -0.1144   -4.4933    5.0340 H   0  0  0  0  0  0  0  0  0  0  0  0
    0.7571   -4.9932    6.4813 H   0  0  0  0  0  0  0  0  0  0  0  0
    3.0920   -6.4978    6.0015 H   0  0  0  0  0  0  0  0  0  0  0  0
    2.1810   -8.6315    5.6513 H   0  0  0  0  0  0  0  0  0  0  0  0
  1  2  1  0
  1 29  1  0
  1 30  1  0
  1 31  1  0
  2 18  1  0
  2  3  2  0
  3 25  1  0
  3  4  1  0
  4 21  1  0
  4  5  1  1
  4  6  1  0
  5 32  1  0
  5 33  1  0
  5 34  1  0
  7  6  1  1
  6 35  1  0
  6 36  1  0
  7 14  1  0
  7  8  1  0
  7 17  1  0
  8  9  1  0
  8 37  1  0
  8 38  1  0
  9 10  1  0
  9 39  1  0
  9 40  1  0
 10 11  1  0
 10 41  1  0
 10 42  1  0
 11 12  1  0
 11 13  1  0
 11 14  1  0
 12 43  1  0
 12 44  1  0
 12 45  1  0
 13 46  1  0
 13 47  1  0
 13 48  1  0
 14 16  1  6
 14 15  1  0
 15 16  1  0
 15 49  1  0
 15 50  1  0
 17 18  1  0
 17 51  1  0
 17 52  1  0
 18 19  1  0
 18 53  1  6
 19 24  1  0
 19 20  1  0
 19 54  1  6
 20 27  1  0
 20 21  1  0
 20 55  1  6
 21 22  1  0
 21 56  1  1
 22 23  1  0
 22 57  1  0
 22 58  1  0
 23 24  1  0
 23 59  1  0
 23 60  1  0
 24 25  1  0
 24 61  1  6
 25 26  1  1
 25 27  1  0
 26 62  1  0
 26 63  1  0
 26 64  1  0
 27 28  1  0
 27 65  1  1
 28 66  1  0
M  END
>  <i_m_ct_stereo_status>  (221) 
1

>  <s_m_source_file>  (221) 
/var/tmp/pbs.5076255.sched01/tmppvoazpai/72cbyqjt17.sdf

>  <i_m_source_file_index>  (221) 
28

>  <i_lp_mmshare_version>  (221) 
48012

>  <i_f3d_flags>  (221) 
0

>  <s_epik_input>  (221) 
W0NIMl0xW0NIMl1bQ0BASF0yW0NAQEhdKFtDQEBIXTNbT0hdKVtDQEhdKFtDQEhdKFtDSDJdNClDPTVbQ0gzXSlbQ0BASF0xW0NAXTMoW0NIM10pQzVbQ0BdMihbQ0gzXSlbQ0gyXVtDQEBdNDZbQ0BdNyhbQ0gyXU83KUMoW0NIM10pKFtDSDNdKVtDSDJdW0NIMl1bQ0gyXTY=

>  <s_epik_cmdline>  (221) 
J2VwaWtfcHl0aG9uJywgJy1waHQnLCAnMi4wJywgJy1waCcsICc3LjAnLCAnLXRuJywgJzgnLCAnLW1hJywgJzIwMCcsICctaW1hZScsICc8aW5maWxlLm1hZT4nLCAnLW9tYWUnLCAnPG91dGZpbGUubWFlPic=

>  <r_lp_tautomer_probability>  (221) 
1

>  <r_epik_Ionization_Penalty>  (221) 
1.67e-06

>  <r_epik_Ionization_Penalty_Charging>  (221) 
0

>  <r_epik_Ionization_Penalty_Neutral>  (221) 
1.67e-06

>  <r_epik_State_Penalty>  (221) 
-0

>  <r_epik_Charging_Adjusted_Penalty>  (221) 
0

>  <i_epik_Tot_Q>  (221) 
0

>  <i_epik_Tot_abs_Q>  (221) 
0

>  <s_lp_Force_Field>  (221) 
OPLS3e

>  <r_lp_Energy>  (221) 
559.121

>  <b_lp_Chiralities_Consistent>  (221) 
1

>  <s_lp_Variant>  (221) 
82:0-1

>  <s_i_glide_gridfile>  (221) 
pfpi4k_grid

>  <i_i_glide_lignum>  (221) 
28

>  <i_i_glide_rotatable_bonds>  (221) 
1

>  <r_i_docking_score>  (221) 
-2.61675

>  <r_i_glide_ligand_efficiency>  (221) 
-0.0934553

>  <r_i_glide_ligand_efficiency_sa>  (221) 
-0.283785

>  <r_i_glide_ligand_efficiency_ln>  (221) 
-0.604022

>  <r_i_glide_gscore>  (221) 
-2.61675

>  <r_i_glide_lipo>  (221) 
-0.585525

>  <r_i_glide_hbond>  (221) 
0

>  <r_i_glide_metal>  (221) 
-0

>  <r_i_glide_rewards>  (221) 
-0.8006

>  <r_i_glide_evdw>  (221) 
-25.3745

>  <r_i_glide_ecoul>  (221) 
0.254005

>  <r_i_glide_erotb>  (221) 
0

>  <r_i_glide_esite>  (221) 
0

>  <r_i_glide_emodel>  (221) 
-27.5975

>  <r_i_glide_energy>  (221) 
-25.1205

>  <r_i_glide_einternal>  (221) 
0.288359

>  <r_i_glide_intrahb_reward>  (221) 
-0

>  <i_i_glide_confnum>  (221) 
1

>  <i_i_glide_posenum>  (221) 
14

>  <r_i_glide_eff_state_penalty>  (221) 
0

>  <ligand_id>  (221) 
82

>  <original_smiles>  (221) 
CC1=C2C3(C)CC4(CCCC(C)(C)C45CO5)CC1C1C4C3CCC1C2(C)C4O

>  <smiles>  (221) 
[H]OC1([H])C2([H])C3([H])C4([H])C(C([H])([H])[H])=C5C(C([H])([H])[H])(C([H])([H])C6(C([H])([H])C([H])([H])C([H])([H])C(C([H])([H])[H])(C([H])([H])[H])C67OC7([H])[H])C4([H])[H])C2([H])C([H])([H])C([H])([H])C3([H])C51C([H])([H])[H]

$$$$
82:0:1
     RDKit          3D

 66 72  0  0  1  0  0  0  0  0999 V2000
    1.3449   -2.6511    4.6777 C   0  0  0  0  0  0  0  0  0  0  0  0
    2.3710   -3.6273    4.1316 C   0  0  0  0  0  0  0  0  0  0  0  0
    2.9902   -4.5802    4.7878 C   0  0  0  0  0  0  0  0  0  0  0  0
    4.4716   -4.9831    4.0665 C   0  0  2  0  0  0  0  0  0  0  0  0
    5.5193   -4.9512    5.2168 C   0  0  0  0  0  0  0  0  0  0  0  0
    5.0225   -3.8067    3.1681 C   0  0  0  0  0  0  0  0  0  0  0  0
    4.3580   -3.2263    1.8241 C   0  0  1  0  0  0  0  0  0  0  0  0
    4.7280   -1.7264    1.9820 C   0  0  0  0  0  0  0  0  0  0  0  0
    4.3980   -0.8484    0.7667 C   0  0  0  0  0  0  0  0  0  0  0  0
    5.0595   -1.3968   -0.4974 C   0  0  0  0  0  0  0  0  0  0  0  0
    4.6787   -2.8813   -0.7794 C   0  0  0  0  0  0  0  0  0  0  0  0
    3.1971   -2.9727   -1.2130 C   0  0  0  0  0  0  0  0  0  0  0  0
    5.4472   -3.3494   -2.0275 C   0  0  0  0  0  0  0  0  0  0  0  0
    5.0095   -3.7308    0.4932 C   0  0  1  0  0  0  0  0  0  0  0  0
    6.2437   -4.6311    0.5143 C   0  0  0  0  0  0  0  0  0  0  0  0
    4.9327   -5.1434    0.2621 O   0  0  0  0  0  0  0  0  0  0  0  0
    2.8157   -3.3950    1.7394 C   0  0  0  0  0  0  0  0  0  0  0  0
    2.0906   -4.2295    2.7943 C   0  0  1  0  0  0  0  0  0  0  0  0
    2.4420   -5.7978    2.7502 C   0  0  1  0  0  0  0  0  0  0  0  0
    3.4383   -6.7855    3.9274 C   0  0  1  0  0  0  0  0  0  0  0  0
    4.6634   -6.5094    3.3693 C   0  0  1  0  0  0  0  0  0  0  0  0
    4.0269   -7.4998    2.0971 C   0  0  0  0  0  0  0  0  0  0  0  0
    2.3034   -7.8183    2.1820 C   0  0  0  0  0  0  0  0  0  0  0  0
    1.5385   -6.6692    3.2289 C   0  0  1  0  0  0  0  0  0  0  0  0
    1.9828   -5.9314    4.7601 C   0  0  2  0  0  0  0  0  0  0  0  0
    0.7213   -5.6792    5.6144 C   0  0  0  0  0  0  0  0  0  0  0  0
    2.9345   -6.8301    5.3755 C   0  0  1  0  0  0  0  0  0  0  0  0
    2.3256   -8.0176    5.8666 O   0  0  0  0  0  0  0  0  0  0  0  0
    1.6862   -1.6303    4.4955 H   0  0  0  0  0  0  0  0  0  0  0  0
    1.2167   -2.7795    5.7515 H   0  0  0  0  0  0  0  0  0  0  0  0
    0.3715   -2.7544    4.1921 H   0  0  0  0  0  0  0  0  0  0  0  0
    6.5411   -4.9474    4.8306 H   0  0  0  0  0  0  0  0  0  0  0  0
    5.4829   -5.8096    5.8857 H   0  0  0  0  0  0  0  0  0  0  0  0
    5.4049   -4.0521    5.8265 H   0  0  0  0  0  0  0  0  0  0  0  0
    5.0120   -2.9941    3.8947 H   0  0  0  0  0  0  0  0  0  0  0  0
    6.0818   -3.9488    2.9863 H   0  0  0  0  0  0  0  0  0  0  0  0
    4.2391   -1.2776    2.8419 H   0  0  0  0  0  0  0  0  0  0  0  0
    5.7999   -1.6248    2.1492 H   0  0  0  0  0  0  0  0  0  0  0  0
    3.3156   -0.7543    0.6415 H   0  0  0  0  0  0  0  0  0  0  0  0
    4.7575    0.1582    0.9627 H   0  0  0  0  0  0  0  0  0  0  0  0
    4.7975   -0.7699   -1.3402 H   0  0  0  0  0  0  0  0  0  0  0  0
    6.1412   -1.3424   -0.3763 H   0  0  0  0  0  0  0  0  0  0  0  0
    2.8928   -4.0106   -1.3196 H   0  0  0  0  0  0  0  0  0  0  0  0
    3.0052   -2.5083   -2.1967 H   0  0  0  0  0  0  0  0  0  0  0  0
    2.5144   -2.5265   -0.5094 H   0  0  0  0  0  0  0  0  0  0  0  0
    5.2189   -4.3876   -2.2581 H   0  0  0  0  0  0  0  0  0  0  0  0
    6.5311   -3.2514   -1.9417 H   0  0  0  0  0  0  0  0  0  0  0  0
    5.1640   -2.7738   -2.9088 H   0  0  0  0  0  0  0  0  0  0  0  0
    6.9134   -4.6569   -0.3395 H   0  0  0  0  0  0  0  0  0  0  0  0
    6.6836   -5.0148    1.4375 H   0  0  0  0  0  0  0  0  0  0  0  0
    2.3163   -2.4296    1.7502 H   0  0  0  0  0  0  0  0  0  0  0  0
    2.5242   -3.8525    0.8264 H   0  0  0  0  0  0  0  0  0  0  0  0
    1.0270   -4.1350    2.5998 H   0  0  0  0  0  0  0  0  0  0  0  0
    2.5903   -5.7840    1.6541 H   0  0  0  0  0  0  0  0  0  0  0  0
    3.5104   -7.8825    4.0656 H   0  0  0  0  0  0  0  0  0  0  0  0
    5.4818   -7.0443    3.8426 H   0  0  0  0  0  0  0  0  0  0  0  0
    4.2835   -7.1346    1.1116 H   0  0  0  0  0  0  0  0  0  0  0  0
    4.5337   -8.4601    2.1408 H   0  0  0  0  0  0  0  0  0  0  0  0
    1.8701   -7.7997    1.1789 H   0  0  0  0  0  0  0  0  0  0  0  0
    2.1339   -8.8297    2.5576 H   0  0  0  0  0  0  0  0  0  0  0  0
    0.5290   -6.4328    2.9101 H   0  0  0  0  0  0  0  0  0  0  0  0
    0.1687   -6.5985    5.7908 H   0  0  0  0  0  0  0  0  0  0  0  0
    0.0382   -4.9931    5.1127 H   0  0  0  0  0  0  0  0  0  0  0  0
    0.9896   -5.2445    6.5757 H   0  0  0  0  0  0  0  0  0  0  0  0
    3.5314   -6.3793    6.1602 H   0  0  0  0  0  0  0  0  0  0  0  0
    1.8173   -8.4105    5.1643 H   0  0  0  0  0  0  0  0  0  0  0  0
  1  2  1  0
  1 29  1  0
  1 30  1  0
  1 31  1  0
  2 18  1  0
  2  3  2  0
  3 25  1  0
  3  4  1  0
  4 21  1  0
  4  5  1  1
  4  6  1  0
  5 32  1  0
  5 33  1  0
  5 34  1  0
  7  6  1  1
  6 35  1  0
  6 36  1  0
  7 14  1  0
  7  8  1  0
  7 17  1  0
  8  9  1  0
  8 37  1  0
  8 38  1  0
  9 10  1  0
  9 39  1  0
  9 40  1  0
 10 11  1  0
 10 41  1  0
 10 42  1  0
 11 12  1  0
 11 13  1  0
 11 14  1  0
 12 43  1  0
 12 44  1  0
 12 45  1  0
 13 46  1  0
 13 47  1  0
 13 48  1  0
 14 16  1  6
 14 15  1  0
 15 16  1  0
 15 49  1  0
 15 50  1  0
 17 18  1  0
 17 51  1  0
 17 52  1  0
 18 19  1  0
 18 53  1  6
 19 24  1  0
 19 20  1  0
 19 54  1  6
 20 27  1  0
 20 21  1  0
 20 55  1  6
 21 22  1  0
 21 56  1  1
 22 23  1  0
 22 57  1  0
 22 58  1  0
 23 24  1  0
 23 59  1  0
 23 60  1  0
 24 25  1  0
 24 61  1  6
 25 26  1  1
 25 27  1  0
 26 62  1  0
 26 63  1  0
 26 64  1  0
 27 28  1  0
 27 65  1  1
 28 66  1  0
M  END
>  <i_m_ct_stereo_status>  (222) 
1

>  <s_m_source_file>  (222) 
/var/tmp/pbs.5076255.sched01/tmppvoazpai/72cbyqjt17.sdf

>  <i_m_source_file_index>  (222) 
28

>  <i_lp_mmshare_version>  (222) 
48012

>  <i_f3d_flags>  (222) 
0

>  <s_epik_input>  (222) 
W0NIMl0xW0NIMl1bQ0BASF0yW0NAQEhdKFtDQEBIXTNbT0hdKVtDQEhdKFtDQEhdKFtDSDJdNClDPTVbQ0gzXSlbQ0BASF0xW0NAXTMoW0NIM10pQzVbQ0BdMihbQ0gzXSlbQ0gyXVtDQEBdNDZbQ0BdNyhbQ0gyXU83KUMoW0NIM10pKFtDSDNdKVtDSDJdW0NIMl1bQ0gyXTY=

>  <s_epik_cmdline>  (222) 
J2VwaWtfcHl0aG9uJywgJy1waHQnLCAnMi4wJywgJy1waCcsICc3LjAnLCAnLXRuJywgJzgnLCAnLW1hJywgJzIwMCcsICctaW1hZScsICc8aW5maWxlLm1hZT4nLCAnLW9tYWUnLCAnPG91dGZpbGUubWFlPic=

>  <r_lp_tautomer_probability>  (222) 
1

>  <r_epik_Ionization_Penalty>  (222) 
1.67e-06

>  <r_epik_Ionization_Penalty_Charging>  (222) 
0

>  <r_epik_Ionization_Penalty_Neutral>  (222) 
1.67e-06

>  <r_epik_State_Penalty>  (222) 
-0

>  <r_epik_Charging_Adjusted_Penalty>  (222) 
0

>  <i_epik_Tot_Q>  (222) 
0

>  <i_epik_Tot_abs_Q>  (222) 
0

>  <s_lp_Force_Field>  (222) 
OPLS3e

>  <r_lp_Energy>  (222) 
559.121

>  <b_lp_Chiralities_Consistent>  (222) 
1

>  <s_lp_Variant>  (222) 
82:0-1

>  <s_i_glide_gridfile>  (222) 
pfpi4k_grid

>  <i_i_glide_lignum>  (222) 
28

>  <i_i_glide_rotatable_bonds>  (222) 
1

>  <r_i_docking_score>  (222) 
-2.51849

>  <r_i_glide_ligand_efficiency>  (222) 
-0.0899459

>  <r_i_glide_ligand_efficiency_sa>  (222) 
-0.273129

>  <r_i_glide_ligand_efficiency_ln>  (222) 
-0.58134

>  <r_i_glide_gscore>  (222) 
-2.51849

>  <r_i_glide_lipo>  (222) 
-0.503491

>  <r_i_glide_hbond>  (222) 
0

>  <r_i_glide_metal>  (222) 
-0

>  <r_i_glide_rewards>  (222) 
-0.8006

>  <r_i_glide_evdw>  (222) 
-24.4689

>  <r_i_glide_ecoul>  (222) 
0.0603507

>  <r_i_glide_erotb>  (222) 
0

>  <r_i_glide_esite>  (222) 
0

>  <r_i_glide_emodel>  (222) 
-26.855

>  <r_i_glide_energy>  (222) 
-24.4086

>  <r_i_glide_einternal>  (222) 
0.045702

>  <r_i_glide_intrahb_reward>  (222) 
-0

>  <i_i_glide_confnum>  (222) 
1

>  <i_i_glide_posenum>  (222) 
1

>  <r_i_glide_eff_state_penalty>  (222) 
0

>  <ligand_id>  (222) 
82

>  <original_smiles>  (222) 
CC1=C2C3(C)CC4(CCCC(C)(C)C45CO5)CC1C1C4C3CCC1C2(C)C4O

>  <smiles>  (222) 
[H]OC1([H])C2([H])C3([H])C4([H])C(C([H])([H])[H])=C5C(C([H])([H])[H])(C([H])([H])C6(C([H])([H])C([H])([H])C([H])([H])C(C([H])([H])[H])(C([H])([H])[H])C67OC7([H])[H])C4([H])[H])C2([H])C([H])([H])C([H])([H])C3([H])C51C([H])([H])[H]

$$$$
82:0:2
     RDKit          3D

 66 72  0  0  1  0  0  0  0  0999 V2000
    1.0155   -4.9498    3.9606 C   0  0  0  0  0  0  0  0  0  0  0  0
    2.4230   -5.2948    3.5128 C   0  0  0  0  0  0  0  0  0  0  0  0
    3.2958   -6.0643    4.1347 C   0  0  0  0  0  0  0  0  0  0  0  0
    4.8806   -5.6628    3.7198 C   0  0  2  0  0  0  0  0  0  0  0  0
    5.6462   -5.4848    5.0699 C   0  0  0  0  0  0  0  0  0  0  0  0
    4.9984   -4.1923    3.1561 C   0  0  0  0  0  0  0  0  0  0  0  0
    4.3623   -3.6322    1.8079 C   0  0  1  0  0  0  0  0  0  0  0  0
    4.0104   -2.1774    2.2499 C   0  0  0  0  0  0  0  0  0  0  0  0
    3.5132   -1.2505    1.1481 C   0  0  0  0  0  0  0  0  0  0  0  0
    4.5247   -1.1893   -0.0018 C   0  0  0  0  0  0  0  0  0  0  0  0
    4.8410   -2.5813   -0.5829 C   0  0  0  0  0  0  0  0  0  0  0  0
    3.6209   -3.1283   -1.3717 C   0  0  0  0  0  0  0  0  0  0  0  0
    5.9197   -2.4234   -1.6807 C   0  0  0  0  0  0  0  0  0  0  0  0
    5.3386   -3.5140    0.5821 C   0  0  1  0  0  0  0  0  0  0  0  0
    6.8338   -3.8271    0.7373 C   0  0  0  0  0  0  0  0  0  0  0  0
    5.9044   -4.7392    0.1323 O   0  0  0  0  0  0  0  0  0  0  0  0
    3.0558   -4.3752    1.3603 C   0  0  0  0  0  0  0  0  0  0  0  0
    2.6145   -5.6318    2.0799 C   0  0  1  0  0  0  0  0  0  0  0  0
    3.6222   -6.8724    1.8807 C   0  0  1  0  0  0  0  0  0  0  0  0
    4.7505   -7.6401    3.0728 C   0  0  1  0  0  0  0  0  0  0  0  0
    5.8092   -6.7804    2.8682 C   0  0  1  0  0  0  0  0  0  0  0  0
    5.8447   -7.6227    1.3577 C   0  0  0  0  0  0  0  0  0  0  0  0
    4.4422   -8.5998    1.0040 C   0  0  0  0  0  0  0  0  0  0  0  0
    3.1140   -8.1284    2.0065 C   0  0  1  0  0  0  0  0  0  0  0  0
    2.9779   -7.6382    3.6851 C   0  0  2  0  0  0  0  0  0  0  0  0
    1.6231   -8.1067    4.2620 C   0  0  0  0  0  0  0  0  0  0  0  0
    4.1248   -8.2102    4.3544 C   0  0  1  0  0  0  0  0  0  0  0  0
    4.0313   -9.6249    4.5034 O   0  0  0  0  0  0  0  0  0  0  0  0
    0.9042   -3.8637    4.0095 H   0  0  0  0  0  0  0  0  0  0  0  0
    0.8092   -5.3655    4.9472 H   0  0  0  0  0  0  0  0  0  0  0  0
    0.2665   -5.3217    3.2625 H   0  0  0  0  0  0  0  0  0  0  0  0
    6.6089   -4.9900    4.9232 H   0  0  0  0  0  0  0  0  0  0  0  0
    5.8869   -6.4191    5.5735 H   0  0  0  0  0  0  0  0  0  0  0  0
    5.0692   -4.8706    5.7611 H   0  0  0  0  0  0  0  0  0  0  0  0
    4.5324   -3.6441    3.9833 H   0  0  0  0  0  0  0  0  0  0  0  0
    6.0292   -3.8463    3.2151 H   0  0  0  0  0  0  0  0  0  0  0  0
    3.2577   -2.1703    3.0428 H   0  0  0  0  0  0  0  0  0  0  0  0
    4.9012   -1.7054    2.6752 H   0  0  0  0  0  0  0  0  0  0  0  0
    2.5286   -1.5549    0.7953 H   0  0  0  0  0  0  0  0  0  0  0  0
    3.3739   -0.2533    1.5662 H   0  0  0  0  0  0  0  0  0  0  0  0
    4.1401   -0.5351   -0.7847 H   0  0  0  0  0  0  0  0  0  0  0  0
    5.4507   -0.7355    0.3626 H   0  0  0  0  0  0  0  0  0  0  0  0
    3.8104   -4.1590   -1.6648 H   0  0  0  0  0  0  0  0  0  0  0  0
    3.4331   -2.5787   -2.2951 H   0  0  0  0  0  0  0  0  0  0  0  0
    2.6931   -3.1293   -0.7964 H   0  0  0  0  0  0  0  0  0  0  0  0
    6.1993   -3.3847   -2.1122 H   0  0  0  0  0  0  0  0  0  0  0  0
    6.8270   -1.9318   -1.3372 H   0  0  0  0  0  0  0  0  0  0  0  0
    5.5391   -1.8237   -2.5026 H   0  0  0  0  0  0  0  0  0  0  0  0
    7.5591   -3.4148    0.0387 H   0  0  0  0  0  0  0  0  0  0  0  0
    7.2668   -4.2267    1.6586 H   0  0  0  0  0  0  0  0  0  0  0  0
    2.2025   -3.7012    1.3778 H   0  0  0  0  0  0  0  0  0  0  0  0
    3.1366   -4.7166    0.3370 H   0  0  0  0  0  0  0  0  0  0  0  0
    1.6516   -5.9187    1.6469 H   0  0  0  0  0  0  0  0  0  0  0  0
    3.8936   -6.5703    0.8533 H   0  0  0  0  0  0  0  0  0  0  0  0
    5.2743   -8.6188    3.0724 H   0  0  0  0  0  0  0  0  0  0  0  0
    6.7083   -7.0514    3.4282 H   0  0  0  0  0  0  0  0  0  0  0  0
    6.0488   -6.9540    0.5221 H   0  0  0  0  0  0  0  0  0  0  0  0
    6.7154   -8.2894    1.3603 H   0  0  0  0  0  0  0  0  0  0  0  0
    4.2058   -8.5242   -0.0775 H   0  0  0  0  0  0  0  0  0  0  0  0
    4.6676   -9.6646    1.1701 H   0  0  0  0  0  0  0  0  0  0  0  0
    2.1536   -8.2336    1.4942 H   0  0  0  0  0  0  0  0  0  0  0  0
    1.4983   -9.1852    4.1727 H   0  0  0  0  0  0  0  0  0  0  0  0
    0.7867   -7.6510    3.7270 H   0  0  0  0  0  0  0  0  0  0  0  0
    1.5378   -7.8344    5.3128 H   0  0  0  0  0  0  0  0  0  0  0  0
    4.3524   -7.7545    5.3100 H   0  0  0  0  0  0  0  0  0  0  0  0
    3.6366   -9.9785    3.7205 H   0  0  0  0  0  0  0  0  0  0  0  0
  1  2  1  0
  1 29  1  0
  1 30  1  0
  1 31  1  0
  2 18  1  0
  2  3  2  0
  3 25  1  0
  3  4  1  0
  4 21  1  0
  4  5  1  1
  4  6  1  0
  5 32  1  0
  5 33  1  0
  5 34  1  0
  7  6  1  1
  6 35  1  0
  6 36  1  0
  7 14  1  0
  7  8  1  0
  7 17  1  0
  8  9  1  0
  8 37  1  0
  8 38  1  0
  9 10  1  0
  9 39  1  0
  9 40  1  0
 10 11  1  0
 10 41  1  0
 10 42  1  0
 11 12  1  0
 11 13  1  0
 11 14  1  0
 12 43  1  0
 12 44  1  0
 12 45  1  0
 13 46  1  0
 13 47  1  0
 13 48  1  0
 14 16  1  6
 14 15  1  0
 15 16  1  0
 15 49  1  0
 15 50  1  0
 17 18  1  0
 17 51  1  0
 17 52  1  0
 18 19  1  0
 18 53  1  6
 19 24  1  0
 19 20  1  0
 19 54  1  6
 20 27  1  0
 20 21  1  0
 20 55  1  6
 21 22  1  0
 21 56  1  1
 22 23  1  0
 22 57  1  0
 22 58  1  0
 23 24  1  0
 23 59  1  0
 23 60  1  0
 24 25  1  0
 24 61  1  6
 25 26  1  1
 25 27  1  0
 26 62  1  0
 26 63  1  0
 26 64  1  0
 27 28  1  0
 27 65  1  1
 28 66  1  0
M  END
>  <i_m_ct_stereo_status>  (223) 
1

>  <s_m_source_file>  (223) 
/var/tmp/pbs.5076255.sched01/tmppvoazpai/72cbyqjt17.sdf

>  <i_m_source_file_index>  (223) 
28

>  <i_lp_mmshare_version>  (223) 
48012

>  <i_f3d_flags>  (223) 
0

>  <s_epik_input>  (223) 
W0NIMl0xW0NIMl1bQ0BASF0yW0NAQEhdKFtDQEBIXTNbT0hdKVtDQEhdKFtDQEhdKFtDSDJdNClDPTVbQ0gzXSlbQ0BASF0xW0NAXTMoW0NIM10pQzVbQ0BdMihbQ0gzXSlbQ0gyXVtDQEBdNDZbQ0BdNyhbQ0gyXU83KUMoW0NIM10pKFtDSDNdKVtDSDJdW0NIMl1bQ0gyXTY=

>  <s_epik_cmdline>  (223) 
J2VwaWtfcHl0aG9uJywgJy1waHQnLCAnMi4wJywgJy1waCcsICc3LjAnLCAnLXRuJywgJzgnLCAnLW1hJywgJzIwMCcsICctaW1hZScsICc8aW5maWxlLm1hZT4nLCAnLW9tYWUnLCAnPG91dGZpbGUubWFlPic=

>  <r_lp_tautomer_probability>  (223) 
1

>  <r_epik_Ionization_Penalty>  (223) 
1.67e-06

>  <r_epik_Ionization_Penalty_Charging>  (223) 
0

>  <r_epik_Ionization_Penalty_Neutral>  (223) 
1.67e-06

>  <r_epik_State_Penalty>  (223) 
-0

>  <r_epik_Charging_Adjusted_Penalty>  (223) 
0

>  <i_epik_Tot_Q>  (223) 
0

>  <i_epik_Tot_abs_Q>  (223) 
0

>  <s_lp_Force_Field>  (223) 
OPLS3e

>  <r_lp_Energy>  (223) 
559.121

>  <b_lp_Chiralities_Consistent>  (223) 
1

>  <s_lp_Variant>  (223) 
82:0-1

>  <s_i_glide_gridfile>  (223) 
pfpi4k_grid

>  <i_i_glide_lignum>  (223) 
28

>  <i_i_glide_rotatable_bonds>  (223) 
1

>  <r_i_docking_score>  (223) 
-2.37755

>  <r_i_glide_ligand_efficiency>  (223) 
-0.0849125

>  <r_i_glide_ligand_efficiency_sa>  (223) 
-0.257844

>  <r_i_glide_ligand_efficiency_ln>  (223) 
-0.548808

>  <r_i_glide_gscore>  (223) 
-2.37755

>  <r_i_glide_lipo>  (223) 
-0.334476

>  <r_i_glide_hbond>  (223) 
0

>  <r_i_glide_metal>  (223) 
-0

>  <r_i_glide_rewards>  (223) 
-0.8006

>  <r_i_glide_evdw>  (223) 
-25.4019

>  <r_i_glide_ecoul>  (223) 
0.184147

>  <r_i_glide_erotb>  (223) 
0

>  <r_i_glide_esite>  (223) 
0

>  <r_i_glide_emodel>  (223) 
-27.8376

>  <r_i_glide_energy>  (223) 
-25.2178

>  <r_i_glide_einternal>  (223) 
0.0156246

>  <r_i_glide_intrahb_reward>  (223) 
-0

>  <i_i_glide_confnum>  (223) 
3

>  <i_i_glide_posenum>  (223) 
20

>  <r_i_glide_eff_state_penalty>  (223) 
0

>  <ligand_id>  (223) 
82

>  <original_smiles>  (223) 
CC1=C2C3(C)CC4(CCCC(C)(C)C45CO5)CC1C1C4C3CCC1C2(C)C4O

>  <smiles>  (223) 
[H]OC1([H])C2([H])C3([H])C4([H])C(C([H])([H])[H])=C5C(C([H])([H])[H])(C([H])([H])C6(C([H])([H])C([H])([H])C([H])([H])C(C([H])([H])[H])(C([H])([H])[H])C67OC7([H])[H])C4([H])[H])C2([H])C([H])([H])C([H])([H])C3([H])C51C([H])([H])[H]

$$$$
84:0:0
     RDKit          3D

 42 46  0  0  1  0  0  0  0  0999 V2000
    3.8273   -8.4557    1.2914 C   0  0  0  0  0  0  0  0  0  0  0  0
    3.9493   -7.0628    1.8890 C   0  0  0  0  0  0  0  0  0  0  0  0
    4.8849   -6.2291    1.3698 C   0  0  0  0  0  0  0  0  0  0  0  0
    5.2817   -4.8011    1.7515 C   0  0  1  0  0  0  0  0  0  0  0  0
    5.9081   -4.0403    0.5753 C   0  0  0  0  0  0  0  0  0  0  0  0
    7.3036   -3.8483    0.4756 C   0  0  0  0  0  0  0  0  0  0  0  0
    7.8630   -3.1996   -0.6352 C   0  0  0  0  0  0  0  0  0  0  0  0
    7.0170   -2.7537   -1.6552 C   0  0  0  0  0  0  0  0  0  0  0  0
    5.6227   -2.9329   -1.5961 C   0  0  0  0  0  0  0  0  0  0  0  0
    4.8052   -2.4989   -2.6585 C   0  0  0  0  0  0  0  0  0  0  0  0
    3.4208   -2.6890   -2.6340 C   0  0  0  0  0  0  0  0  0  0  0  0
    2.8502   -3.3302   -1.5314 C   0  0  0  0  0  0  0  0  0  0  0  0
    3.6138   -3.7695   -0.4297 C   0  0  0  0  0  0  0  0  0  0  0  0
    5.0320   -3.5851   -0.4642 C   0  0  0  0  0  0  0  0  0  0  0  0
    2.8955   -4.3946    0.5617 O   0  0  0  0  0  0  0  0  0  0  0  0
    2.9750   -3.9277    1.8741 C   0  0  2  0  0  0  0  0  0  0  0  0
    2.6110   -2.4259    1.9276 C   0  0  0  0  0  0  0  0  0  0  0  0
    3.9138   -1.7514    2.3527 C   0  0  0  0  0  0  0  0  0  0  0  0
    4.6636   -2.8265    3.1398 C   0  0  0  0  0  0  0  0  0  0  0  0
    4.2678   -4.0682    2.4889 N   0  0  0  0  0  0  0  0  0  0  0  0
    1.9885   -4.5852    2.6110 O   0  0  0  0  0  0  0  0  0  0  0  0
    2.2149   -5.7644    3.2873 C   0  0  0  0  0  0  0  0  0  0  0  0
    3.0679   -6.7839    3.0220 C   0  0  0  0  0  0  0  0  0  0  0  0
    3.9796   -9.2221    2.0541 H   0  0  0  0  0  0  0  0  0  0  0  0
    4.5425   -8.6435    0.4876 H   0  0  0  0  0  0  0  0  0  0  0  0
    2.8240   -8.5866    0.8856 H   0  0  0  0  0  0  0  0  0  0  0  0
    5.4977   -6.6166    0.5649 H   0  0  0  0  0  0  0  0  0  0  0  0
    6.0952   -4.9302    2.4645 H   0  0  0  0  0  0  0  0  0  0  0  0
    7.9580   -4.2348    1.2456 H   0  0  0  0  0  0  0  0  0  0  0  0
    8.9328   -3.0577   -0.7265 H   0  0  0  0  0  0  0  0  0  0  0  0
    7.4486   -2.2802   -2.5198 H   0  0  0  0  0  0  0  0  0  0  0  0
    5.2335   -2.0129   -3.5186 H   0  0  0  0  0  0  0  0  0  0  0  0
    2.7936   -2.3572   -3.4523 H   0  0  0  0  0  0  0  0  0  0  0  0
    1.7831   -3.4860   -1.5215 H   0  0  0  0  0  0  0  0  0  0  0  0
    2.2263   -2.0396    0.9839 H   0  0  0  0  0  0  0  0  0  0  0  0
    1.8514   -2.2729    2.6888 H   0  0  0  0  0  0  0  0  0  0  0  0
    4.5070   -1.4605    1.4846 H   0  0  0  0  0  0  0  0  0  0  0  0
    3.7423   -0.8542    2.9512 H   0  0  0  0  0  0  0  0  0  0  0  0
    5.7399   -2.6701    3.2241 H   0  0  0  0  0  0  0  0  0  0  0  0
    4.2586   -2.8634    4.1497 H   0  0  0  0  0  0  0  0  0  0  0  0
    1.6202   -5.7855    4.1913 H   0  0  0  0  0  0  0  0  0  0  0  0
    3.0599   -7.5696    3.7627 H   0  0  0  0  0  0  0  0  0  0  0  0
  1  2  1  0
  1 24  1  0
  1 25  1  0
  1 26  1  0
  2 23  1  0
  2  3  2  3
  3  4  1  0
  3 27  1  0
  4 20  1  0
  4  5  1  0
  4 28  1  1
  5 14  2  0
  5  6  1  0
  6  7  2  0
  6 29  1  0
  7  8  1  0
  7 30  1  0
  8  9  2  0
  8 31  1  0
  9 14  1  0
  9 10  1  0
 10 11  2  0
 10 32  1  0
 11 12  1  0
 11 33  1  0
 12 13  2  0
 12 34  1  0
 13 14  1  0
 13 15  1  0
 16 15  1  6
 16 20  1  0
 16 17  1  0
 16 21  1  0
 17 18  1  0
 17 35  1  0
 17 36  1  0
 18 19  1  0
 18 37  1  0
 18 38  1  0
 19 20  1  0
 19 39  1  0
 19 40  1  0
 21 22  1  0
 22 23  2  3
 22 41  1  0
 23 42  1  0
M  END
>  <i_m_ct_stereo_status>  (224) 
1

>  <s_m_source_file>  (224) 
/var/tmp/pbs.5076255.sched01/tmppvoazpai/72cbyqjt17.sdf

>  <i_m_source_file_index>  (224) 
30

>  <i_lp_mmshare_version>  (224) 
48012

>  <i_f3d_flags>  (224) 
0

>  <s_epik_input>  (224) 
TzEvW0NIXT1bQ0hdXEMoXFtDSDNdKT1bQ0hdL1tDQEhdKE4oW0NAXTEyMylbQ0gyXVtDSDJdW0NIMl0zKWM0YzVjKFtjSF1bY0hdW2NIXTQpW2NIXVtjSF1bY0hdYzVPMg==

>  <s_epik_cmdline>  (224) 
J2VwaWtfcHl0aG9uJywgJy1waHQnLCAnMi4wJywgJy1waCcsICc3LjAnLCAnLXRuJywgJzgnLCAnLW1hJywgJzIwMCcsICctaW1hZScsICc8aW5maWxlLm1hZT4nLCAnLW9tYWUnLCAnPG91dGZpbGUubWFlPic=

>  <r_epik_Ionization_Penalty>  (224) 
0.000674349

>  <r_epik_Ionization_Penalty_Charging>  (224) 
0

>  <r_epik_Ionization_Penalty_Neutral>  (224) 
0.000674349

>  <r_epik_State_Penalty>  (224) 
0.000428076

>  <r_epik_Charging_Adjusted_Penalty>  (224) 
0.000428076

>  <i_epik_Tot_Q>  (224) 
0

>  <i_epik_Tot_abs_Q>  (224) 
0

>  <s_lp_Force_Field>  (224) 
OPLS3e

>  <r_lp_Energy>  (224) 
58.073

>  <b_lp_Chiralities_Consistent>  (224) 
1

>  <s_lp_Variant>  (224) 
84:0-1

>  <s_i_glide_gridfile>  (224) 
pfpi4k_grid

>  <i_i_glide_lignum>  (224) 
30

>  <i_i_glide_rotatable_bonds>  (224) 
0

>  <r_i_docking_score>  (224) 
-3.4766

>  <r_i_glide_ligand_efficiency>  (224) 
-0.151156

>  <r_i_glide_ligand_efficiency_sa>  (224) 
-0.429869

>  <r_i_glide_ligand_efficiency_ln>  (224) 
-0.840673

>  <r_i_glide_gscore>  (224) 
-3.4766

>  <r_i_glide_lipo>  (224) 
-0.904137

>  <r_i_glide_hbond>  (224) 
0

>  <r_i_glide_metal>  (224) 
-0

>  <r_i_glide_rewards>  (224) 
-1.32702

>  <r_i_glide_evdw>  (224) 
-25.7268

>  <r_i_glide_ecoul>  (224) 
0.28877

>  <r_i_glide_erotb>  (224) 
0

>  <r_i_glide_esite>  (224) 
-0.00241804

>  <r_i_glide_emodel>  (224) 
-30.782

>  <r_i_glide_energy>  (224) 
-25.438

>  <r_i_glide_einternal>  (224) 
0

>  <r_i_glide_intrahb_reward>  (224) 
-0

>  <i_i_glide_confnum>  (224) 
1

>  <i_i_glide_posenum>  (224) 
1

>  <r_i_glide_eff_state_penalty>  (224) 
0

>  <ligand_id>  (224) 
84

>  <original_smiles>  (224) 
CC1=CC2c3cccc4cccc(c34)OC3(CCCN23)OC=C1

>  <smiles>  (224) 
[H]C1=C([H])C(C([H])([H])[H])=C([H])C2([H])c3c([H])c([H])c([H])c4c([H])c([H])c([H])c(c34)OC3(O1)N2C([H])([H])C([H])([H])C3([H])[H]

$$$$
84:0:1
     RDKit          3D

 42 46  0  0  1  0  0  0  0  0999 V2000
    6.1819   -7.8864    2.3445 C   0  0  0  0  0  0  0  0  0  0  0  0
    6.0392   -6.3954    2.6036 C   0  0  0  0  0  0  0  0  0  0  0  0
    6.2619   -5.5511    1.5659 C   0  0  0  0  0  0  0  0  0  0  0  0
    6.2314   -4.0260    1.4953 C   0  0  1  0  0  0  0  0  0  0  0  0
    5.9478   -3.5199    0.0794 C   0  0  0  0  0  0  0  0  0  0  0  0
    6.9793   -3.0377   -0.7530 C   0  0  0  0  0  0  0  0  0  0  0  0
    6.6967   -2.6517   -2.0615 C   0  0  0  0  0  0  0  0  0  0  0  0
    5.3888   -2.7261   -2.5498 C   0  0  0  0  0  0  0  0  0  0  0  0
    4.3392   -3.1830   -1.7427 C   0  0  0  0  0  0  0  0  0  0  0  0
    3.0331   -3.2673   -2.2672 C   0  0  0  0  0  0  0  0  0  0  0  0
    1.9903   -3.8022   -1.5064 C   0  0  0  0  0  0  0  0  0  0  0  0
    2.2765   -4.2657   -0.2189 C   0  0  0  0  0  0  0  0  0  0  0  0
    3.5374   -4.1427    0.3834 C   0  0  0  0  0  0  0  0  0  0  0  0
    4.6057   -3.6140   -0.4029 C   0  0  0  0  0  0  0  0  0  0  0  0
    3.6122   -4.5999    1.6740 O   0  0  0  0  0  0  0  0  0  0  0  0
    4.0831   -3.7577    2.6758 C   0  0  2  0  0  0  0  0  0  0  0  0
    3.2595   -2.4474    2.7108 C   0  0  0  0  0  0  0  0  0  0  0  0
    4.2599   -1.3687    2.2904 C   0  0  0  0  0  0  0  0  0  0  0  0
    5.6137   -1.9385    2.6928 C   0  0  0  0  0  0  0  0  0  0  0  0
    5.4563   -3.3765    2.5355 N   0  0  0  0  0  0  0  0  0  0  0  0
    3.8585   -4.3858    3.9039 O   0  0  0  0  0  0  0  0  0  0  0  0
    4.7813   -5.2057    4.5153 C   0  0  0  0  0  0  0  0  0  0  0  0
    5.7338   -6.0141    3.9818 C   0  0  0  0  0  0  0  0  0  0  0  0
    6.9267   -8.3241    3.0123 H   0  0  0  0  0  0  0  0  0  0  0  0
    6.4819   -8.1141    1.3206 H   0  0  0  0  0  0  0  0  0  0  0  0
    5.2238   -8.3718    2.5226 H   0  0  0  0  0  0  0  0  0  0  0  0
    6.5419   -5.9915    0.6159 H   0  0  0  0  0  0  0  0  0  0  0  0
    7.2591   -3.7236    1.6957 H   0  0  0  0  0  0  0  0  0  0  0  0
    8.0000   -2.9932   -0.3959 H   0  0  0  0  0  0  0  0  0  0  0  0
    7.4832   -2.3020   -2.7132 H   0  0  0  0  0  0  0  0  0  0  0  0
    5.1689   -2.4298   -3.5608 H   0  0  0  0  0  0  0  0  0  0  0  0
    2.8220   -2.9831   -3.2875 H   0  0  0  0  0  0  0  0  0  0  0  0
    0.9937   -3.9146   -1.9165 H   0  0  0  0  0  0  0  0  0  0  0  0
    1.5050   -4.7426    0.3620 H   0  0  0  0  0  0  0  0  0  0  0  0
    2.3801   -2.4716    2.0657 H   0  0  0  0  0  0  0  0  0  0  0  0
    2.9348   -2.2686    3.7350 H   0  0  0  0  0  0  0  0  0  0  0  0
    4.2485   -1.2106    1.2111 H   0  0  0  0  0  0  0  0  0  0  0  0
    4.0734   -0.4090    2.7750 H   0  0  0  0  0  0  0  0  0  0  0  0
    6.4768   -1.5077    2.1826 H   0  0  0  0  0  0  0  0  0  0  0  0
    5.7529   -1.7784    3.7616 H   0  0  0  0  0  0  0  0  0  0  0  0
    4.7092   -5.1116    5.5915 H   0  0  0  0  0  0  0  0  0  0  0  0
    6.3426   -6.5230    4.7120 H   0  0  0  0  0  0  0  0  0  0  0  0
  1  2  1  0
  1 24  1  0
  1 25  1  0
  1 26  1  0
  2 23  1  0
  2  3  2  3
  3  4  1  0
  3 27  1  0
  4 20  1  0
  4  5  1  0
  4 28  1  1
  5 14  2  0
  5  6  1  0
  6  7  2  0
  6 29  1  0
  7  8  1  0
  7 30  1  0
  8  9  2  0
  8 31  1  0
  9 14  1  0
  9 10  1  0
 10 11  2  0
 10 32  1  0
 11 12  1  0
 11 33  1  0
 12 13  2  0
 12 34  1  0
 13 14  1  0
 13 15  1  0
 16 15  1  6
 16 20  1  0
 16 17  1  0
 16 21  1  0
 17 18  1  0
 17 35  1  0
 17 36  1  0
 18 19  1  0
 18 37  1  0
 18 38  1  0
 19 20  1  0
 19 39  1  0
 19 40  1  0
 21 22  1  0
 22 23  2  3
 22 41  1  0
 23 42  1  0
M  END
>  <i_m_ct_stereo_status>  (225) 
1

>  <s_m_source_file>  (225) 
/var/tmp/pbs.5076255.sched01/tmppvoazpai/72cbyqjt17.sdf

>  <i_m_source_file_index>  (225) 
30

>  <i_lp_mmshare_version>  (225) 
48012

>  <i_f3d_flags>  (225) 
0

>  <s_epik_input>  (225) 
TzEvW0NIXT1bQ0hdXEMoXFtDSDNdKT1bQ0hdL1tDQEhdKE4oW0NAXTEyMylbQ0gyXVtDSDJdW0NIMl0zKWM0YzVjKFtjSF1bY0hdW2NIXTQpW2NIXVtjSF1bY0hdYzVPMg==

>  <s_epik_cmdline>  (225) 
J2VwaWtfcHl0aG9uJywgJy1waHQnLCAnMi4wJywgJy1waCcsICc3LjAnLCAnLXRuJywgJzgnLCAnLW1hJywgJzIwMCcsICctaW1hZScsICc8aW5maWxlLm1hZT4nLCAnLW9tYWUnLCAnPG91dGZpbGUubWFlPic=

>  <r_epik_Ionization_Penalty>  (225) 
0.000674349

>  <r_epik_Ionization_Penalty_Charging>  (225) 
0

>  <r_epik_Ionization_Penalty_Neutral>  (225) 
0.000674349

>  <r_epik_State_Penalty>  (225) 
0.000428076

>  <r_epik_Charging_Adjusted_Penalty>  (225) 
0.000428076

>  <i_epik_Tot_Q>  (225) 
0

>  <i_epik_Tot_abs_Q>  (225) 
0

>  <s_lp_Force_Field>  (225) 
OPLS3e

>  <r_lp_Energy>  (225) 
58.073

>  <b_lp_Chiralities_Consistent>  (225) 
1

>  <s_lp_Variant>  (225) 
84:0-1

>  <s_i_glide_gridfile>  (225) 
pfpi4k_grid

>  <i_i_glide_lignum>  (225) 
30

>  <i_i_glide_rotatable_bonds>  (225) 
0

>  <r_i_docking_score>  (225) 
-2.52663

>  <r_i_glide_ligand_efficiency>  (225) 
-0.109854

>  <r_i_glide_ligand_efficiency_sa>  (225) 
-0.312409

>  <r_i_glide_ligand_efficiency_ln>  (225) 
-0.610962

>  <r_i_glide_gscore>  (225) 
-2.52663

>  <r_i_glide_lipo>  (225) 
-0.580493

>  <r_i_glide_hbond>  (225) 
0

>  <r_i_glide_metal>  (225) 
-0

>  <r_i_glide_rewards>  (225) 
-1.32858

>  <r_i_glide_evdw>  (225) 
-15.6847

>  <r_i_glide_ecoul>  (225) 
1.11117

>  <r_i_glide_erotb>  (225) 
0

>  <r_i_glide_esite>  (225) 
0

>  <r_i_glide_emodel>  (225) 
-18.2519

>  <r_i_glide_energy>  (225) 
-14.5736

>  <r_i_glide_einternal>  (225) 
0

>  <r_i_glide_intrahb_reward>  (225) 
-0

>  <i_i_glide_confnum>  (225) 
2

>  <i_i_glide_posenum>  (225) 
22

>  <r_i_glide_eff_state_penalty>  (225) 
0

>  <ligand_id>  (225) 
84

>  <original_smiles>  (225) 
CC1=CC2c3cccc4cccc(c34)OC3(CCCN23)OC=C1

>  <smiles>  (225) 
[H]C1=C([H])C(C([H])([H])[H])=C([H])C2([H])c3c([H])c([H])c([H])c4c([H])c([H])c([H])c(c34)OC3(O1)N2C([H])([H])C([H])([H])C3([H])[H]

$$$$
84:0:2
     RDKit          3D

 42 46  0  0  1  0  0  0  0  0999 V2000
   -0.1274   -6.7969    0.9515 C   0  0  0  0  0  0  0  0  0  0  0  0
    1.2027   -6.6426    1.6611 C   0  0  0  0  0  0  0  0  0  0  0  0
    2.1912   -5.9734    1.0176 C   0  0  0  0  0  0  0  0  0  0  0  0
    3.6256   -5.6547    1.4379 C   0  0  1  0  0  0  0  0  0  0  0  0
    4.1672   -4.4023    0.7384 C   0  0  0  0  0  0  0  0  0  0  0  0
    5.0500   -4.4926   -0.3568 C   0  0  0  0  0  0  0  0  0  0  0  0
    5.4950   -3.3431   -1.0247 C   0  0  0  0  0  0  0  0  0  0  0  0
    5.0454   -2.0899   -0.5931 C   0  0  0  0  0  0  0  0  0  0  0  0
    4.1578   -1.9599    0.4902 C   0  0  0  0  0  0  0  0  0  0  0  0
    3.7003   -0.6864    0.8783 C   0  0  0  0  0  0  0  0  0  0  0  0
    2.7836   -0.5332    1.9223 C   0  0  0  0  0  0  0  0  0  0  0  0
    2.3237   -1.6705    2.5909 C   0  0  0  0  0  0  0  0  0  0  0  0
    2.7723   -2.9720    2.2681 C   0  0  0  0  0  0  0  0  0  0  0  0
    3.6913   -3.1249    1.1868 C   0  0  0  0  0  0  0  0  0  0  0  0
    2.2164   -3.9815    3.0170 O   0  0  0  0  0  0  0  0  0  0  0  0
    3.0453   -4.8715    3.7073 C   0  0  2  0  0  0  0  0  0  0  0  0
    4.0083   -4.0954    4.6339 C   0  0  0  0  0  0  0  0  0  0  0  0
    5.3897   -4.3739    4.0392 C   0  0  0  0  0  0  0  0  0  0  0  0
    5.2371   -5.7211    3.3347 C   0  0  0  0  0  0  0  0  0  0  0  0
    3.8570   -5.7122    2.8704 N   0  0  0  0  0  0  0  0  0  0  0  0
    2.2332   -5.6277    4.5535 O   0  0  0  0  0  0  0  0  0  0  0  0
    1.6796   -6.8350    4.1843 C   0  0  0  0  0  0  0  0  0  0  0  0
    1.2920   -7.2892    2.9695 C   0  0  0  0  0  0  0  0  0  0  0  0
   -0.3837   -7.8561    0.8459 H   0  0  0  0  0  0  0  0  0  0  0  0
   -0.1275   -6.3500   -0.0406 H   0  0  0  0  0  0  0  0  0  0  0  0
   -0.9148   -6.3239    1.5329 H   0  0  0  0  0  0  0  0  0  0  0  0
    1.9832   -5.6108    0.0166 H   0  0  0  0  0  0  0  0  0  0  0  0
    4.2098   -6.4807    1.0335 H   0  0  0  0  0  0  0  0  0  0  0  0
    5.3674   -5.4629   -0.7143 H   0  0  0  0  0  0  0  0  0  0  0  0
    6.1697   -3.4211   -1.8657 H   0  0  0  0  0  0  0  0  0  0  0  0
    5.3733   -1.2005   -1.1062 H   0  0  0  0  0  0  0  0  0  0  0  0
    4.0429    0.1960    0.3625 H   0  0  0  0  0  0  0  0  0  0  0  0
    2.4240    0.4499    2.2037 H   0  0  0  0  0  0  0  0  0  0  0  0
    1.6132   -1.5552    3.3941 H   0  0  0  0  0  0  0  0  0  0  0  0
    3.7850   -3.0322    4.6976 H   0  0  0  0  0  0  0  0  0  0  0  0
    3.9509   -4.5135    5.6352 H   0  0  0  0  0  0  0  0  0  0  0  0
    5.6554   -3.6124    3.3054 H   0  0  0  0  0  0  0  0  0  0  0  0
    6.1700   -4.3989    4.8019 H   0  0  0  0  0  0  0  0  0  0  0  0
    5.9853   -5.9225    2.5640 H   0  0  0  0  0  0  0  0  0  0  0  0
    5.3124   -6.5132    4.0778 H   0  0  0  0  0  0  0  0  0  0  0  0
    1.6242   -7.4904    5.0446 H   0  0  0  0  0  0  0  0  0  0  0  0
    0.9252   -8.3054    2.9734 H   0  0  0  0  0  0  0  0  0  0  0  0
  1  2  1  0
  1 24  1  0
  1 25  1  0
  1 26  1  0
  2 23  1  0
  2  3  2  3
  3  4  1  0
  3 27  1  0
  4 20  1  0
  4  5  1  0
  4 28  1  6
  5 14  2  0
  5  6  1  0
  6  7  2  0
  6 29  1  0
  7  8  1  0
  7 30  1  0
  8  9  2  0
  8 31  1  0
  9 14  1  0
  9 10  1  0
 10 11  2  0
 10 32  1  0
 11 12  1  0
 11 33  1  0
 12 13  2  0
 12 34  1  0
 13 14  1  0
 13 15  1  0
 16 15  1  6
 16 20  1  0
 16 17  1  0
 16 21  1  0
 17 18  1  0
 17 35  1  0
 17 36  1  0
 18 19  1  0
 18 37  1  0
 18 38  1  0
 19 20  1  0
 19 39  1  0
 19 40  1  0
 21 22  1  0
 22 23  2  3
 22 41  1  0
 23 42  1  0
M  END
>  <i_m_ct_stereo_status>  (226) 
1

>  <s_m_source_file>  (226) 
/var/tmp/pbs.5076255.sched01/tmppvoazpai/72cbyqjt17.sdf

>  <i_m_source_file_index>  (226) 
30

>  <i_lp_mmshare_version>  (226) 
48012

>  <i_f3d_flags>  (226) 
0

>  <s_epik_input>  (226) 
TzEvW0NIXT1bQ0hdXEMoXFtDSDNdKT1bQ0hdL1tDQEhdKE4oW0NAXTEyMylbQ0gyXVtDSDJdW0NIMl0zKWM0YzVjKFtjSF1bY0hdW2NIXTQpW2NIXVtjSF1bY0hdYzVPMg==

>  <s_epik_cmdline>  (226) 
J2VwaWtfcHl0aG9uJywgJy1waHQnLCAnMi4wJywgJy1waCcsICc3LjAnLCAnLXRuJywgJzgnLCAnLW1hJywgJzIwMCcsICctaW1hZScsICc8aW5maWxlLm1hZT4nLCAnLW9tYWUnLCAnPG91dGZpbGUubWFlPic=

>  <r_epik_Ionization_Penalty>  (226) 
0.000674349

>  <r_epik_Ionization_Penalty_Charging>  (226) 
0

>  <r_epik_Ionization_Penalty_Neutral>  (226) 
0.000674349

>  <r_epik_State_Penalty>  (226) 
0.000428076

>  <r_epik_Charging_Adjusted_Penalty>  (226) 
0.000428076

>  <i_epik_Tot_Q>  (226) 
0

>  <i_epik_Tot_abs_Q>  (226) 
0

>  <s_lp_Force_Field>  (226) 
OPLS3e

>  <r_lp_Energy>  (226) 
58.073

>  <b_lp_Chiralities_Consistent>  (226) 
1

>  <s_lp_Variant>  (226) 
84:0-1

>  <s_i_glide_gridfile>  (226) 
pfpi4k_grid

>  <i_i_glide_lignum>  (226) 
30

>  <i_i_glide_rotatable_bonds>  (226) 
0

>  <r_i_docking_score>  (226) 
-2.42217

>  <r_i_glide_ligand_efficiency>  (226) 
-0.105312

>  <r_i_glide_ligand_efficiency_sa>  (226) 
-0.299492

>  <r_i_glide_ligand_efficiency_ln>  (226) 
-0.585702

>  <r_i_glide_gscore>  (226) 
-2.42217

>  <r_i_glide_lipo>  (226) 
-0.189554

>  <r_i_glide_hbond>  (226) 
0

>  <r_i_glide_metal>  (226) 
-0

>  <r_i_glide_rewards>  (226) 
-1.32702

>  <r_i_glide_evdw>  (226) 
-21.1143

>  <r_i_glide_ecoul>  (226) 
1.00082

>  <r_i_glide_erotb>  (226) 
0

>  <r_i_glide_esite>  (226) 
0

>  <r_i_glide_emodel>  (226) 
-23.6965

>  <r_i_glide_energy>  (226) 
-20.1135

>  <r_i_glide_einternal>  (226) 
0

>  <r_i_glide_intrahb_reward>  (226) 
-0

>  <i_i_glide_confnum>  (226) 
1

>  <i_i_glide_posenum>  (226) 
4

>  <r_i_glide_eff_state_penalty>  (226) 
0

>  <ligand_id>  (226) 
84

>  <original_smiles>  (226) 
CC1=CC2c3cccc4cccc(c34)OC3(CCCN23)OC=C1

>  <smiles>  (226) 
[H]C1=C([H])C(C([H])([H])[H])=C([H])C2([H])c3c([H])c([H])c([H])c4c([H])c([H])c([H])c(c34)OC3(O1)N2C([H])([H])C([H])([H])C3([H])[H]

$$$$
84:1:0
     RDKit          3D

 42 46  0  0  1  0  0  0  0  0999 V2000
    3.9350   -0.6403   -3.1625 C   0  0  0  0  0  0  0  0  0  0  0  0
    3.4518   -2.0284   -2.7778 C   0  0  0  0  0  0  0  0  0  0  0  0
    3.0874   -2.3965   -1.5356 C   0  0  0  0  0  0  0  0  0  0  0  0
    3.7943   -1.8396   -0.3169 C   0  0  1  0  0  0  0  0  0  0  0  0
    3.2137   -2.3360    1.0084 C   0  0  0  0  0  0  0  0  0  0  0  0
    2.3901   -1.4932    1.7849 C   0  0  0  0  0  0  0  0  0  0  0  0
    1.8614   -1.9210    3.0057 C   0  0  0  0  0  0  0  0  0  0  0  0
    2.1603   -3.2101    3.4560 C   0  0  0  0  0  0  0  0  0  0  0  0
    2.9604   -4.0900    2.7006 C   0  0  0  0  0  0  0  0  0  0  0  0
    3.2076   -5.3892    3.1824 C   0  0  0  0  0  0  0  0  0  0  0  0
    3.9582   -6.3046    2.4448 C   0  0  0  0  0  0  0  0  0  0  0  0
    4.4606   -5.9144    1.1987 C   0  0  0  0  0  0  0  0  0  0  0  0
    4.2735   -4.6187    0.6673 C   0  0  0  0  0  0  0  0  0  0  0  0
    3.5053   -3.6764    1.4337 C   0  0  0  0  0  0  0  0  0  0  0  0
    4.7797   -4.4504   -0.6055 O   0  0  0  0  0  0  0  0  0  0  0  0
    5.6581   -3.4045   -0.9040 C   0  0  2  0  0  0  0  0  0  0  0  0
    6.9806   -3.6458   -0.1576 C   0  0  0  0  0  0  0  0  0  0  0  0
    7.4808   -2.2297    0.0701 C   0  0  0  0  0  0  0  0  0  0  0  0
    6.2044   -1.4229    0.3561 C   0  0  0  0  0  0  0  0  0  0  0  0
    5.2230   -2.0940   -0.4844 N   0  0  0  0  0  0  0  0  0  0  0  0
    5.9739   -3.3983   -2.2870 O   0  0  0  0  0  0  0  0  0  0  0  0
    5.0644   -3.7614   -3.2751 C   0  0  0  0  0  0  0  0  0  0  0  0
    3.8994   -3.1384   -3.5734 C   0  0  0  0  0  0  0  0  0  0  0  0
    3.2142   -0.1769   -3.8348 H   0  0  0  0  0  0  0  0  0  0  0  0
    4.8858   -0.7073   -3.6884 H   0  0  0  0  0  0  0  0  0  0  0  0
    4.0619    0.0327   -2.3186 H   0  0  0  0  0  0  0  0  0  0  0  0
    2.7792   -3.4251   -1.3973 H   0  0  0  0  0  0  0  0  0  0  0  0
    3.6740   -0.7581   -0.3279 H   0  0  0  0  0  0  0  0  0  0  0  0
    2.1497   -0.5040    1.4194 H   0  0  0  0  0  0  0  0  0  0  0  0
    1.2353   -1.2649    3.5961 H   0  0  0  0  0  0  0  0  0  0  0  0
    1.7593   -3.5433    4.4000 H   0  0  0  0  0  0  0  0  0  0  0  0
    2.8050   -5.6981    4.1346 H   0  0  0  0  0  0  0  0  0  0  0  0
    4.1368   -7.3062    2.8189 H   0  0  0  0  0  0  0  0  0  0  0  0
    5.0172   -6.6344    0.6166 H   0  0  0  0  0  0  0  0  0  0  0  0
    6.8029   -4.1126    0.8102 H   0  0  0  0  0  0  0  0  0  0  0  0
    7.6802   -4.2505   -0.7222 H   0  0  0  0  0  0  0  0  0  0  0  0
    8.2193   -2.1602    0.8702 H   0  0  0  0  0  0  0  0  0  0  0  0
    7.9596   -1.8919   -0.8470 H   0  0  0  0  0  0  0  0  0  0  0  0
    5.9254   -1.4875    1.4084 H   0  0  0  0  0  0  0  0  0  0  0  0
    6.3103   -0.3726    0.0813 H   0  0  0  0  0  0  0  0  0  0  0  0
    5.4083   -4.6214   -3.8223 H   0  0  0  0  0  0  0  0  0  0  0  0
    3.2748   -3.4993   -4.3769 H   0  0  0  0  0  0  0  0  0  0  0  0
  1  2  1  0
  1 24  1  0
  1 25  1  0
  1 26  1  0
  2 23  1  0
  2  3  2  3
  3  4  1  0
  3 27  1  0
  4 20  1  0
  4  5  1  0
  4 28  1  1
  5 14  2  0
  5  6  1  0
  6  7  2  0
  6 29  1  0
  7  8  1  0
  7 30  1  0
  8  9  2  0
  8 31  1  0
  9 14  1  0
  9 10  1  0
 10 11  2  0
 10 32  1  0
 11 12  1  0
 11 33  1  0
 12 13  2  0
 12 34  1  0
 13 14  1  0
 13 15  1  0
 16 15  1  6
 16 20  1  0
 16 17  1  0
 16 21  1  0
 17 18  1  0
 17 35  1  0
 17 36  1  0
 18 19  1  0
 18 37  1  0
 18 38  1  0
 19 20  1  0
 19 39  1  0
 19 40  1  0
 21 22  1  0
 22 23  2  3
 22 41  1  0
 23 42  1  0
M  END
>  <i_m_ct_stereo_status>  (227) 
1

>  <s_m_source_file>  (227) 
/var/tmp/pbs.5076255.sched01/tmppvoazpai/72cbyqjt17.sdf

>  <i_m_source_file_index>  (227) 
31

>  <i_lp_mmshare_version>  (227) 
48012

>  <i_f3d_flags>  (227) 
0

>  <s_epik_input>  (227) 
TzEvW0NIXT1bQ0hdXEMoXFtDSDNdKT1bQ0hdL1tDQEhdKE4oW0NAXTEyMylbQ0gyXVtDSDJdW0NIMl0zKWM0YzVjKFtjSF1bY0hdW2NIXTQpW2NIXVtjSF1bY0hdYzVPMg==

>  <s_epik_cmdline>  (227) 
J2VwaWtfcHl0aG9uJywgJy1waHQnLCAnMi4wJywgJy1waCcsICc3LjAnLCAnLXRuJywgJzgnLCAnLW1hJywgJzIwMCcsICctaW1hZScsICc8aW5maWxlLm1hZT4nLCAnLW9tYWUnLCAnPG91dGZpbGUubWFlPic=

>  <r_epik_Ionization_Penalty>  (227) 
0.000674349

>  <r_epik_Ionization_Penalty_Charging>  (227) 
0

>  <r_epik_Ionization_Penalty_Neutral>  (227) 
0.000674349

>  <r_epik_State_Penalty>  (227) 
0.000428076

>  <r_epik_Charging_Adjusted_Penalty>  (227) 
0.000428076

>  <i_epik_Tot_Q>  (227) 
0

>  <i_epik_Tot_abs_Q>  (227) 
0

>  <s_lp_Force_Field>  (227) 
OPLS3e

>  <r_lp_Energy>  (227) 
83.2155

>  <b_lp_Chiralities_Consistent>  (227) 
1

>  <s_lp_Variant>  (227) 
84:0-2

>  <s_i_glide_gridfile>  (227) 
pfpi4k_grid

>  <i_i_glide_lignum>  (227) 
31

>  <i_i_glide_rotatable_bonds>  (227) 
0

>  <r_i_docking_score>  (227) 
-3.52024

>  <r_i_glide_ligand_efficiency>  (227) 
-0.153054

>  <r_i_glide_ligand_efficiency_sa>  (227) 
-0.435265

>  <r_i_glide_ligand_efficiency_ln>  (227) 
-0.851227

>  <r_i_glide_gscore>  (227) 
-3.52024

>  <r_i_glide_lipo>  (227) 
-0.793732

>  <r_i_glide_hbond>  (227) 
0

>  <r_i_glide_metal>  (227) 
-0

>  <r_i_glide_rewards>  (227) 
-1.44558

>  <r_i_glide_evdw>  (227) 
-27.8025

>  <r_i_glide_ecoul>  (227) 
0.727951

>  <r_i_glide_erotb>  (227) 
0

>  <r_i_glide_esite>  (227) 
0

>  <r_i_glide_emodel>  (227) 
-32.5908

>  <r_i_glide_energy>  (227) 
-27.0746

>  <r_i_glide_einternal>  (227) 
0

>  <r_i_glide_intrahb_reward>  (227) 
-0

>  <i_i_glide_confnum>  (227) 
2

>  <i_i_glide_posenum>  (227) 
1

>  <r_i_glide_eff_state_penalty>  (227) 
0

>  <ligand_id>  (227) 
84

>  <original_smiles>  (227) 
CC1=CC2c3cccc4cccc(c34)OC3(CCCN23)OC=C1

>  <smiles>  (227) 
[H]C1=C([H])C(C([H])([H])[H])=C([H])C2([H])c3c([H])c([H])c([H])c4c([H])c([H])c([H])c(c34)OC3(O1)N2C([H])([H])C([H])([H])C3([H])[H]

$$$$
84:1:1
     RDKit          3D

 42 46  0  0  1  0  0  0  0  0999 V2000
   -2.5598    3.5445    3.2281 C   0  0  0  0  0  0  0  0  0  0  0  0
   -1.1060    3.2483    3.5610 C   0  0  0  0  0  0  0  0  0  0  0  0
   -0.6879    2.1293    4.1776 C   0  0  0  0  0  0  0  0  0  0  0  0
   -1.5049    1.5235    5.2989 C   0  0  1  0  0  0  0  0  0  0  0  0
   -0.8945    0.2505    5.8829 C   0  0  0  0  0  0  0  0  0  0  0  0
   -1.4146   -1.0139    5.5344 C   0  0  0  0  0  0  0  0  0  0  0  0
   -0.8752   -2.1885    6.0698 C   0  0  0  0  0  0  0  0  0  0  0  0
    0.1960   -2.0953    6.9637 C   0  0  0  0  0  0  0  0  0  0  0  0
    0.7535   -0.8536    7.3219 C   0  0  0  0  0  0  0  0  0  0  0  0
    1.8517   -0.8157    8.1991 C   0  0  0  0  0  0  0  0  0  0  0  0
    2.4641    0.3904    8.5417 C   0  0  0  0  0  0  0  0  0  0  0  0
    1.9734    1.5758    7.9852 C   0  0  0  0  0  0  0  0  0  0  0  0
    0.8608    1.6105    7.1134 C   0  0  0  0  0  0  0  0  0  0  0  0
    0.2273    0.3665    6.7720 C   0  0  0  0  0  0  0  0  0  0  0  0
    0.5826    2.8622    6.6025 O   0  0  0  0  0  0  0  0  0  0  0  0
   -0.6925    3.4239    6.7210 C   0  0  2  0  0  0  0  0  0  0  0  0
   -0.9725    3.7062    8.2049 C   0  0  0  0  0  0  0  0  0  0  0  0
   -2.4877    3.5603    8.2720 C   0  0  0  0  0  0  0  0  0  0  0  0
   -2.7889    2.4091    7.3055 C   0  0  0  0  0  0  0  0  0  0  0  0
   -1.7721    2.5782    6.2798 N   0  0  0  0  0  0  0  0  0  0  0  0
   -0.7444    4.6850    6.0814 O   0  0  0  0  0  0  0  0  0  0  0  0
   -0.0444    4.9723    4.9236 C   0  0  0  0  0  0  0  0  0  0  0  0
   -0.2024    4.3595    3.7256 C   0  0  0  0  0  0  0  0  0  0  0  0
   -2.6913    3.5369    2.1477 H   0  0  0  0  0  0  0  0  0  0  0  0
   -2.8190    4.5413    3.5754 H   0  0  0  0  0  0  0  0  0  0  0  0
   -3.2681    2.8299    3.6460 H   0  0  0  0  0  0  0  0  0  0  0  0
    0.3753    2.0435    4.3611 H   0  0  0  0  0  0  0  0  0  0  0  0
   -2.4660    1.2417    4.8721 H   0  0  0  0  0  0  0  0  0  0  0  0
   -2.2372   -1.0732    4.8348 H   0  0  0  0  0  0  0  0  0  0  0  0
   -1.2785   -3.1564    5.8062 H   0  0  0  0  0  0  0  0  0  0  0  0
    0.6144   -2.9995    7.3789 H   0  0  0  0  0  0  0  0  0  0  0  0
    2.2479   -1.7303    8.6123 H   0  0  0  0  0  0  0  0  0  0  0  0
    3.3175    0.4086    9.2085 H   0  0  0  0  0  0  0  0  0  0  0  0
    2.4687    2.5051    8.2275 H   0  0  0  0  0  0  0  0  0  0  0  0
   -0.5299    2.9401    8.8413 H   0  0  0  0  0  0  0  0  0  0  0  0
   -0.5997    4.6814    8.5141 H   0  0  0  0  0  0  0  0  0  0  0  0
   -2.8617    3.3679    9.2791 H   0  0  0  0  0  0  0  0  0  0  0  0
   -2.9547    4.4774    7.9161 H   0  0  0  0  0  0  0  0  0  0  0  0
   -2.6829    1.4413    7.7945 H   0  0  0  0  0  0  0  0  0  0  0  0
   -3.7877    2.4914    6.8785 H   0  0  0  0  0  0  0  0  0  0  0  0
    0.6478    5.7876    5.0740 H   0  0  0  0  0  0  0  0  0  0  0  0
    0.3899    4.6847    2.8814 H   0  0  0  0  0  0  0  0  0  0  0  0
  1  2  1  0
  1 24  1  0
  1 25  1  0
  1 26  1  0
  2 23  1  0
  2  3  2  3
  3  4  1  0
  3 27  1  0
  4 20  1  0
  4  5  1  0
  4 28  1  6
  5 14  2  0
  5  6  1  0
  6  7  2  0
  6 29  1  0
  7  8  1  0
  7 30  1  0
  8  9  2  0
  8 31  1  0
  9 14  1  0
  9 10  1  0
 10 11  2  0
 10 32  1  0
 11 12  1  0
 11 33  1  0
 12 13  2  0
 12 34  1  0
 13 14  1  0
 13 15  1  0
 16 15  1  1
 16 20  1  0
 16 17  1  0
 16 21  1  0
 17 18  1  0
 17 35  1  0
 17 36  1  0
 18 19  1  0
 18 37  1  0
 18 38  1  0
 19 20  1  0
 19 39  1  0
 19 40  1  0
 21 22  1  0
 22 23  2  3
 22 41  1  0
 23 42  1  0
M  END
>  <i_m_ct_stereo_status>  (228) 
1

>  <s_m_source_file>  (228) 
/var/tmp/pbs.5076255.sched01/tmppvoazpai/72cbyqjt17.sdf

>  <i_m_source_file_index>  (228) 
31

>  <i_lp_mmshare_version>  (228) 
48012

>  <i_f3d_flags>  (228) 
0

>  <s_epik_input>  (228) 
TzEvW0NIXT1bQ0hdXEMoXFtDSDNdKT1bQ0hdL1tDQEhdKE4oW0NAXTEyMylbQ0gyXVtDSDJdW0NIMl0zKWM0YzVjKFtjSF1bY0hdW2NIXTQpW2NIXVtjSF1bY0hdYzVPMg==

>  <s_epik_cmdline>  (228) 
J2VwaWtfcHl0aG9uJywgJy1waHQnLCAnMi4wJywgJy1waCcsICc3LjAnLCAnLXRuJywgJzgnLCAnLW1hJywgJzIwMCcsICctaW1hZScsICc8aW5maWxlLm1hZT4nLCAnLW9tYWUnLCAnPG91dGZpbGUubWFlPic=

>  <r_epik_Ionization_Penalty>  (228) 
0.000674349

>  <r_epik_Ionization_Penalty_Charging>  (228) 
0

>  <r_epik_Ionization_Penalty_Neutral>  (228) 
0.000674349

>  <r_epik_State_Penalty>  (228) 
0.000428076

>  <r_epik_Charging_Adjusted_Penalty>  (228) 
0.000428076

>  <i_epik_Tot_Q>  (228) 
0

>  <i_epik_Tot_abs_Q>  (228) 
0

>  <s_lp_Force_Field>  (228) 
OPLS3e

>  <r_lp_Energy>  (228) 
83.2155

>  <b_lp_Chiralities_Consistent>  (228) 
1

>  <s_lp_Variant>  (228) 
84:0-2

>  <s_i_glide_gridfile>  (228) 
pfpi4k_grid

>  <i_i_glide_lignum>  (228) 
31

>  <i_i_glide_rotatable_bonds>  (228) 
0

>  <r_i_docking_score>  (228) 
-2.67352

>  <r_i_glide_ligand_efficiency>  (228) 
-0.11624

>  <r_i_glide_ligand_efficiency_sa>  (228) 
-0.330571

>  <r_i_glide_ligand_efficiency_ln>  (228) 
-0.646482

>  <r_i_glide_gscore>  (228) 
-2.67352

>  <r_i_glide_lipo>  (228) 
-0.178663

>  <r_i_glide_hbond>  (228) 
0

>  <r_i_glide_metal>  (228) 
-0

>  <r_i_glide_rewards>  (228) 
-1.32702

>  <r_i_glide_evdw>  (228) 
-19.5756

>  <r_i_glide_ecoul>  (228) 
-1.26038

>  <r_i_glide_erotb>  (228) 
0

>  <r_i_glide_esite>  (228) 
0

>  <r_i_glide_emodel>  (228) 
-24.953

>  <r_i_glide_energy>  (228) 
-20.836

>  <r_i_glide_einternal>  (228) 
0

>  <r_i_glide_intrahb_reward>  (228) 
-0

>  <i_i_glide_confnum>  (228) 
1

>  <i_i_glide_posenum>  (228) 
14

>  <r_i_glide_eff_state_penalty>  (228) 
0

>  <ligand_id>  (228) 
84

>  <original_smiles>  (228) 
CC1=CC2c3cccc4cccc(c34)OC3(CCCN23)OC=C1

>  <smiles>  (228) 
[H]C1=C([H])C(C([H])([H])[H])=C([H])C2([H])c3c([H])c([H])c([H])c4c([H])c([H])c([H])c(c34)OC3(O1)N2C([H])([H])C([H])([H])C3([H])[H]

$$$$
84:1:2
     RDKit          3D

 42 46  0  0  1  0  0  0  0  0999 V2000
   -2.5183    2.9467    6.2080 C   0  0  0  0  0  0  0  0  0  0  0  0
   -2.1385    2.5628    4.7838 C   0  0  0  0  0  0  0  0  0  0  0  0
   -1.5212    1.4118    4.4556 C   0  0  0  0  0  0  0  0  0  0  0  0
   -0.4461    0.8275    5.3469 C   0  0  1  0  0  0  0  0  0  0  0  0
    0.1285   -0.4883    4.8223 C   0  0  0  0  0  0  0  0  0  0  0  0
   -0.2590   -1.7173    5.3956 C   0  0  0  0  0  0  0  0  0  0  0  0
    0.2809   -2.9266    4.9482 C   0  0  0  0  0  0  0  0  0  0  0  0
    1.2190   -2.9064    3.9129 C   0  0  0  0  0  0  0  0  0  0  0  0
    1.6186   -1.7026    3.3011 C   0  0  0  0  0  0  0  0  0  0  0  0
    2.5451   -1.7373    2.2423 C   0  0  0  0  0  0  0  0  0  0  0  0
    2.9366   -0.5696    1.5861 C   0  0  0  0  0  0  0  0  0  0  0  0
    2.3777    0.6479    1.9885 C   0  0  0  0  0  0  0  0  0  0  0  0
    1.4599    0.7572    3.0550 C   0  0  0  0  0  0  0  0  0  0  0  0
    1.0673   -0.4468    3.7362 C   0  0  0  0  0  0  0  0  0  0  0  0
    0.9596    2.0300    3.2462 O   0  0  0  0  0  0  0  0  0  0  0  0
    1.0416    2.6563    4.4924 C   0  0  2  0  0  0  0  0  0  0  0  0
    2.5179    2.9302    4.8151 C   0  0  0  0  0  0  0  0  0  0  0  0
    2.5199    2.8620    6.3378 C   0  0  0  0  0  0  0  0  0  0  0  0
    1.5243    1.7371    6.6653 C   0  0  0  0  0  0  0  0  0  0  0  0
    0.5443    1.8722    5.5974 N   0  0  0  0  0  0  0  0  0  0  0  0
    0.4135    3.9260    4.4635 O   0  0  0  0  0  0  0  0  0  0  0  0
   -0.7058    4.1965    3.6890 C   0  0  0  0  0  0  0  0  0  0  0  0
   -1.9245    3.6157    3.8191 C   0  0  0  0  0  0  0  0  0  0  0  0
   -3.6035    2.9593    6.2979 H   0  0  0  0  0  0  0  0  0  0  0  0
   -2.1509    3.9459    6.4425 H   0  0  0  0  0  0  0  0  0  0  0  0
   -2.1415    2.2577    6.9627 H   0  0  0  0  0  0  0  0  0  0  0  0
   -1.2962    1.2647    3.4063 H   0  0  0  0  0  0  0  0  0  0  0  0
   -0.8988    0.6067    6.3114 H   0  0  0  0  0  0  0  0  0  0  0  0
   -0.9842   -1.7275    6.1950 H   0  0  0  0  0  0  0  0  0  0  0  0
   -0.0115   -3.8654    5.4012 H   0  0  0  0  0  0  0  0  0  0  0  0
    1.6403   -3.8365    3.5688 H   0  0  0  0  0  0  0  0  0  0  0  0
    2.9533   -2.6798    1.9087 H   0  0  0  0  0  0  0  0  0  0  0  0
    3.6295   -0.6087    0.7545 H   0  0  0  0  0  0  0  0  0  0  0  0
    2.6491    1.5436    1.4526 H   0  0  0  0  0  0  0  0  0  0  0  0
    3.1554    2.1325    4.4375 H   0  0  0  0  0  0  0  0  0  0  0  0
    2.8589    3.8782    4.4021 H   0  0  0  0  0  0  0  0  0  0  0  0
    3.5092    2.6780    6.7624 H   0  0  0  0  0  0  0  0  0  0  0  0
    2.1578    3.8086    6.7396 H   0  0  0  0  0  0  0  0  0  0  0  0
    2.0031    0.7575    6.6333 H   0  0  0  0  0  0  0  0  0  0  0  0
    1.0633    1.8739    7.6448 H   0  0  0  0  0  0  0  0  0  0  0  0
   -0.4937    4.9572    2.9499 H   0  0  0  0  0  0  0  0  0  0  0  0
   -2.7375    3.9046    3.1701 H   0  0  0  0  0  0  0  0  0  0  0  0
  1  2  1  0
  1 24  1  0
  1 25  1  0
  1 26  1  0
  2 23  1  0
  2  3  2  3
  3  4  1  0
  3 27  1  0
  4 20  1  0
  4  5  1  0
  4 28  1  1
  5 14  2  0
  5  6  1  0
  6  7  2  0
  6 29  1  0
  7  8  1  0
  7 30  1  0
  8  9  2  0
  8 31  1  0
  9 14  1  0
  9 10  1  0
 10 11  2  0
 10 32  1  0
 11 12  1  0
 11 33  1  0
 12 13  2  0
 12 34  1  0
 13 14  1  0
 13 15  1  0
 16 15  1  6
 16 20  1  0
 16 17  1  0
 16 21  1  0
 17 18  1  0
 17 35  1  0
 17 36  1  0
 18 19  1  0
 18 37  1  0
 18 38  1  0
 19 20  1  0
 19 39  1  0
 19 40  1  0
 21 22  1  0
 22 23  2  3
 22 41  1  0
 23 42  1  0
M  END
>  <i_m_ct_stereo_status>  (229) 
1

>  <s_m_source_file>  (229) 
/var/tmp/pbs.5076255.sched01/tmppvoazpai/72cbyqjt17.sdf

>  <i_m_source_file_index>  (229) 
31

>  <i_lp_mmshare_version>  (229) 
48012

>  <i_f3d_flags>  (229) 
0

>  <s_epik_input>  (229) 
TzEvW0NIXT1bQ0hdXEMoXFtDSDNdKT1bQ0hdL1tDQEhdKE4oW0NAXTEyMylbQ0gyXVtDSDJdW0NIMl0zKWM0YzVjKFtjSF1bY0hdW2NIXTQpW2NIXVtjSF1bY0hdYzVPMg==

>  <s_epik_cmdline>  (229) 
J2VwaWtfcHl0aG9uJywgJy1waHQnLCAnMi4wJywgJy1waCcsICc3LjAnLCAnLXRuJywgJzgnLCAnLW1hJywgJzIwMCcsICctaW1hZScsICc8aW5maWxlLm1hZT4nLCAnLW9tYWUnLCAnPG91dGZpbGUubWFlPic=

>  <r_epik_Ionization_Penalty>  (229) 
0.000674349

>  <r_epik_Ionization_Penalty_Charging>  (229) 
0

>  <r_epik_Ionization_Penalty_Neutral>  (229) 
0.000674349

>  <r_epik_State_Penalty>  (229) 
0.000428076

>  <r_epik_Charging_Adjusted_Penalty>  (229) 
0.000428076

>  <i_epik_Tot_Q>  (229) 
0

>  <i_epik_Tot_abs_Q>  (229) 
0

>  <s_lp_Force_Field>  (229) 
OPLS3e

>  <r_lp_Energy>  (229) 
83.2155

>  <b_lp_Chiralities_Consistent>  (229) 
1

>  <s_lp_Variant>  (229) 
84:0-2

>  <s_i_glide_gridfile>  (229) 
pfpi4k_grid

>  <i_i_glide_lignum>  (229) 
31

>  <i_i_glide_rotatable_bonds>  (229) 
0

>  <r_i_docking_score>  (229) 
-2.36067

>  <r_i_glide_ligand_efficiency>  (229) 
-0.102638

>  <r_i_glide_ligand_efficiency_sa>  (229) 
-0.291888

>  <r_i_glide_ligand_efficiency_ln>  (229) 
-0.570831

>  <r_i_glide_gscore>  (229) 
-2.36067

>  <r_i_glide_lipo>  (229) 
-0.155318

>  <r_i_glide_hbond>  (229) 
0

>  <r_i_glide_metal>  (229) 
-0

>  <r_i_glide_rewards>  (229) 
-1.32702

>  <r_i_glide_evdw>  (229) 
-21.9706

>  <r_i_glide_ecoul>  (229) 
1.5634

>  <r_i_glide_erotb>  (229) 
0

>  <r_i_glide_esite>  (229) 
-0.0143072

>  <r_i_glide_emodel>  (229) 
-24.0232

>  <r_i_glide_energy>  (229) 
-20.4072

>  <r_i_glide_einternal>  (229) 
0

>  <r_i_glide_intrahb_reward>  (229) 
-0

>  <i_i_glide_confnum>  (229) 
1

>  <i_i_glide_posenum>  (229) 
27

>  <r_i_glide_eff_state_penalty>  (229) 
0

>  <ligand_id>  (229) 
84

>  <original_smiles>  (229) 
CC1=CC2c3cccc4cccc(c34)OC3(CCCN23)OC=C1

>  <smiles>  (229) 
[H]C1=C([H])C(C([H])([H])[H])=C([H])C2([H])c3c([H])c([H])c([H])c4c([H])c([H])c([H])c(c34)OC3(O1)N2C([H])([H])C([H])([H])C3([H])[H]

$$$$
84:2:0
     RDKit          3D

 42 46  0  0  1  0  0  0  0  0999 V2000
   -1.7843   -9.0094    2.2851 C   0  0  0  0  0  0  0  0  0  0  0  0
   -0.6425   -8.6975    3.2300 C   0  0  0  0  0  0  0  0  0  0  0  0
    0.6551   -8.8903    2.8800 C   0  0  0  0  0  0  0  0  0  0  0  0
    1.9488   -8.7723    3.7307 C   0  0  1  0  0  0  0  0  0  0  0  0
    3.2012   -8.4668    2.8982 C   0  0  0  0  0  0  0  0  0  0  0  0
    3.8024   -9.4821    2.1231 C   0  0  0  0  0  0  0  0  0  0  0  0
    4.9735   -9.2470    1.3983 C   0  0  0  0  0  0  0  0  0  0  0  0
    5.5569   -7.9805    1.4500 C   0  0  0  0  0  0  0  0  0  0  0  0
    4.9760   -6.9313    2.1861 C   0  0  0  0  0  0  0  0  0  0  0  0
    5.5833   -5.6630    2.1768 C   0  0  0  0  0  0  0  0  0  0  0  0
    5.0129   -4.5864    2.8564 C   0  0  0  0  0  0  0  0  0  0  0  0
    3.8057   -4.7805    3.5350 C   0  0  0  0  0  0  0  0  0  0  0  0
    3.1554   -6.0329    3.5934 C   0  0  0  0  0  0  0  0  0  0  0  0
    3.7554   -7.1441    2.9186 C   0  0  0  0  0  0  0  0  0  0  0  0
    1.9201   -6.0092    4.1962 O   0  0  0  0  0  0  0  0  0  0  0  0
    1.6394   -6.8086    5.3048 C   0  0  2  0  0  0  0  0  0  0  0  0
    2.5093   -6.3888    6.4949 C   0  0  0  0  0  0  0  0  0  0  0  0
    2.6500   -7.7086    7.2440 C   0  0  0  0  0  0  0  0  0  0  0  0
    2.7578   -8.7592    6.1274 C   0  0  0  0  0  0  0  0  0  0  0  0
    1.8871   -8.2122    5.0903 N   0  0  0  0  0  0  0  0  0  0  0  0
    0.3044   -6.5822    5.6983 O   0  0  0  0  0  0  0  0  0  0  0  0
   -0.5965   -6.8618    4.7145 C   0  0  0  0  0  0  0  0  0  0  0  0
   -0.9311   -8.1419    4.5202 C   0  0  0  0  0  0  0  0  0  0  0  0
   -2.4111   -9.7943    2.7062 H   0  0  0  0  0  0  0  0  0  0  0  0
   -1.4197   -9.3550    1.3228 H   0  0  0  0  0  0  0  0  0  0  0  0
   -2.3892   -8.1178    2.1189 H   0  0  0  0  0  0  0  0  0  0  0  0
    0.8364   -9.3194    1.9052 H   0  0  0  0  0  0  0  0  0  0  0  0
    2.1058   -9.8231    3.9699 H   0  0  0  0  0  0  0  0  0  0  0  0
    3.3614  -10.4686    2.0835 H   0  0  0  0  0  0  0  0  0  0  0  0
    5.4261  -10.0454    0.8272 H   0  0  0  0  0  0  0  0  0  0  0  0
    6.4672   -7.7970    0.9035 H   0  0  0  0  0  0  0  0  0  0  0  0
    6.4997   -5.5055    1.6309 H   0  0  0  0  0  0  0  0  0  0  0  0
    5.4816   -3.6091    2.8349 H   0  0  0  0  0  0  0  0  0  0  0  0
    3.3460   -3.9325    4.0222 H   0  0  0  0  0  0  0  0  0  0  0  0
    3.4977   -6.0755    6.1643 H   0  0  0  0  0  0  0  0  0  0  0  0
    2.0520   -5.5848    7.0724 H   0  0  0  0  0  0  0  0  0  0  0  0
    3.5018   -7.7287    7.9273 H   0  0  0  0  0  0  0  0  0  0  0  0
    1.7498   -7.8847    7.8339 H   0  0  0  0  0  0  0  0  0  0  0  0
    3.7833   -8.8568    5.7713 H   0  0  0  0  0  0  0  0  0  0  0  0
    2.4111   -9.7387    6.4578 H   0  0  0  0  0  0  0  0  0  0  0  0
   -0.4320   -6.2095    3.8714 H   0  0  0  0  0  0  0  0  0  0  0  0
   -0.8607   -8.8248    5.3555 H   0  0  0  0  0  0  0  0  0  0  0  0
  1  2  1  0
  1 24  1  0
  1 25  1  0
  1 26  1  0
  2 23  1  0
  2  3  2  3
  3  4  1  0
  3 27  1  0
  4 20  1  0
  4  5  1  0
  4 28  1  1
  5 14  2  0
  5  6  1  0
  6  7  2  0
  6 29  1  0
  7  8  1  0
  7 30  1  0
  8  9  2  0
  8 31  1  0
  9 14  1  0
  9 10  1  0
 10 11  2  0
 10 32  1  0
 11 12  1  0
 11 33  1  0
 12 13  2  0
 12 34  1  0
 13 14  1  0
 13 15  1  0
 16 15  1  6
 16 20  1  0
 16 17  1  0
 16 21  1  0
 17 18  1  0
 17 35  1  0
 17 36  1  0
 18 19  1  0
 18 37  1  0
 18 38  1  0
 19 20  1  0
 19 39  1  0
 19 40  1  0
 21 22  1  0
 22 23  2  3
 22 41  1  0
 23 42  1  0
M  END
>  <i_m_ct_stereo_status>  (230) 
1

>  <s_m_source_file>  (230) 
/var/tmp/pbs.5076255.sched01/tmppvoazpai/72cbyqjt17.sdf

>  <i_m_source_file_index>  (230) 
32

>  <i_lp_mmshare_version>  (230) 
48012

>  <i_f3d_flags>  (230) 
0

>  <s_epik_input>  (230) 
TzEvW0NIXT1bQ0hdXEMoXFtDSDNdKT1bQ0hdL1tDQEhdKE4oW0NAXTEyMylbQ0gyXVtDSDJdW0NIMl0zKWM0YzVjKFtjSF1bY0hdW2NIXTQpW2NIXVtjSF1bY0hdYzVPMg==

>  <s_epik_cmdline>  (230) 
J2VwaWtfcHl0aG9uJywgJy1waHQnLCAnMi4wJywgJy1waCcsICc3LjAnLCAnLXRuJywgJzgnLCAnLW1hJywgJzIwMCcsICctaW1hZScsICc8aW5maWxlLm1hZT4nLCAnLW9tYWUnLCAnPG91dGZpbGUubWFlPic=

>  <r_epik_Ionization_Penalty>  (230) 
0.000674349

>  <r_epik_Ionization_Penalty_Charging>  (230) 
0

>  <r_epik_Ionization_Penalty_Neutral>  (230) 
0.000674349

>  <r_epik_State_Penalty>  (230) 
0.000428076

>  <r_epik_Charging_Adjusted_Penalty>  (230) 
0.000428076

>  <i_epik_Tot_Q>  (230) 
0

>  <i_epik_Tot_abs_Q>  (230) 
0

>  <s_lp_Force_Field>  (230) 
OPLS3e

>  <r_lp_Energy>  (230) 
79.081

>  <b_lp_Chiralities_Consistent>  (230) 
1

>  <s_lp_Variant>  (230) 
84:0-3

>  <s_i_glide_gridfile>  (230) 
pfpi4k_grid

>  <i_i_glide_lignum>  (230) 
32

>  <i_i_glide_rotatable_bonds>  (230) 
0

>  <r_i_docking_score>  (230) 
-2.93405

>  <r_i_glide_ligand_efficiency>  (230) 
-0.127568

>  <r_i_glide_ligand_efficiency_sa>  (230) 
-0.362785

>  <r_i_glide_ligand_efficiency_ln>  (230) 
-0.709481

>  <r_i_glide_gscore>  (230) 
-2.93405

>  <r_i_glide_lipo>  (230) 
-0.412176

>  <r_i_glide_hbond>  (230) 
0

>  <r_i_glide_metal>  (230) 
-0

>  <r_i_glide_rewards>  (230) 
-1.32702

>  <r_i_glide_evdw>  (230) 
-20.3643

>  <r_i_glide_ecoul>  (230) 
-1.16568

>  <r_i_glide_erotb>  (230) 
0

>  <r_i_glide_esite>  (230) 
-0.00178911

>  <r_i_glide_emodel>  (230) 
-25.6755

>  <r_i_glide_energy>  (230) 
-21.53

>  <r_i_glide_einternal>  (230) 
0

>  <r_i_glide_intrahb_reward>  (230) 
-0

>  <i_i_glide_confnum>  (230) 
2

>  <i_i_glide_posenum>  (230) 
21

>  <r_i_glide_eff_state_penalty>  (230) 
0

>  <ligand_id>  (230) 
84

>  <original_smiles>  (230) 
CC1=CC2c3cccc4cccc(c34)OC3(CCCN23)OC=C1

>  <smiles>  (230) 
[H]C1=C([H])C(C([H])([H])[H])=C([H])C2([H])c3c([H])c([H])c([H])c4c([H])c([H])c([H])c(c34)OC3(O1)N2C([H])([H])C([H])([H])C3([H])[H]

$$$$
84:2:1
     RDKit          3D

 42 46  0  0  1  0  0  0  0  0999 V2000
    5.3514   -2.8112    1.6259 C   0  0  0  0  0  0  0  0  0  0  0  0
    4.9631   -4.2467    1.9331 C   0  0  0  0  0  0  0  0  0  0  0  0
    4.1540   -4.5607    2.9788 C   0  0  0  0  0  0  0  0  0  0  0  0
    3.7397   -5.9466    3.5476 C   0  0  1  0  0  0  0  0  0  0  0  0
    2.4059   -5.9272    4.3082 C   0  0  0  0  0  0  0  0  0  0  0  0
    2.3345   -5.3727    5.6065 C   0  0  0  0  0  0  0  0  0  0  0  0
    1.1407   -5.3836    6.3367 C   0  0  0  0  0  0  0  0  0  0  0  0
    0.0067   -5.9656    5.7672 C   0  0  0  0  0  0  0  0  0  0  0  0
    0.0298   -6.5120    4.4709 C   0  0  0  0  0  0  0  0  0  0  0  0
   -1.1444   -7.0651    3.9307 C   0  0  0  0  0  0  0  0  0  0  0  0
   -1.1769   -7.5587    2.6260 C   0  0  0  0  0  0  0  0  0  0  0  0
   -0.0190   -7.4791    1.8470 C   0  0  0  0  0  0  0  0  0  0  0  0
    1.1994   -6.9655    2.3413 C   0  0  0  0  0  0  0  0  0  0  0  0
    1.2369   -6.4780    3.6883 C   0  0  0  0  0  0  0  0  0  0  0  0
    2.1989   -6.8673    1.4023 O   0  0  0  0  0  0  0  0  0  0  0  0
    3.4265   -7.5079    1.5786 C   0  0  2  0  0  0  0  0  0  0  0  0
    3.2368   -9.0300    1.5804 C   0  0  0  0  0  0  0  0  0  0  0  0
    4.3762   -9.4717    2.4869 C   0  0  0  0  0  0  0  0  0  0  0  0
    4.4412   -8.3764    3.5641 C   0  0  0  0  0  0  0  0  0  0  0  0
    4.0855   -7.1743    2.8157 N   0  0  0  0  0  0  0  0  0  0  0  0
    4.2516   -7.2171    0.4746 O   0  0  0  0  0  0  0  0  0  0  0  0
    4.4764   -5.8831    0.2987 C   0  0  0  0  0  0  0  0  0  0  0  0
    5.4069   -5.3045    1.0659 C   0  0  0  0  0  0  0  0  0  0  0  0
    6.4310   -2.6889    1.7002 H   0  0  0  0  0  0  0  0  0  0  0  0
    4.8906   -2.1087    2.3153 H   0  0  0  0  0  0  0  0  0  0  0  0
    5.0390   -2.5467    0.6159 H   0  0  0  0  0  0  0  0  0  0  0  0
    3.8371   -3.7410    3.6065 H   0  0  0  0  0  0  0  0  0  0  0  0
    4.4466   -6.0212    4.3733 H   0  0  0  0  0  0  0  0  0  0  0  0
    3.2147   -4.9286    6.0488 H   0  0  0  0  0  0  0  0  0  0  0  0
    1.0971   -4.9665    7.3339 H   0  0  0  0  0  0  0  0  0  0  0  0
   -0.9124   -5.9831    6.3284 H   0  0  0  0  0  0  0  0  0  0  0  0
   -2.0503   -7.0997    4.5167 H   0  0  0  0  0  0  0  0  0  0  0  0
   -2.0854   -7.9835    2.2178 H   0  0  0  0  0  0  0  0  0  0  0  0
   -0.0571   -7.8440    0.8309 H   0  0  0  0  0  0  0  0  0  0  0  0
    2.2952   -9.3056    2.0533 H   0  0  0  0  0  0  0  0  0  0  0  0
    3.2706   -9.4559    0.5779 H   0  0  0  0  0  0  0  0  0  0  0  0
    4.2298  -10.4692    2.9060 H   0  0  0  0  0  0  0  0  0  0  0  0
    5.3024   -9.4875    1.9119 H   0  0  0  0  0  0  0  0  0  0  0  0
    3.7301   -8.5634    4.3688 H   0  0  0  0  0  0  0  0  0  0  0  0
    5.4391   -8.2915    3.9945 H   0  0  0  0  0  0  0  0  0  0  0  0
    3.5446   -5.3807    0.0882 H   0  0  0  0  0  0  0  0  0  0  0  0
    6.2063   -5.9294    1.4385 H   0  0  0  0  0  0  0  0  0  0  0  0
  1  2  1  0
  1 24  1  0
  1 25  1  0
  1 26  1  0
  2 23  1  0
  2  3  2  3
  3  4  1  0
  3 27  1  0
  4 20  1  0
  4  5  1  0
  4 28  1  1
  5 14  2  0
  5  6  1  0
  6  7  2  0
  6 29  1  0
  7  8  1  0
  7 30  1  0
  8  9  2  0
  8 31  1  0
  9 14  1  0
  9 10  1  0
 10 11  2  0
 10 32  1  0
 11 12  1  0
 11 33  1  0
 12 13  2  0
 12 34  1  0
 13 14  1  0
 13 15  1  0
 16 15  1  6
 16 20  1  0
 16 17  1  0
 16 21  1  0
 17 18  1  0
 17 35  1  0
 17 36  1  0
 18 19  1  0
 18 37  1  0
 18 38  1  0
 19 20  1  0
 19 39  1  0
 19 40  1  0
 21 22  1  0
 22 23  2  3
 22 41  1  0
 23 42  1  0
M  END
>  <i_m_ct_stereo_status>  (231) 
1

>  <s_m_source_file>  (231) 
/var/tmp/pbs.5076255.sched01/tmppvoazpai/72cbyqjt17.sdf

>  <i_m_source_file_index>  (231) 
32

>  <i_lp_mmshare_version>  (231) 
48012

>  <i_f3d_flags>  (231) 
0

>  <s_epik_input>  (231) 
TzEvW0NIXT1bQ0hdXEMoXFtDSDNdKT1bQ0hdL1tDQEhdKE4oW0NAXTEyMylbQ0gyXVtDSDJdW0NIMl0zKWM0YzVjKFtjSF1bY0hdW2NIXTQpW2NIXVtjSF1bY0hdYzVPMg==

>  <s_epik_cmdline>  (231) 
J2VwaWtfcHl0aG9uJywgJy1waHQnLCAnMi4wJywgJy1waCcsICc3LjAnLCAnLXRuJywgJzgnLCAnLW1hJywgJzIwMCcsICctaW1hZScsICc8aW5maWxlLm1hZT4nLCAnLW9tYWUnLCAnPG91dGZpbGUubWFlPic=

>  <r_epik_Ionization_Penalty>  (231) 
0.000674349

>  <r_epik_Ionization_Penalty_Charging>  (231) 
0

>  <r_epik_Ionization_Penalty_Neutral>  (231) 
0.000674349

>  <r_epik_State_Penalty>  (231) 
0.000428076

>  <r_epik_Charging_Adjusted_Penalty>  (231) 
0.000428076

>  <i_epik_Tot_Q>  (231) 
0

>  <i_epik_Tot_abs_Q>  (231) 
0

>  <s_lp_Force_Field>  (231) 
OPLS3e

>  <r_lp_Energy>  (231) 
79.081

>  <b_lp_Chiralities_Consistent>  (231) 
1

>  <s_lp_Variant>  (231) 
84:0-3

>  <s_i_glide_gridfile>  (231) 
pfpi4k_grid

>  <i_i_glide_lignum>  (231) 
32

>  <i_i_glide_rotatable_bonds>  (231) 
0

>  <r_i_docking_score>  (231) 
-2.86128

>  <r_i_glide_ligand_efficiency>  (231) 
-0.124403

>  <r_i_glide_ligand_efficiency_sa>  (231) 
-0.353786

>  <r_i_glide_ligand_efficiency_ln>  (231) 
-0.691882

>  <r_i_glide_gscore>  (231) 
-2.86128

>  <r_i_glide_lipo>  (231) 
-0.245584

>  <r_i_glide_hbond>  (231) 
0

>  <r_i_glide_metal>  (231) 
-0

>  <r_i_glide_rewards>  (231) 
-1.38739

>  <r_i_glide_evdw>  (231) 
-22.5926

>  <r_i_glide_ecoul>  (231) 
-0.657792

>  <r_i_glide_erotb>  (231) 
0

>  <r_i_glide_esite>  (231) 
0

>  <r_i_glide_emodel>  (231) 
-27.2877

>  <r_i_glide_energy>  (231) 
-23.2504

>  <r_i_glide_einternal>  (231) 
0

>  <r_i_glide_intrahb_reward>  (231) 
-0

>  <i_i_glide_confnum>  (231) 
1

>  <i_i_glide_posenum>  (231) 
22

>  <r_i_glide_eff_state_penalty>  (231) 
0

>  <ligand_id>  (231) 
84

>  <original_smiles>  (231) 
CC1=CC2c3cccc4cccc(c34)OC3(CCCN23)OC=C1

>  <smiles>  (231) 
[H]C1=C([H])C(C([H])([H])[H])=C([H])C2([H])c3c([H])c([H])c([H])c4c([H])c([H])c([H])c(c34)OC3(O1)N2C([H])([H])C([H])([H])C3([H])[H]

$$$$
84:2:2
     RDKit          3D

 42 46  0  0  1  0  0  0  0  0999 V2000
    3.4161   -1.0134    1.0297 C   0  0  0  0  0  0  0  0  0  0  0  0
    3.6341   -2.4698    1.4015 C   0  0  0  0  0  0  0  0  0  0  0  0
    3.0315   -3.0335    2.4819 C   0  0  0  0  0  0  0  0  0  0  0  0
    3.2212   -4.4394    3.1156 C   0  0  1  0  0  0  0  0  0  0  0  0
    2.0058   -4.9236    3.9210 C   0  0  0  0  0  0  0  0  0  0  0  0
    1.7365   -4.3839    5.1993 C   0  0  0  0  0  0  0  0  0  0  0  0
    0.6609   -4.8433    5.9686 C   0  0  0  0  0  0  0  0  0  0  0  0
   -0.1476   -5.8619    5.4604 C   0  0  0  0  0  0  0  0  0  0  0  0
    0.0728   -6.4114    4.1836 C   0  0  0  0  0  0  0  0  0  0  0  0
   -0.7955   -7.4074    3.6998 C   0  0  0  0  0  0  0  0  0  0  0  0
   -0.6419   -7.9324    2.4167 C   0  0  0  0  0  0  0  0  0  0  0  0
    0.3823   -7.4374    1.6040 C   0  0  0  0  0  0  0  0  0  0  0  0
    1.2967   -6.4538    2.0370 C   0  0  0  0  0  0  0  0  0  0  0  0
    1.1527   -5.9303    3.3621 C   0  0  0  0  0  0  0  0  0  0  0  0
    2.1532   -6.0012    1.0607 O   0  0  0  0  0  0  0  0  0  0  0  0
    3.5383   -6.0840    1.2162 C   0  0  2  0  0  0  0  0  0  0  0  0
    3.9830   -7.5508    1.2810 C   0  0  0  0  0  0  0  0  0  0  0  0
    5.2167   -7.4532    2.1683 C   0  0  0  0  0  0  0  0  0  0  0  0
    4.8459   -6.3759    3.1998 C   0  0  0  0  0  0  0  0  0  0  0  0
    4.0239   -5.4555    2.4181 N   0  0  0  0  0  0  0  0  0  0  0  0
    4.1598   -5.5393    0.0779 O   0  0  0  0  0  0  0  0  0  0  0  0
    3.8240   -4.2378   -0.1567 C   0  0  0  0  0  0  0  0  0  0  0  0
    4.4521   -3.3001    0.5617 C   0  0  0  0  0  0  0  0  0  0  0  0
    4.3526   -0.4604    1.0666 H   0  0  0  0  0  0  0  0  0  0  0  0
    2.7120   -0.5248    1.6990 H   0  0  0  0  0  0  0  0  0  0  0  0
    3.0182   -0.9473    0.0184 H   0  0  0  0  0  0  0  0  0  0  0  0
    2.4202   -2.3810    3.0888 H   0  0  0  0  0  0  0  0  0  0  0  0
    3.9105   -4.1835    3.9180 H   0  0  0  0  0  0  0  0  0  0  0  0
    2.3697   -3.6027    5.5934 H   0  0  0  0  0  0  0  0  0  0  0  0
    0.4697   -4.4365    6.9511 H   0  0  0  0  0  0  0  0  0  0  0  0
   -0.9702   -6.2273    6.0513 H   0  0  0  0  0  0  0  0  0  0  0  0
   -1.6002   -7.7801    4.3168 H   0  0  0  0  0  0  0  0  0  0  0  0
   -1.3096   -8.7006    2.0443 H   0  0  0  0  0  0  0  0  0  0  0  0
    0.4762   -7.8399    0.6038 H   0  0  0  0  0  0  0  0  0  0  0  0
    3.2409   -8.1621    1.7924 H   0  0  0  0  0  0  0  0  0  0  0  0
    4.1798   -7.9686    0.2926 H   0  0  0  0  0  0  0  0  0  0  0  0
    5.4942   -8.4037    2.6287 H   0  0  0  0  0  0  0  0  0  0  0  0
    6.0617   -7.1194    1.5650 H   0  0  0  0  0  0  0  0  0  0  0  0
    4.2856   -6.7978    4.0338 H   0  0  0  0  0  0  0  0  0  0  0  0
    5.7299   -5.8750    3.5939 H   0  0  0  0  0  0  0  0  0  0  0  0
    2.7654   -4.1637   -0.3578 H   0  0  0  0  0  0  0  0  0  0  0  0
    5.4405   -3.5307    0.9313 H   0  0  0  0  0  0  0  0  0  0  0  0
  1  2  1  0
  1 24  1  0
  1 25  1  0
  1 26  1  0
  2 23  1  0
  2  3  2  3
  3  4  1  0
  3 27  1  0
  4 20  1  0
  4  5  1  0
  4 28  1  1
  5 14  2  0
  5  6  1  0
  6  7  2  0
  6 29  1  0
  7  8  1  0
  7 30  1  0
  8  9  2  0
  8 31  1  0
  9 14  1  0
  9 10  1  0
 10 11  2  0
 10 32  1  0
 11 12  1  0
 11 33  1  0
 12 13  2  0
 12 34  1  0
 13 14  1  0
 13 15  1  0
 16 15  1  6
 16 20  1  0
 16 17  1  0
 16 21  1  0
 17 18  1  0
 17 35  1  0
 17 36  1  0
 18 19  1  0
 18 37  1  0
 18 38  1  0
 19 20  1  0
 19 39  1  0
 19 40  1  0
 21 22  1  0
 22 23  2  3
 22 41  1  0
 23 42  1  0
M  END
>  <i_m_ct_stereo_status>  (232) 
1

>  <s_m_source_file>  (232) 
/var/tmp/pbs.5076255.sched01/tmppvoazpai/72cbyqjt17.sdf

>  <i_m_source_file_index>  (232) 
32

>  <i_lp_mmshare_version>  (232) 
48012

>  <i_f3d_flags>  (232) 
0

>  <s_epik_input>  (232) 
TzEvW0NIXT1bQ0hdXEMoXFtDSDNdKT1bQ0hdL1tDQEhdKE4oW0NAXTEyMylbQ0gyXVtDSDJdW0NIMl0zKWM0YzVjKFtjSF1bY0hdW2NIXTQpW2NIXVtjSF1bY0hdYzVPMg==

>  <s_epik_cmdline>  (232) 
J2VwaWtfcHl0aG9uJywgJy1waHQnLCAnMi4wJywgJy1waCcsICc3LjAnLCAnLXRuJywgJzgnLCAnLW1hJywgJzIwMCcsICctaW1hZScsICc8aW5maWxlLm1hZT4nLCAnLW9tYWUnLCAnPG91dGZpbGUubWFlPic=

>  <r_epik_Ionization_Penalty>  (232) 
0.000674349

>  <r_epik_Ionization_Penalty_Charging>  (232) 
0

>  <r_epik_Ionization_Penalty_Neutral>  (232) 
0.000674349

>  <r_epik_State_Penalty>  (232) 
0.000428076

>  <r_epik_Charging_Adjusted_Penalty>  (232) 
0.000428076

>  <i_epik_Tot_Q>  (232) 
0

>  <i_epik_Tot_abs_Q>  (232) 
0

>  <s_lp_Force_Field>  (232) 
OPLS3e

>  <r_lp_Energy>  (232) 
79.081

>  <b_lp_Chiralities_Consistent>  (232) 
1

>  <s_lp_Variant>  (232) 
84:0-3

>  <s_i_glide_gridfile>  (232) 
pfpi4k_grid

>  <i_i_glide_lignum>  (232) 
32

>  <i_i_glide_rotatable_bonds>  (232) 
0

>  <r_i_docking_score>  (232) 
-2.67887

>  <r_i_glide_ligand_efficiency>  (232) 
-0.116473

>  <r_i_glide_ligand_efficiency_sa>  (232) 
-0.331232

>  <r_i_glide_ligand_efficiency_ln>  (232) 
-0.647775

>  <r_i_glide_gscore>  (232) 
-2.67887

>  <r_i_glide_lipo>  (232) 
-0.108484

>  <r_i_glide_hbond>  (232) 
0

>  <r_i_glide_metal>  (232) 
-0

>  <r_i_glide_rewards>  (232) 
-1.3826

>  <r_i_glide_evdw>  (232) 
-23.1183

>  <r_i_glide_ecoul>  (232) 
-0.212428

>  <r_i_glide_erotb>  (232) 
0

>  <r_i_glide_esite>  (232) 
0

>  <r_i_glide_emodel>  (232) 
-27.0691

>  <r_i_glide_energy>  (232) 
-23.3307

>  <r_i_glide_einternal>  (232) 
0

>  <r_i_glide_intrahb_reward>  (232) 
-0

>  <i_i_glide_confnum>  (232) 
2

>  <i_i_glide_posenum>  (232) 
27

>  <r_i_glide_eff_state_penalty>  (232) 
0

>  <ligand_id>  (232) 
84

>  <original_smiles>  (232) 
CC1=CC2c3cccc4cccc(c34)OC3(CCCN23)OC=C1

>  <smiles>  (232) 
[H]C1=C([H])C(C([H])([H])[H])=C([H])C2([H])c3c([H])c([H])c([H])c4c([H])c([H])c([H])c(c34)OC3(O1)N2C([H])([H])C([H])([H])C3([H])[H]

$$$$
84:3:0
     RDKit          3D

 42 46  0  0  1  0  0  0  0  0999 V2000
   -4.3319  -11.4605   -5.3197 C   0  0  0  0  0  0  0  0  0  0  0  0
   -4.4275  -10.7719   -6.6342 C   0  0  0  0  0  0  0  0  0  0  0  0
   -5.0465   -9.5783   -6.7578 C   0  0  0  0  0  0  0  0  0  0  0  0
   -6.4947   -9.4241   -6.3177 C   0  0  1  0  0  0  0  0  0  0  0  0
   -6.9945   -7.9790   -6.4369 C   0  0  0  0  0  0  0  0  0  0  0  0
   -6.9837   -7.0910   -5.3415 C   0  0  0  0  0  0  0  0  0  0  0  0
   -7.4675   -5.7867   -5.4465 C   0  0  0  0  0  0  0  0  0  0  0  0
   -7.9444   -5.3532   -6.6880 C   0  0  0  0  0  0  0  0  0  0  0  0
   -7.9306   -6.1934   -7.8124 C   0  0  0  0  0  0  0  0  0  0  0  0
   -8.3518   -5.6746   -9.0589 C   0  0  0  0  0  0  0  0  0  0  0  0
   -8.2960   -6.4287  -10.2216 C   0  0  0  0  0  0  0  0  0  0  0  0
   -7.8113   -7.7422  -10.1370 C   0  0  0  0  0  0  0  0  0  0  0  0
   -7.3800   -8.3252   -8.9323 C   0  0  0  0  0  0  0  0  0  0  0  0
   -7.4404   -7.5388   -7.7345 C   0  0  0  0  0  0  0  0  0  0  0  0
   -6.8204   -9.5851   -9.0968 O   0  0  0  0  0  0  0  0  0  0  0  0
   -7.2973  -10.6741   -8.3893 C   0  0  2  0  0  0  0  0  0  0  0  0
   -8.7618  -10.9334   -8.7849 C   0  0  0  0  0  0  0  0  0  0  0  0
   -9.3366  -11.5377   -7.5223 C   0  0  0  0  0  0  0  0  0  0  0  0
   -8.6450  -10.7405   -6.4203 C   0  0  0  0  0  0  0  0  0  0  0  0
   -7.3253  -10.4587   -6.9505 N   0  0  0  0  0  0  0  0  0  0  0  0
   -6.5973  -11.8631   -8.7634 O   0  0  0  0  0  0  0  0  0  0  0  0
   -5.6104  -12.3494   -7.9423 C   0  0  0  0  0  0  0  0  0  0  0  0
   -4.4879  -11.6159   -7.7971 C   0  0  0  0  0  0  0  0  0  0  0  0
   -4.6132  -12.5138   -5.4126 H   0  0  0  0  0  0  0  0  0  0  0  0
   -4.9852  -10.9876   -4.6059 H   0  0  0  0  0  0  0  0  0  0  0  0
   -3.3081  -11.4192   -4.9463 H   0  0  0  0  0  0  0  0  0  0  0  0
   -4.9851   -9.1139   -7.7270 H   0  0  0  0  0  0  0  0  0  0  0  0
   -6.5274   -9.6452   -5.2494 H   0  0  0  0  0  0  0  0  0  0  0  0
   -6.6171   -7.4123   -4.3717 H   0  0  0  0  0  0  0  0  0  0  0  0
   -7.4987   -5.1336   -4.5818 H   0  0  0  0  0  0  0  0  0  0  0  0
   -8.3073   -4.3439   -6.7775 H   0  0  0  0  0  0  0  0  0  0  0  0
   -8.6894   -4.6522   -9.1026 H   0  0  0  0  0  0  0  0  0  0  0  0
   -8.5889   -6.0194  -11.1802 H   0  0  0  0  0  0  0  0  0  0  0  0
   -7.7430   -8.3191  -11.0419 H   0  0  0  0  0  0  0  0  0  0  0  0
   -9.2971  -10.0009   -8.9757 H   0  0  0  0  0  0  0  0  0  0  0  0
   -8.8350  -11.5815   -9.6545 H   0  0  0  0  0  0  0  0  0  0  0  0
  -10.4204  -11.4684   -7.4374 H   0  0  0  0  0  0  0  0  0  0  0  0
   -9.0483  -12.5823   -7.4329 H   0  0  0  0  0  0  0  0  0  0  0  0
   -9.1621   -9.8105   -6.2879 H   0  0  0  0  0  0  0  0  0  0  0  0
   -8.6065  -11.3236   -5.5164 H   0  0  0  0  0  0  0  0  0  0  0  0
   -6.1000  -12.6931   -7.0403 H   0  0  0  0  0  0  0  0  0  0  0  0
   -4.0307  -11.1895   -8.6634 H   0  0  0  0  0  0  0  0  0  0  0  0
  1  2  1  0
  1 24  1  0
  1 25  1  0
  1 26  1  0
  2 23  1  0
  2  3  2  3
  3  4  1  0
  3 27  1  0
  4 20  1  0
  4  5  1  0
  4 28  1  1
  5 14  2  0
  5  6  1  0
  6  7  2  0
  6 29  1  0
  7  8  1  0
  7 30  1  0
  8  9  2  0
  8 31  1  0
  9 14  1  0
  9 10  1  0
 10 11  2  0
 10 32  1  0
 11 12  1  0
 11 33  1  0
 12 13  2  0
 12 34  1  0
 13 14  1  0
 13 15  1  0
 16 15  1  6
 16 20  1  0
 16 17  1  0
 16 21  1  0
 17 18  1  0
 17 35  1  0
 17 36  1  0
 18 19  1  0
 18 37  1  0
 18 38  1  0
 19 20  1  0
 19 39  1  0
 19 40  1  0
 21 22  1  0
 22 23  2  3
 22 41  1  0
 23 42  1  0
M  END
>  <i_m_ct_stereo_status>  (233) 
1

>  <s_m_source_file>  (233) 
/var/tmp/pbs.5076255.sched01/tmppvoazpai/72cbyqjt17.sdf

>  <i_m_source_file_index>  (233) 
33

>  <i_lp_mmshare_version>  (233) 
48012

>  <i_f3d_flags>  (233) 
0

>  <s_epik_input>  (233) 
TzEvW0NIXT1bQ0hdXEMoXFtDSDNdKT1bQ0hdL1tDQEhdKE4oW0NAXTEyMylbQ0gyXVtDSDJdW0NIMl0zKWM0YzVjKFtjSF1bY0hdW2NIXTQpW2NIXVtjSF1bY0hdYzVPMg==

>  <s_epik_cmdline>  (233) 
J2VwaWtfcHl0aG9uJywgJy1waHQnLCAnMi4wJywgJy1waCcsICc3LjAnLCAnLXRuJywgJzgnLCAnLW1hJywgJzIwMCcsICctaW1hZScsICc8aW5maWxlLm1hZT4nLCAnLW9tYWUnLCAnPG91dGZpbGUubWFlPic=

>  <r_epik_Ionization_Penalty>  (233) 
0.000674349

>  <r_epik_Ionization_Penalty_Charging>  (233) 
0

>  <r_epik_Ionization_Penalty_Neutral>  (233) 
0.000674349

>  <r_epik_State_Penalty>  (233) 
0.000428076

>  <r_epik_Charging_Adjusted_Penalty>  (233) 
0.000428076

>  <i_epik_Tot_Q>  (233) 
0

>  <i_epik_Tot_abs_Q>  (233) 
0

>  <s_lp_Force_Field>  (233) 
OPLS3e

>  <r_lp_Energy>  (233) 
116.122

>  <b_lp_Chiralities_Consistent>  (233) 
1

>  <s_lp_Variant>  (233) 
84:0-4

>  <s_i_glide_gridfile>  (233) 
pfpi4k_grid

>  <i_i_glide_lignum>  (233) 
33

>  <i_i_glide_rotatable_bonds>  (233) 
0

>  <r_i_docking_score>  (233) 
-5.62602

>  <r_i_glide_ligand_efficiency>  (233) 
-0.244609

>  <r_i_glide_ligand_efficiency_sa>  (233) 
-0.695637

>  <r_i_glide_ligand_efficiency_ln>  (233) 
-1.36042

>  <r_i_glide_gscore>  (233) 
-5.62602

>  <r_i_glide_lipo>  (233) 
-2.61357

>  <r_i_glide_hbond>  (233) 
0

>  <r_i_glide_metal>  (233) 
-0

>  <r_i_glide_rewards>  (233) 
-2.0576

>  <r_i_glide_evdw>  (233) 
-20.6583

>  <r_i_glide_ecoul>  (233) 
0.520481

>  <r_i_glide_erotb>  (233) 
0

>  <r_i_glide_esite>  (233) 
0

>  <r_i_glide_emodel>  (233) 
-27.8908

>  <r_i_glide_energy>  (233) 
-20.1378

>  <r_i_glide_einternal>  (233) 
0

>  <r_i_glide_intrahb_reward>  (233) 
-0

>  <i_i_glide_confnum>  (233) 
1

>  <i_i_glide_posenum>  (233) 
19

>  <r_i_glide_eff_state_penalty>  (233) 
0

>  <ligand_id>  (233) 
84

>  <original_smiles>  (233) 
CC1=CC2c3cccc4cccc(c34)OC3(CCCN23)OC=C1

>  <smiles>  (233) 
[H]C1=C([H])C(C([H])([H])[H])=C([H])C2([H])c3c([H])c([H])c([H])c4c([H])c([H])c([H])c(c34)OC3(O1)N2C([H])([H])C([H])([H])C3([H])[H]

$$$$
84:3:1
     RDKit          3D

 42 46  0  0  1  0  0  0  0  0999 V2000
    0.0349    1.4257    2.8620 C   0  0  0  0  0  0  0  0  0  0  0  0
   -1.0827    1.4962    3.9029 C   0  0  0  0  0  0  0  0  0  0  0  0
   -1.2083    2.5281    4.7656 C   0  0  0  0  0  0  0  0  0  0  0  0
   -0.0473    2.9222    5.6731 C   0  0  1  0  0  0  0  0  0  0  0  0
   -0.3535    4.1580    6.5192 C   0  0  0  0  0  0  0  0  0  0  0  0
    0.0874    5.4355    6.1086 C   0  0  0  0  0  0  0  0  0  0  0  0
   -0.1675    6.5719    6.8823 C   0  0  0  0  0  0  0  0  0  0  0  0
   -0.8741    6.4292    8.0811 C   0  0  0  0  0  0  0  0  0  0  0  0
   -1.3547    5.1788    8.5112 C   0  0  0  0  0  0  0  0  0  0  0  0
   -2.0908    5.0943    9.7083 C   0  0  0  0  0  0  0  0  0  0  0  0
   -2.6085    3.8784   10.1548 C   0  0  0  0  0  0  0  0  0  0  0  0
   -2.4053    2.7372    9.3801 C   0  0  0  0  0  0  0  0  0  0  0  0
   -1.6620    2.7442    8.1798 C   0  0  0  0  0  0  0  0  0  0  0  0
   -1.1152    3.9947    7.7276 C   0  0  0  0  0  0  0  0  0  0  0  0
   -1.6380    1.5248    7.5318 O   0  0  0  0  0  0  0  0  0  0  0  0
   -0.4242    0.9219    7.2012 C   0  0  2  0  0  0  0  0  0  0  0  0
    0.3522    0.5711    8.4784 C   0  0  0  0  0  0  0  0  0  0  0  0
    1.7929    0.6480    7.9904 C   0  0  0  0  0  0  0  0  0  0  0  0
    1.7957    1.8419    7.0238 C   0  0  0  0  0  0  0  0  0  0  0  0
    0.4680    1.7695    6.4264 N   0  0  0  0  0  0  0  0  0  0  0  0
   -0.6971   -0.3343    6.5857 O   0  0  0  0  0  0  0  0  0  0  0  0
   -0.6742   -0.4184    5.2175 C   0  0  0  0  0  0  0  0  0  0  0  0
   -1.5776    0.2792    4.5051 C   0  0  0  0  0  0  0  0  0  0  0  0
    0.5402    0.4604    2.8629 H   0  0  0  0  0  0  0  0  0  0  0  0
    0.7824    2.2045    3.0087 H   0  0  0  0  0  0  0  0  0  0  0  0
   -0.3812    1.5655    1.8639 H   0  0  0  0  0  0  0  0  0  0  0  0
   -2.0841    2.4969    5.3997 H   0  0  0  0  0  0  0  0  0  0  0  0
    0.7656    3.2103    5.0067 H   0  0  0  0  0  0  0  0  0  0  0  0
    0.6324    5.5367    5.1781 H   0  0  0  0  0  0  0  0  0  0  0  0
    0.1893    7.5441    6.5669 H   0  0  0  0  0  0  0  0  0  0  0  0
   -1.0692    7.3041    8.6802 H   0  0  0  0  0  0  0  0  0  0  0  0
   -2.2721    5.9799   10.2993 H   0  0  0  0  0  0  0  0  0  0  0  0
   -3.1764    3.8152   11.0774 H   0  0  0  0  0  0  0  0  0  0  0  0
   -2.8325    1.8113    9.7255 H   0  0  0  0  0  0  0  0  0  0  0  0
    0.2092    1.3259    9.2507 H   0  0  0  0  0  0  0  0  0  0  0  0
    0.0682   -0.4026    8.8730 H   0  0  0  0  0  0  0  0  0  0  0  0
    2.5152    0.7614    8.8019 H   0  0  0  0  0  0  0  0  0  0  0  0
    2.0463   -0.2661    7.4524 H   0  0  0  0  0  0  0  0  0  0  0  0
    1.9382    2.7809    7.5609 H   0  0  0  0  0  0  0  0  0  0  0  0
    2.5827    1.7513    6.2722 H   0  0  0  0  0  0  0  0  0  0  0  0
    0.3693   -0.3562    4.9286 H   0  0  0  0  0  0  0  0  0  0  0  0
   -2.5744    0.3570    4.9153 H   0  0  0  0  0  0  0  0  0  0  0  0
  1  2  1  0
  1 24  1  0
  1 25  1  0
  1 26  1  0
  2 23  1  0
  2  3  2  3
  3  4  1  0
  3 27  1  0
  4 20  1  0
  4  5  1  0
  4 28  1  6
  5 14  2  0
  5  6  1  0
  6  7  2  0
  6 29  1  0
  7  8  1  0
  7 30  1  0
  8  9  2  0
  8 31  1  0
  9 14  1  0
  9 10  1  0
 10 11  2  0
 10 32  1  0
 11 12  1  0
 11 33  1  0
 12 13  2  0
 12 34  1  0
 13 14  1  0
 13 15  1  0
 16 15  1  1
 16 20  1  0
 16 17  1  0
 16 21  1  0
 17 18  1  0
 17 35  1  0
 17 36  1  0
 18 19  1  0
 18 37  1  0
 18 38  1  0
 19 20  1  0
 19 39  1  0
 19 40  1  0
 21 22  1  0
 22 23  2  3
 22 41  1  0
 23 42  1  0
M  END
>  <i_m_ct_stereo_status>  (234) 
1

>  <s_m_source_file>  (234) 
/var/tmp/pbs.5076255.sched01/tmppvoazpai/72cbyqjt17.sdf

>  <i_m_source_file_index>  (234) 
33

>  <i_lp_mmshare_version>  (234) 
48012

>  <i_f3d_flags>  (234) 
0

>  <s_epik_input>  (234) 
TzEvW0NIXT1bQ0hdXEMoXFtDSDNdKT1bQ0hdL1tDQEhdKE4oW0NAXTEyMylbQ0gyXVtDSDJdW0NIMl0zKWM0YzVjKFtjSF1bY0hdW2NIXTQpW2NIXVtjSF1bY0hdYzVPMg==

>  <s_epik_cmdline>  (234) 
J2VwaWtfcHl0aG9uJywgJy1waHQnLCAnMi4wJywgJy1waCcsICc3LjAnLCAnLXRuJywgJzgnLCAnLW1hJywgJzIwMCcsICctaW1hZScsICc8aW5maWxlLm1hZT4nLCAnLW9tYWUnLCAnPG91dGZpbGUubWFlPic=

>  <r_epik_Ionization_Penalty>  (234) 
0.000674349

>  <r_epik_Ionization_Penalty_Charging>  (234) 
0

>  <r_epik_Ionization_Penalty_Neutral>  (234) 
0.000674349

>  <r_epik_State_Penalty>  (234) 
0.000428076

>  <r_epik_Charging_Adjusted_Penalty>  (234) 
0.000428076

>  <i_epik_Tot_Q>  (234) 
0

>  <i_epik_Tot_abs_Q>  (234) 
0

>  <s_lp_Force_Field>  (234) 
OPLS3e

>  <r_lp_Energy>  (234) 
116.122

>  <b_lp_Chiralities_Consistent>  (234) 
1

>  <s_lp_Variant>  (234) 
84:0-4

>  <s_i_glide_gridfile>  (234) 
pfpi4k_grid

>  <i_i_glide_lignum>  (234) 
33

>  <i_i_glide_rotatable_bonds>  (234) 
0

>  <r_i_docking_score>  (234) 
-2.69216

>  <r_i_glide_ligand_efficiency>  (234) 
-0.11705

>  <r_i_glide_ligand_efficiency_sa>  (234) 
-0.332876

>  <r_i_glide_ligand_efficiency_ln>  (234) 
-0.650989

>  <r_i_glide_gscore>  (234) 
-2.69216

>  <r_i_glide_lipo>  (234) 
-0.00186679

>  <r_i_glide_hbond>  (234) 
-0.069532

>  <r_i_glide_metal>  (234) 
-0

>  <r_i_glide_rewards>  (234) 
-1.32702

>  <r_i_glide_evdw>  (234) 
-19.2259

>  <r_i_glide_ecoul>  (234) 
-1.98034

>  <r_i_glide_erotb>  (234) 
0

>  <r_i_glide_esite>  (234) 
-0.0353938

>  <r_i_glide_emodel>  (234) 
-24.9064

>  <r_i_glide_energy>  (234) 
-21.2062

>  <r_i_glide_einternal>  (234) 
0

>  <r_i_glide_intrahb_reward>  (234) 
-0

>  <i_i_glide_confnum>  (234) 
1

>  <i_i_glide_posenum>  (234) 
20

>  <r_i_glide_eff_state_penalty>  (234) 
0

>  <ligand_id>  (234) 
84

>  <original_smiles>  (234) 
CC1=CC2c3cccc4cccc(c34)OC3(CCCN23)OC=C1

>  <smiles>  (234) 
[H]C1=C([H])C(C([H])([H])[H])=C([H])C2([H])c3c([H])c([H])c([H])c4c([H])c([H])c([H])c(c34)OC3(O1)N2C([H])([H])C([H])([H])C3([H])[H]

$$$$
84:3:2
     RDKit          3D

 42 46  0  0  1  0  0  0  0  0999 V2000
   -2.5559    3.1879    5.7873 C   0  0  0  0  0  0  0  0  0  0  0  0
   -1.9285    2.8785    4.4288 C   0  0  0  0  0  0  0  0  0  0  0  0
   -1.3444    1.6925    4.1552 C   0  0  0  0  0  0  0  0  0  0  0  0
   -0.2305    1.1529    5.0481 C   0  0  1  0  0  0  0  0  0  0  0  0
    0.2400   -0.2396    4.6255 C   0  0  0  0  0  0  0  0  0  0  0  0
   -0.2602   -1.3920    5.2694 C   0  0  0  0  0  0  0  0  0  0  0  0
    0.1778   -2.6698    4.9059 C   0  0  0  0  0  0  0  0  0  0  0  0
    1.1203   -2.7953    3.8827 C   0  0  0  0  0  0  0  0  0  0  0  0
    1.6267   -1.6727    3.2010 C   0  0  0  0  0  0  0  0  0  0  0  0
    2.5524   -1.8558    2.1561 C   0  0  0  0  0  0  0  0  0  0  0  0
    3.0500   -0.7707    1.4325 C   0  0  0  0  0  0  0  0  0  0  0  0
    2.6030    0.5135    1.7569 C   0  0  0  0  0  0  0  0  0  0  0  0
    1.6885    0.7689    2.7993 C   0  0  0  0  0  0  0  0  0  0  0  0
    1.1851   -0.3490    3.5492 C   0  0  0  0  0  0  0  0  0  0  0  0
    1.3110    2.0928    2.9015 O   0  0  0  0  0  0  0  0  0  0  0  0
    1.4697    2.7888    4.0990 C   0  0  2  0  0  0  0  0  0  0  0  0
    2.9604    2.8877    4.4536 C   0  0  0  0  0  0  0  0  0  0  0  0
    2.9088    2.9478    5.9740 C   0  0  0  0  0  0  0  0  0  0  0  0
    1.7774    1.9776    6.3482 C   0  0  0  0  0  0  0  0  0  0  0  0
    0.8431    2.1390    5.2409 N   0  0  0  0  0  0  0  0  0  0  0  0
    1.0490    4.1364    3.9155 O   0  0  0  0  0  0  0  0  0  0  0  0
   -0.2183    4.4949    4.2992 C   0  0  0  0  0  0  0  0  0  0  0  0
   -1.2803    3.9359    3.6847 C   0  0  0  0  0  0  0  0  0  0  0  0
   -2.2128    4.1370    6.1972 H   0  0  0  0  0  0  0  0  0  0  0  0
   -2.3502    2.4154    6.5269 H   0  0  0  0  0  0  0  0  0  0  0  0
   -3.6383    3.2590    5.6820 H   0  0  0  0  0  0  0  0  0  0  0  0
   -0.9997    1.5740    3.1373 H   0  0  0  0  0  0  0  0  0  0  0  0
   -0.6721    1.0293    6.0362 H   0  0  0  0  0  0  0  0  0  0  0  0
   -0.9941   -1.2873    6.0549 H   0  0  0  0  0  0  0  0  0  0  0  0
   -0.1983   -3.5494    5.4090 H   0  0  0  0  0  0  0  0  0  0  0  0
    1.4598   -3.7778    3.6005 H   0  0  0  0  0  0  0  0  0  0  0  0
    2.8807   -2.8503    1.8883 H   0  0  0  0  0  0  0  0  0  0  0  0
    3.7447   -0.9203    0.6151 H   0  0  0  0  0  0  0  0  0  0  0  0
    2.9660    1.3462    1.1846 H   0  0  0  0  0  0  0  0  0  0  0  0
    3.5002    1.9880    4.1604 H   0  0  0  0  0  0  0  0  0  0  0  0
    3.4288    3.7504    3.9830 H   0  0  0  0  0  0  0  0  0  0  0  0
    3.8578    2.6888    6.4483 H   0  0  0  0  0  0  0  0  0  0  0  0
    2.6492    3.9588    6.2891 H   0  0  0  0  0  0  0  0  0  0  0  0
    2.1436    0.9519    6.4101 H   0  0  0  0  0  0  0  0  0  0  0  0
    1.3183    2.2405    7.3029 H   0  0  0  0  0  0  0  0  0  0  0  0
   -0.2031    4.5229    5.3789 H   0  0  0  0  0  0  0  0  0  0  0  0
   -1.1811    3.7455    2.6224 H   0  0  0  0  0  0  0  0  0  0  0  0
  1  2  1  0
  1 24  1  0
  1 25  1  0
  1 26  1  0
  2 23  1  0
  2  3  2  3
  3  4  1  0
  3 27  1  0
  4 20  1  0
  4  5  1  0
  4 28  1  1
  5 14  2  0
  5  6  1  0
  6  7  2  0
  6 29  1  0
  7  8  1  0
  7 30  1  0
  8  9  2  0
  8 31  1  0
  9 14  1  0
  9 10  1  0
 10 11  2  0
 10 32  1  0
 11 12  1  0
 11 33  1  0
 12 13  2  0
 12 34  1  0
 13 14  1  0
 13 15  1  0
 16 15  1  6
 16 20  1  0
 16 17  1  0
 16 21  1  0
 17 18  1  0
 17 35  1  0
 17 36  1  0
 18 19  1  0
 18 37  1  0
 18 38  1  0
 19 20  1  0
 19 39  1  0
 19 40  1  0
 21 22  1  0
 22 23  2  3
 22 41  1  0
 23 42  1  0
M  END
>  <i_m_ct_stereo_status>  (235) 
1

>  <s_m_source_file>  (235) 
/var/tmp/pbs.5076255.sched01/tmppvoazpai/72cbyqjt17.sdf

>  <i_m_source_file_index>  (235) 
33

>  <i_lp_mmshare_version>  (235) 
48012

>  <i_f3d_flags>  (235) 
0

>  <s_epik_input>  (235) 
TzEvW0NIXT1bQ0hdXEMoXFtDSDNdKT1bQ0hdL1tDQEhdKE4oW0NAXTEyMylbQ0gyXVtDSDJdW0NIMl0zKWM0YzVjKFtjSF1bY0hdW2NIXTQpW2NIXVtjSF1bY0hdYzVPMg==

>  <s_epik_cmdline>  (235) 
J2VwaWtfcHl0aG9uJywgJy1waHQnLCAnMi4wJywgJy1waCcsICc3LjAnLCAnLXRuJywgJzgnLCAnLW1hJywgJzIwMCcsICctaW1hZScsICc8aW5maWxlLm1hZT4nLCAnLW9tYWUnLCAnPG91dGZpbGUubWFlPic=

>  <r_epik_Ionization_Penalty>  (235) 
0.000674349

>  <r_epik_Ionization_Penalty_Charging>  (235) 
0

>  <r_epik_Ionization_Penalty_Neutral>  (235) 
0.000674349

>  <r_epik_State_Penalty>  (235) 
0.000428076

>  <r_epik_Charging_Adjusted_Penalty>  (235) 
0.000428076

>  <i_epik_Tot_Q>  (235) 
0

>  <i_epik_Tot_abs_Q>  (235) 
0

>  <s_lp_Force_Field>  (235) 
OPLS3e

>  <r_lp_Energy>  (235) 
116.122

>  <b_lp_Chiralities_Consistent>  (235) 
1

>  <s_lp_Variant>  (235) 
84:0-4

>  <s_i_glide_gridfile>  (235) 
pfpi4k_grid

>  <i_i_glide_lignum>  (235) 
33

>  <i_i_glide_rotatable_bonds>  (235) 
0

>  <r_i_docking_score>  (235) 
-2.30773

>  <r_i_glide_ligand_efficiency>  (235) 
-0.100336

>  <r_i_glide_ligand_efficiency_sa>  (235) 
-0.285342

>  <r_i_glide_ligand_efficiency_ln>  (235) 
-0.55803

>  <r_i_glide_gscore>  (235) 
-2.30773

>  <r_i_glide_lipo>  (235) 
-0.0864373

>  <r_i_glide_hbond>  (235) 
0

>  <r_i_glide_metal>  (235) 
-0

>  <r_i_glide_rewards>  (235) 
-1.32702

>  <r_i_glide_evdw>  (235) 
-22.5801

>  <r_i_glide_ecoul>  (235) 
1.71459

>  <r_i_glide_erotb>  (235) 
0

>  <r_i_glide_esite>  (235) 
-0.0224542

>  <r_i_glide_emodel>  (235) 
-24.0118

>  <r_i_glide_energy>  (235) 
-20.8655

>  <r_i_glide_einternal>  (235) 
0

>  <r_i_glide_intrahb_reward>  (235) 
-0

>  <i_i_glide_confnum>  (235) 
1

>  <i_i_glide_posenum>  (235) 
11

>  <r_i_glide_eff_state_penalty>  (235) 
0

>  <ligand_id>  (235) 
84

>  <original_smiles>  (235) 
CC1=CC2c3cccc4cccc(c34)OC3(CCCN23)OC=C1

>  <smiles>  (235) 
[H]C1=C([H])C(C([H])([H])[H])=C([H])C2([H])c3c([H])c([H])c([H])c4c([H])c([H])c([H])c(c34)OC3(O1)N2C([H])([H])C([H])([H])C3([H])[H]

$$$$
85:0:0
     RDKit          3D

 29 31  0  0  1  0  0  0  0  0999 V2000
    2.8301    0.6858   -4.7281 O   0  0  0  0  0  0  0  0  0  0  0  0
    3.8103    0.1691   -3.8544 C   0  0  0  0  0  0  0  0  0  0  0  0
    3.2151   -0.9185   -2.9394 C   0  0  2  0  0  0  0  0  0  0  0  0
    4.0798   -1.0975   -1.8021 O   0  0  0  0  0  0  0  0  0  0  0  0
    4.7546   -2.3290   -1.8451 C   0  0  1  0  0  0  0  0  0  0  0  0
    4.1950   -3.2499   -0.7887 N   0  0  0  0  0  0  0  0  0  0  0  0
    2.8669   -3.2832   -0.4773 N   0  0  0  0  0  0  0  0  0  0  0  0
    2.6510   -4.2385    0.3832 N   0  0  0  0  0  0  0  0  0  0  0  0
    3.8709   -4.7988    0.7101 C   0  0  0  0  0  0  0  0  0  0  0  0
    4.2827   -5.8080    1.6057 C   0  0  0  0  0  0  0  0  0  0  0  0
    5.6026   -6.0989    1.6842 N   0  0  0  0  0  0  0  0  0  0  0  0
    6.4682   -5.4332    0.9120 C   0  0  0  0  0  0  0  0  0  0  0  0
    6.2210   -4.4481    0.0396 N   0  0  0  0  0  0  0  0  0  0  0  0
    4.8927   -4.1662   -0.0314 C   0  0  0  0  0  0  0  0  0  0  0  0
    4.5392   -2.8552   -3.2686 C   0  0  1  0  0  0  0  0  0  0  0  0
    4.6180   -4.2473   -3.4477 O   0  0  0  0  0  0  0  0  0  0  0  0
    3.1949   -2.2698   -3.6597 C   0  0  1  0  0  0  0  0  0  0  0  0
    2.0995   -3.0231   -3.2077 O   0  0  0  0  0  0  0  0  0  0  0  0
    2.2561    1.2257   -4.1936 H   0  0  0  0  0  0  0  0  0  0  0  0
    4.6126   -0.2134   -4.4655 H   0  0  0  0  0  0  0  0  0  0  0  0
    4.2011    0.9984   -3.2672 H   0  0  0  0  0  0  0  0  0  0  0  0
    2.2278   -0.6033   -2.5983 H   0  0  0  0  0  0  0  0  0  0  0  0
    5.8022   -2.2160   -1.5597 H   0  0  0  0  0  0  0  0  0  0  0  0
    3.5846   -6.3218    2.2525 H   0  0  0  0  0  0  0  0  0  0  0  0
    7.4990   -5.7352    1.0250 H   0  0  0  0  0  0  0  0  0  0  0  0
    5.3086   -2.4038   -3.8865 H   0  0  0  0  0  0  0  0  0  0  0  0
    3.8827   -4.6609   -2.9984 H   0  0  0  0  0  0  0  0  0  0  0  0
    3.0712   -2.1769   -4.7323 H   0  0  0  0  0  0  0  0  0  0  0  0
    2.0458   -2.9082   -2.2671 H   0  0  0  0  0  0  0  0  0  0  0  0
  1  2  1  0
  1 19  1  0
  2  3  1  0
  2 20  1  0
  2 21  1  0
  3 17  1  0
  3  4  1  0
  3 22  1  1
  4  5  1  0
  5  6  1  0
  5 15  1  0
  5 23  1  1
  6 14  1  0
  6  7  1  0
  7  8  2  0
  8  9  1  0
  9 14  2  0
  9 10  1  0
 10 11  2  0
 10 24  1  0
 11 12  1  0
 12 13  2  0
 12 25  1  0
 13 14  1  0
 15 16  1  0
 15 17  1  0
 15 26  1  6
 16 27  1  0
 17 18  1  0
 17 28  1  6
 18 29  1  0
M  END
>  <i_m_ct_stereo_status>  (236) 
1

>  <s_m_source_file>  (236) 
/var/tmp/pbs.5076255.sched01/tmppvoazpai/72cbyqjt17.sdf

>  <i_m_source_file_index>  (236) 
34

>  <i_lp_mmshare_version>  (236) 
48012

>  <i_f3d_flags>  (236) 
0

>  <s_epik_input>  (236) 
W09IXVtDSDJdW0NAQEhdMU9bQ0BIXShbQ0BASF0oW09IXSlbQ0BIXTFbT0hdKW4obm4yKWMoYzIzKW5bY0hdbltjSF0z

>  <s_epik_cmdline>  (236) 
J2VwaWtfcHl0aG9uJywgJy1waHQnLCAnMi4wJywgJy1waCcsICc3LjAnLCAnLXRuJywgJzgnLCAnLW1hJywgJzIwMCcsICctaW1hZScsICc8aW5maWxlLm1hZT4nLCAnLW9tYWUnLCAnPG91dGZpbGUubWFlPic=

>  <r_lp_tautomer_probability>  (236) 
1

>  <r_epik_Ionization_Penalty>  (236) 
4.84938e-05

>  <r_epik_Ionization_Penalty_Charging>  (236) 
0

>  <r_epik_Ionization_Penalty_Neutral>  (236) 
4.84938e-05

>  <r_epik_State_Penalty>  (236) 
-0

>  <r_epik_Charging_Adjusted_Penalty>  (236) 
0

>  <i_epik_Tot_Q>  (236) 
0

>  <i_epik_Tot_abs_Q>  (236) 
0

>  <s_epik_Chemistry_Notes>  (236) 
This compound contains an acetal/aminal-like group ( X-CH(R)-Y where X, Y are N, S, or O) that may be acid/base labile, releasing an aldehyde.

>  <s_lp_Force_Field>  (236) 
OPLS3e

>  <r_lp_Energy>  (236) 
14.0303

>  <b_lp_Chiralities_Consistent>  (236) 
1

>  <s_lp_Variant>  (236) 
85:0-1

>  <s_i_glide_gridfile>  (236) 
pfpi4k_grid

>  <i_i_glide_lignum>  (236) 
34

>  <i_i_glide_rotatable_bonds>  (236) 
5

>  <r_i_docking_score>  (236) 
-4.53782

>  <r_i_glide_ligand_efficiency>  (236) 
-0.252101

>  <r_i_glide_ligand_efficiency_sa>  (236) 
-0.660691

>  <r_i_glide_ligand_efficiency_ln>  (236) 
-1.16642

>  <r_i_glide_gscore>  (236) 
-4.53782

>  <r_i_glide_lipo>  (236) 
-0.464251

>  <r_i_glide_hbond>  (236) 
-0.283675

>  <r_i_glide_metal>  (236) 
-0

>  <r_i_glide_rewards>  (236) 
-2.40549

>  <r_i_glide_evdw>  (236) 
-22.7047

>  <r_i_glide_ecoul>  (236) 
-4.98533

>  <r_i_glide_erotb>  (236) 
0.547858

>  <r_i_glide_esite>  (236) 
-0.0492242

>  <r_i_glide_emodel>  (236) 
-40.5741

>  <r_i_glide_energy>  (236) 
-27.6901

>  <r_i_glide_einternal>  (236) 
3.655

>  <r_i_glide_intrahb_reward>  (236) 
-0.5

>  <i_i_glide_confnum>  (236) 
4

>  <i_i_glide_posenum>  (236) 
5

>  <r_i_glide_eff_state_penalty>  (236) 
0

>  <ligand_id>  (236) 
85

>  <original_smiles>  (236) 
OCC1OC(n2nnc3cncnc32)C(O)C1O

>  <smiles>  (236) 
[H]OC([H])([H])C1([H])OC([H])(n2nnc3c([H])nc([H])nc32)C([H])(O[H])C1([H])O[H]

$$$$
85:0:1
     RDKit          3D

 29 31  0  0  1  0  0  0  0  0999 V2000
    2.8034    0.6114   -4.7186 O   0  0  0  0  0  0  0  0  0  0  0  0
    3.7831    0.1375   -3.8262 C   0  0  0  0  0  0  0  0  0  0  0  0
    3.2164   -0.9706   -2.9222 C   0  0  2  0  0  0  0  0  0  0  0  0
    4.0845   -1.1373   -1.7832 O   0  0  0  0  0  0  0  0  0  0  0  0
    4.7625   -2.3656   -1.8335 C   0  0  1  0  0  0  0  0  0  0  0  0
    4.2124   -3.3031   -0.7865 N   0  0  0  0  0  0  0  0  0  0  0  0
    2.8767   -3.3741   -0.5005 N   0  0  0  0  0  0  0  0  0  0  0  0
    2.6774   -4.3372    0.3649 N   0  0  0  0  0  0  0  0  0  0  0  0
    3.9086   -4.8615    0.6988 C   0  0  0  0  0  0  0  0  0  0  0  0
    4.3327   -5.8679    1.5982 C   0  0  0  0  0  0  0  0  0  0  0  0
    5.6586   -6.1254    1.6887 N   0  0  0  0  0  0  0  0  0  0  0  0
    6.5174   -5.4353    0.9320 C   0  0  0  0  0  0  0  0  0  0  0  0
    6.2577   -4.4519    0.0613 N   0  0  0  0  0  0  0  0  0  0  0  0
    4.9172   -4.2034   -0.0226 C   0  0  0  0  0  0  0  0  0  0  0  0
    4.5623   -2.8705   -3.2698 C   0  0  1  0  0  0  0  0  0  0  0  0
    4.6262   -4.2545   -3.4848 O   0  0  0  0  0  0  0  0  0  0  0  0
    3.2167   -2.3060   -3.6712 C   0  0  1  0  0  0  0  0  0  0  0  0
    2.1189   -3.0993   -3.2824 O   0  0  0  0  0  0  0  0  0  0  0  0
    2.2302    1.1687   -4.2049 H   0  0  0  0  0  0  0  0  0  0  0  0
    4.6176   -0.2206   -4.4350 H   0  0  0  0  0  0  0  0  0  0  0  0
    4.1404    0.9757   -3.2333 H   0  0  0  0  0  0  0  0  0  0  0  0
    2.2294   -0.6804   -2.5774 H   0  0  0  0  0  0  0  0  0  0  0  0
    5.8078   -2.2279   -1.5358 H   0  0  0  0  0  0  0  0  0  0  0  0
    3.6393   -6.4019    2.2316 H   0  0  0  0  0  0  0  0  0  0  0  0
    7.5537   -5.7112    1.0548 H   0  0  0  0  0  0  0  0  0  0  0  0
    5.3391   -2.4006   -3.8670 H   0  0  0  0  0  0  0  0  0  0  0  0
    4.0195   -4.7168   -2.9129 H   0  0  0  0  0  0  0  0  0  0  0  0
    3.1271   -2.1976   -4.7472 H   0  0  0  0  0  0  0  0  0  0  0  0
    2.3147   -4.0153   -3.4230 H   0  0  0  0  0  0  0  0  0  0  0  0
  1  2  1  0
  1 19  1  0
  2  3  1  0
  2 20  1  0
  2 21  1  0
  3 17  1  0
  3  4  1  0
  3 22  1  1
  4  5  1  0
  5  6  1  0
  5 15  1  0
  5 23  1  1
  6 14  1  0
  6  7  1  0
  7  8  2  0
  8  9  1  0
  9 14  2  0
  9 10  1  0
 10 11  2  0
 10 24  1  0
 11 12  1  0
 12 13  2  0
 12 25  1  0
 13 14  1  0
 15 16  1  0
 15 17  1  0
 15 26  1  6
 16 27  1  0
 17 18  1  0
 17 28  1  6
 18 29  1  0
M  END
>  <i_m_ct_stereo_status>  (237) 
1

>  <s_m_source_file>  (237) 
/var/tmp/pbs.5076255.sched01/tmppvoazpai/72cbyqjt17.sdf

>  <i_m_source_file_index>  (237) 
34

>  <i_lp_mmshare_version>  (237) 
48012

>  <i_f3d_flags>  (237) 
0

>  <s_epik_input>  (237) 
W09IXVtDSDJdW0NAQEhdMU9bQ0BIXShbQ0BASF0oW09IXSlbQ0BIXTFbT0hdKW4obm4yKWMoYzIzKW5bY0hdbltjSF0z

>  <s_epik_cmdline>  (237) 
J2VwaWtfcHl0aG9uJywgJy1waHQnLCAnMi4wJywgJy1waCcsICc3LjAnLCAnLXRuJywgJzgnLCAnLW1hJywgJzIwMCcsICctaW1hZScsICc8aW5maWxlLm1hZT4nLCAnLW9tYWUnLCAnPG91dGZpbGUubWFlPic=

>  <r_lp_tautomer_probability>  (237) 
1

>  <r_epik_Ionization_Penalty>  (237) 
4.84938e-05

>  <r_epik_Ionization_Penalty_Charging>  (237) 
0

>  <r_epik_Ionization_Penalty_Neutral>  (237) 
4.84938e-05

>  <r_epik_State_Penalty>  (237) 
-0

>  <r_epik_Charging_Adjusted_Penalty>  (237) 
0

>  <i_epik_Tot_Q>  (237) 
0

>  <i_epik_Tot_abs_Q>  (237) 
0

>  <s_epik_Chemistry_Notes>  (237) 
This compound contains an acetal/aminal-like group ( X-CH(R)-Y where X, Y are N, S, or O) that may be acid/base labile, releasing an aldehyde.

>  <s_lp_Force_Field>  (237) 
OPLS3e

>  <r_lp_Energy>  (237) 
14.0303

>  <b_lp_Chiralities_Consistent>  (237) 
1

>  <s_lp_Variant>  (237) 
85:0-1

>  <s_i_glide_gridfile>  (237) 
pfpi4k_grid

>  <i_i_glide_lignum>  (237) 
34

>  <i_i_glide_rotatable_bonds>  (237) 
5

>  <r_i_docking_score>  (237) 
-4.27131

>  <r_i_glide_ligand_efficiency>  (237) 
-0.237295

>  <r_i_glide_ligand_efficiency_sa>  (237) 
-0.621888

>  <r_i_glide_ligand_efficiency_ln>  (237) 
-1.09792

>  <r_i_glide_gscore>  (237) 
-4.27131

>  <r_i_glide_lipo>  (237) 
-0.471153

>  <r_i_glide_hbond>  (237) 
-0.273214

>  <r_i_glide_metal>  (237) 
-0

>  <r_i_glide_rewards>  (237) 
-1.91521

>  <r_i_glide_evdw>  (237) 
-23.1064

>  <r_i_glide_ecoul>  (237) 
-6.41333

>  <r_i_glide_erotb>  (237) 
0.547858

>  <r_i_glide_esite>  (237) 
-0.0422646

>  <r_i_glide_emodel>  (237) 
-36.7461

>  <r_i_glide_energy>  (237) 
-29.5198

>  <r_i_glide_einternal>  (237) 
3.69465

>  <r_i_glide_intrahb_reward>  (237) 
-0

>  <i_i_glide_confnum>  (237) 
4

>  <i_i_glide_posenum>  (237) 
31

>  <r_i_glide_eff_state_penalty>  (237) 
0

>  <ligand_id>  (237) 
85

>  <original_smiles>  (237) 
OCC1OC(n2nnc3cncnc32)C(O)C1O

>  <smiles>  (237) 
[H]OC([H])([H])C1([H])OC([H])(n2nnc3c([H])nc([H])nc32)C([H])(O[H])C1([H])O[H]

$$$$
85:0:2
     RDKit          3D

 29 31  0  0  1  0  0  0  0  0999 V2000
    2.8201    0.6518   -4.7209 O   0  0  0  0  0  0  0  0  0  0  0  0
    3.8103    0.1466   -3.8534 C   0  0  0  0  0  0  0  0  0  0  0  0
    3.2185   -0.9514   -2.9399 C   0  0  2  0  0  0  0  0  0  0  0  0
    4.0868   -1.1203   -1.7987 O   0  0  0  0  0  0  0  0  0  0  0  0
    4.7590   -2.3482   -1.8445 C   0  0  1  0  0  0  0  0  0  0  0  0
    4.1955   -3.2788   -0.7908 N   0  0  0  0  0  0  0  0  0  0  0  0
    2.8618   -3.3331   -0.4934 N   0  0  0  0  0  0  0  0  0  0  0  0
    2.6510   -4.2890    0.3633 N   0  0  0  0  0  0  0  0  0  0  0  0
    3.8768   -4.8339    0.6970 C   0  0  0  0  0  0  0  0  0  0  0  0
    4.2891   -5.8382    1.5976 C   0  0  0  0  0  0  0  0  0  0  0  0
    5.6121   -6.1104    1.6910 N   0  0  0  0  0  0  0  0  0  0  0  0
    6.4797   -5.4334    0.9308 C   0  0  0  0  0  0  0  0  0  0  0  0
    6.2347   -4.4510    0.0556 N   0  0  0  0  0  0  0  0  0  0  0  0
    4.8990   -4.1880   -0.0307 C   0  0  0  0  0  0  0  0  0  0  0  0
    4.5639   -2.8654   -3.2812 C   0  0  1  0  0  0  0  0  0  0  0  0
    4.6228   -4.2507   -3.4722 O   0  0  0  0  0  0  0  0  0  0  0  0
    3.2186   -2.2936   -3.6869 C   0  0  1  0  0  0  0  0  0  0  0  0
    2.1346   -3.1072   -3.3136 O   0  0  0  0  0  0  0  0  0  0  0  0
    2.2560    1.2041   -4.1844 H   0  0  0  0  0  0  0  0  0  0  0  0
    4.6154   -0.2300   -4.4703 H   0  0  0  0  0  0  0  0  0  0  0  0
    4.1987    0.9742   -3.2619 H   0  0  0  0  0  0  0  0  0  0  0  0
    2.2293   -0.6432   -2.6009 H   0  0  0  0  0  0  0  0  0  0  0  0
    5.8041   -2.2293   -1.5464 H   0  0  0  0  0  0  0  0  0  0  0  0
    3.5915   -6.3624    2.2362 H   0  0  0  0  0  0  0  0  0  0  0  0
    7.5128   -5.7225    1.0586 H   0  0  0  0  0  0  0  0  0  0  0  0
    5.3412   -2.4020   -3.8813 H   0  0  0  0  0  0  0  0  0  0  0  0
    3.8940   -4.6423   -2.9962 H   0  0  0  0  0  0  0  0  0  0  0  0
    3.1204   -2.1700   -4.7599 H   0  0  0  0  0  0  0  0  0  0  0  0
    1.3714   -2.5658   -3.1603 H   0  0  0  0  0  0  0  0  0  0  0  0
  1  2  1  0
  1 19  1  0
  2  3  1  0
  2 20  1  0
  2 21  1  0
  3 17  1  0
  3  4  1  0
  3 22  1  1
  4  5  1  0
  5  6  1  0
  5 15  1  0
  5 23  1  1
  6 14  1  0
  6  7  1  0
  7  8  2  0
  8  9  1  0
  9 14  2  0
  9 10  1  0
 10 11  2  0
 10 24  1  0
 11 12  1  0
 12 13  2  0
 12 25  1  0
 13 14  1  0
 15 16  1  0
 15 17  1  0
 15 26  1  6
 16 27  1  0
 17 18  1  0
 17 28  1  6
 18 29  1  0
M  END
>  <i_m_ct_stereo_status>  (238) 
1

>  <s_m_source_file>  (238) 
/var/tmp/pbs.5076255.sched01/tmppvoazpai/72cbyqjt17.sdf

>  <i_m_source_file_index>  (238) 
34

>  <i_lp_mmshare_version>  (238) 
48012

>  <i_f3d_flags>  (238) 
0

>  <s_epik_input>  (238) 
W09IXVtDSDJdW0NAQEhdMU9bQ0BIXShbQ0BASF0oW09IXSlbQ0BIXTFbT0hdKW4obm4yKWMoYzIzKW5bY0hdbltjSF0z

>  <s_epik_cmdline>  (238) 
J2VwaWtfcHl0aG9uJywgJy1waHQnLCAnMi4wJywgJy1waCcsICc3LjAnLCAnLXRuJywgJzgnLCAnLW1hJywgJzIwMCcsICctaW1hZScsICc8aW5maWxlLm1hZT4nLCAnLW9tYWUnLCAnPG91dGZpbGUubWFlPic=

>  <r_lp_tautomer_probability>  (238) 
1

>  <r_epik_Ionization_Penalty>  (238) 
4.84938e-05

>  <r_epik_Ionization_Penalty_Charging>  (238) 
0

>  <r_epik_Ionization_Penalty_Neutral>  (238) 
4.84938e-05

>  <r_epik_State_Penalty>  (238) 
-0

>  <r_epik_Charging_Adjusted_Penalty>  (238) 
0

>  <i_epik_Tot_Q>  (238) 
0

>  <i_epik_Tot_abs_Q>  (238) 
0

>  <s_epik_Chemistry_Notes>  (238) 
This compound contains an acetal/aminal-like group ( X-CH(R)-Y where X, Y are N, S, or O) that may be acid/base labile, releasing an aldehyde.

>  <s_lp_Force_Field>  (238) 
OPLS3e

>  <r_lp_Energy>  (238) 
14.0303

>  <b_lp_Chiralities_Consistent>  (238) 
1

>  <s_lp_Variant>  (238) 
85:0-1

>  <s_i_glide_gridfile>  (238) 
pfpi4k_grid

>  <i_i_glide_lignum>  (238) 
34

>  <i_i_glide_rotatable_bonds>  (238) 
5

>  <r_i_docking_score>  (238) 
-3.94795

>  <r_i_glide_ligand_efficiency>  (238) 
-0.21933

>  <r_i_glide_ligand_efficiency_sa>  (238) 
-0.574808

>  <r_i_glide_ligand_efficiency_ln>  (238) 
-1.0148

>  <r_i_glide_gscore>  (238) 
-3.94795

>  <r_i_glide_lipo>  (238) 
-0.462983

>  <r_i_glide_hbond>  (238) 
-0.28907

>  <r_i_glide_metal>  (238) 
-0

>  <r_i_glide_rewards>  (238) 
-1.90916

>  <r_i_glide_evdw>  (238) 
-22.9151

>  <r_i_glide_ecoul>  (238) 
-4.28976

>  <r_i_glide_erotb>  (238) 
0.547858

>  <r_i_glide_esite>  (238) 
-0.0453689

>  <r_i_glide_emodel>  (238) 
-33.6526

>  <r_i_glide_energy>  (238) 
-27.2049

>  <r_i_glide_einternal>  (238) 
3.73712

>  <r_i_glide_intrahb_reward>  (238) 
-0

>  <i_i_glide_confnum>  (238) 
4

>  <i_i_glide_posenum>  (238) 
27

>  <r_i_glide_eff_state_penalty>  (238) 
0

>  <ligand_id>  (238) 
85

>  <original_smiles>  (238) 
OCC1OC(n2nnc3cncnc32)C(O)C1O

>  <smiles>  (238) 
[H]OC([H])([H])C1([H])OC([H])(n2nnc3c([H])nc([H])nc32)C([H])(O[H])C1([H])O[H]

$$$$
86:0:0
     RDKit          3D

 88 93  0  0  1  0  0  0  0  0999 V2000
    4.5362   -7.9833    6.9017 C   0  0  0  0  0  0  0  0  0  0  0  0
    4.4822   -8.7169    5.5499 C   0  0  2  0  0  0  0  0  0  0  0  0
    5.3577   -8.0179    4.5037 C   0  0  0  0  0  0  0  0  0  0  0  0
    5.1919   -8.6090    3.0842 C   0  0  0  0  0  0  0  0  0  0  0  0
    3.7036   -8.7031    2.6588 C   0  0  1  0  0  0  0  0  0  0  0  0
    2.9918   -9.7031    3.6747 C   0  0  2  0  0  0  0  0  0  0  0  0
    3.7260  -11.0860    3.7288 C   0  0  0  0  0  0  0  0  0  0  0  0
    1.5154  -10.1437    3.3662 C   0  0  0  0  0  0  0  0  0  0  0  0
    0.3419   -9.2176    3.7558 C   0  0  0  0  0  0  0  0  0  0  0  0
    0.5917   -8.2367    4.9244 C   0  0  0  0  0  0  0  0  0  0  0  0
   -0.4051   -7.0604    4.7692 C   0  0  0  0  0  0  0  0  0  0  0  0
    0.2177   -8.9169    6.2718 C   0  0  0  0  0  0  0  0  0  0  0  0
    2.0847   -7.7631    4.9422 C   0  0  2  0  0  0  0  0  0  0  0  0
    2.4337   -6.7659    3.7993 C   0  0  0  0  0  0  0  0  0  0  0  0
    2.1869   -5.4587    3.9865 C   0  0  0  0  0  0  0  0  0  0  0  0
    2.3872   -4.3529    2.9712 C   0  0  0  0  0  0  0  0  0  0  0  0
    3.0259   -4.7539    1.5987 C   0  0  1  0  0  0  0  0  0  0  0  0
    3.6580   -3.4990    0.8000 C   0  0  1  0  0  0  0  0  0  0  0  0
    2.8200   -3.3759   -0.4984 C   0  0  0  0  0  0  0  0  0  0  0  0
    3.5412   -2.1451    1.5750 C   0  0  0  0  0  0  0  0  0  0  0  0
    4.1718   -0.9236    0.8899 C   0  0  0  0  0  0  0  0  0  0  0  0
    5.6671   -1.1352    0.6377 C   0  0  1  0  0  0  0  0  0  0  0  0
    6.3211   -1.0576    1.8876 O   0  0  0  0  0  0  0  0  0  0  0  0
    5.9751   -2.4563   -0.1324 C   0  0  0  0  0  0  0  0  0  0  0  0
    5.6261   -2.2303   -1.6293 C   0  0  0  0  0  0  0  0  0  0  0  0
    7.5110   -2.7160   -0.1379 C   0  0  0  0  0  0  0  0  0  0  0  0
    5.1818   -3.6999    0.4577 C   0  0  1  0  0  0  0  0  0  0  0  0
    5.9258   -4.4007    1.6242 C   0  0  0  0  0  0  0  0  0  0  0  0
    5.1476   -5.4555    2.4484 C   0  0  0  0  0  0  0  0  0  0  0  0
    3.8971   -6.0753    1.7332 C   0  0  2  0  0  0  0  0  0  0  0  0
    4.3665   -6.6547    0.3656 C   0  0  0  0  0  0  0  0  0  0  0  0
    3.0154   -7.2585    2.4559 C   0  0  1  0  0  0  0  0  0  0  0  0
    1.7879   -7.4745    1.5046 C   0  0  0  0  0  0  0  0  0  0  0  0
    3.0356   -8.9922    5.0395 C   0  0  2  0  0  0  0  0  0  0  0  0
    4.2173   -6.9444    6.8123 H   0  0  0  0  0  0  0  0  0  0  0  0
    5.5540   -7.9745    7.2939 H   0  0  0  0  0  0  0  0  0  0  0  0
    3.9022   -8.4716    7.6420 H   0  0  0  0  0  0  0  0  0  0  0  0
    4.9457   -9.6836    5.7481 H   0  0  0  0  0  0  0  0  0  0  0  0
    5.0891   -6.9660    4.5374 H   0  0  0  0  0  0  0  0  0  0  0  0
    6.4062   -8.0689    4.8001 H   0  0  0  0  0  0  0  0  0  0  0  0
    5.7746   -8.1042    2.3246 H   0  0  0  0  0  0  0  0  0  0  0  0
    5.6750   -9.5780    3.0521 H   0  0  0  0  0  0  0  0  0  0  0  0
    3.7099   -9.2146    1.6975 H   0  0  0  0  0  0  0  0  0  0  0  0
    3.2271  -11.7878    4.4013 H   0  0  0  0  0  0  0  0  0  0  0  0
    4.7482  -11.0636    4.1006 H   0  0  0  0  0  0  0  0  0  0  0  0
    3.7515  -11.5502    2.7392 H   0  0  0  0  0  0  0  0  0  0  0  0
    1.4301  -10.4296    2.3222 H   0  0  0  0  0  0  0  0  0  0  0  0
    1.2920  -11.0756    3.8886 H   0  0  0  0  0  0  0  0  0  0  0  0
   -0.0328   -8.6982    2.8789 H   0  0  0  0  0  0  0  0  0  0  0  0
   -0.5076   -9.8501    4.0171 H   0  0  0  0  0  0  0  0  0  0  0  0
   -0.2609   -6.3078    5.5468 H   0  0  0  0  0  0  0  0  0  0  0  0
   -1.4404   -7.4089    4.8313 H   0  0  0  0  0  0  0  0  0  0  0  0
   -0.3051   -6.5717    3.7997 H   0  0  0  0  0  0  0  0  0  0  0  0
    0.5241   -8.3062    7.1211 H   0  0  0  0  0  0  0  0  0  0  0  0
    0.6574   -9.9062    6.4038 H   0  0  0  0  0  0  0  0  0  0  0  0
   -0.8598   -9.0635    6.3665 H   0  0  0  0  0  0  0  0  0  0  0  0
    2.1892   -7.1962    5.8617 H   0  0  0  0  0  0  0  0  0  0  0  0
    1.7625   -5.1366    4.9236 H   0  0  0  0  0  0  0  0  0  0  0  0
    1.4235   -3.8719    2.8061 H   0  0  0  0  0  0  0  0  0  0  0  0
    2.9942   -3.6586    3.5403 H   0  0  0  0  0  0  0  0  0  0  0  0
    2.1583   -5.0452    1.0182 H   0  0  0  0  0  0  0  0  0  0  0  0
    3.0090   -2.4816   -1.0740 H   0  0  0  0  0  0  0  0  0  0  0  0
    1.7654   -3.3102   -0.2622 H   0  0  0  0  0  0  0  0  0  0  0  0
    2.9548   -4.2267   -1.1611 H   0  0  0  0  0  0  0  0  0  0  0  0
    2.4971   -1.9188    1.7888 H   0  0  0  0  0  0  0  0  0  0  0  0
    4.0512   -2.2270    2.5343 H   0  0  0  0  0  0  0  0  0  0  0  0
    3.6554   -0.6868   -0.0338 H   0  0  0  0  0  0  0  0  0  0  0  0
    4.0378   -0.0445    1.5169 H   0  0  0  0  0  0  0  0  0  0  0  0
    6.0443   -0.2927    0.0581 H   0  0  0  0  0  0  0  0  0  0  0  0
    6.8824   -0.2860    1.8962 H   0  0  0  0  0  0  0  0  0  0  0  0
    5.4841   -3.1662   -2.1726 H   0  0  0  0  0  0  0  0  0  0  0  0
    6.4197   -1.6918   -2.1421 H   0  0  0  0  0  0  0  0  0  0  0  0
    4.7411   -1.6150   -1.7729 H   0  0  0  0  0  0  0  0  0  0  0  0
    7.7600   -3.6123   -0.7110 H   0  0  0  0  0  0  0  0  0  0  0  0
    7.9217   -2.8407    0.8648 H   0  0  0  0  0  0  0  0  0  0  0  0
    8.0602   -1.8846   -0.5812 H   0  0  0  0  0  0  0  0  0  0  0  0
    5.2190   -4.4136   -0.3589 H   0  0  0  0  0  0  0  0  0  0  0  0
    6.7871   -4.9114    1.1886 H   0  0  0  0  0  0  0  0  0  0  0  0
    6.3296   -3.6614    2.3133 H   0  0  0  0  0  0  0  0  0  0  0  0
    5.9138   -6.1571    2.7322 H   0  0  0  0  0  0  0  0  0  0  0  0
    4.8506   -4.9888    3.3852 H   0  0  0  0  0  0  0  0  0  0  0  0
    4.1705   -7.7175    0.2368 H   0  0  0  0  0  0  0  0  0  0  0  0
    5.4386   -6.5626    0.2083 H   0  0  0  0  0  0  0  0  0  0  0  0
    3.8619   -6.1655   -0.4625 H   0  0  0  0  0  0  0  0  0  0  0  0
    1.9038   -7.0791    0.4976 H   0  0  0  0  0  0  0  0  0  0  0  0
    0.8930   -6.9865    1.8770 H   0  0  0  0  0  0  0  0  0  0  0  0
    1.5545   -8.5160    1.3375 H   0  0  0  0  0  0  0  0  0  0  0  0
    2.6442   -9.6911    5.7741 H   0  0  0  0  0  0  0  0  0  0  0  0
  1  2  1  0
  1 35  1  0
  1 36  1  0
  1 37  1  0
  2 34  1  0
  2  3  1  0
  2 38  1  1
  3  4  1  0
  3 39  1  0
  3 40  1  0
  4  5  1  0
  4 41  1  0
  4 42  1  0
  5 32  1  0
  5  6  1  0
  5 43  1  6
  6 34  1  0
  6  7  1  1
  6  8  1  0
  7 44  1  0
  7 45  1  0
  7 46  1  0
  8  9  1  0
  8 47  1  0
  8 48  1  0
  9 10  1  0
  9 49  1  0
  9 50  1  0
 10 11  1  0
 10 12  1  0
 10 13  1  0
 11 51  1  0
 11 52  1  0
 11 53  1  0
 12 54  1  0
 12 55  1  0
 12 56  1  0
 13 14  1  0
 13 34  1  0
 13 57  1  1
 14 32  1  0
 14 15  2  0
 15 16  1  0
 15 58  1  0
 16 17  1  0
 16 59  1  0
 16 60  1  0
 17 30  1  0
 17 18  1  0
 17 61  1  6
 18 27  1  0
 18 19  1  6
 18 20  1  0
 19 62  1  0
 19 63  1  0
 19 64  1  0
 20 21  1  0
 20 65  1  0
 20 66  1  0
 21 22  1  0
 21 67  1  0
 21 68  1  0
 22 23  1  0
 22 24  1  0
 22 69  1  6
 23 70  1  0
 24 25  1  0
 24 26  1  0
 24 27  1  0
 25 71  1  0
 25 72  1  0
 25 73  1  0
 26 74  1  0
 26 75  1  0
 26 76  1  0
 27 28  1  0
 27 77  1  6
 28 29  1  0
 28 78  1  0
 28 79  1  0
 29 30  1  0
 29 80  1  0
 29 81  1  0
 30 31  1  6
 30 32  1  0
 31 82  1  0
 31 83  1  0
 31 84  1  0
 32 33  1  6
 33 85  1  0
 33 86  1  0
 33 87  1  0
 34 88  1  1
M  END
>  <i_m_ct_stereo_status>  (239) 
1

>  <s_m_source_file>  (239) 
/var/tmp/pbs.5076255.sched01/tmppvoazpai/72cbyqjt17.sdf

>  <i_m_source_file_index>  (239) 
35

>  <i_lp_mmshare_version>  (239) 
48012

>  <i_f3d_flags>  (239) 
0

>  <s_epik_input>  (239) 
W0NIMl0xW0NIMl1bQ0BASF0oW0NIM10pW0NASF0yW0NASF0oQyhbQ0gzXSkoW0NIM10pW0NIMl1bQ0gyXTMpQyhbQ0BdNChbQ0gzXSlbQ0BASF0xW0NAQF0yM1tDSDNdKT1bQ0hdW0NIMl1bQ0BIXTVbQ0BdNihbQ0gzXSlbQ0BASF0oQyhbQ0gzXSkoW0NIM10pW0NASF0oW09IXSlbQ0gyXVtDSDJdNilbQ0gyXVtDSDJdW0NAQF00NVtDSDNd

>  <s_epik_cmdline>  (239) 
J2VwaWtfcHl0aG9uJywgJy1waHQnLCAnMi4wJywgJy1waCcsICc3LjAnLCAnLXRuJywgJzgnLCAnLW1hJywgJzIwMCcsICctaW1hZScsICc8aW5maWxlLm1hZT4nLCAnLW9tYWUnLCAnPG91dGZpbGUubWFlPic=

>  <r_lp_tautomer_probability>  (239) 
1

>  <r_epik_Ionization_Penalty>  (239) 
2.96894e-06

>  <r_epik_Ionization_Penalty_Charging>  (239) 
0

>  <r_epik_Ionization_Penalty_Neutral>  (239) 
2.96894e-06

>  <r_epik_State_Penalty>  (239) 
-0

>  <r_epik_Charging_Adjusted_Penalty>  (239) 
0

>  <i_epik_Tot_Q>  (239) 
0

>  <i_epik_Tot_abs_Q>  (239) 
0

>  <s_lp_Force_Field>  (239) 
OPLS3e

>  <r_lp_Energy>  (239) 
145.228

>  <b_lp_Chiralities_Consistent>  (239) 
1

>  <s_lp_Variant>  (239) 
86:0-1

>  <s_i_glide_gridfile>  (239) 
pfpi4k_grid

>  <i_i_glide_lignum>  (239) 
35

>  <i_i_glide_rotatable_bonds>  (239) 
1

>  <r_i_docking_score>  (239) 
-3.23311

>  <r_i_glide_ligand_efficiency>  (239) 
-0.0950914

>  <r_i_glide_ligand_efficiency_sa>  (239) 
-0.308059

>  <r_i_glide_ligand_efficiency_ln>  (239) 
-0.714284

>  <r_i_glide_gscore>  (239) 
-3.23311

>  <r_i_glide_lipo>  (239) 
-0.563896

>  <r_i_glide_hbond>  (239) 
-0.32

>  <r_i_glide_metal>  (239) 
-0

>  <r_i_glide_rewards>  (239) 
-0.226491

>  <r_i_glide_evdw>  (239) 
-34.2521

>  <r_i_glide_ecoul>  (239) 
-2.7341

>  <r_i_glide_erotb>  (239) 
0

>  <r_i_glide_esite>  (239) 
0

>  <r_i_glide_emodel>  (239) 
-42.9738

>  <r_i_glide_energy>  (239) 
-36.9862

>  <r_i_glide_einternal>  (239) 
1.41103

>  <r_i_glide_intrahb_reward>  (239) 
-0

>  <i_i_glide_confnum>  (239) 
1

>  <i_i_glide_posenum>  (239) 
4

>  <r_i_glide_eff_state_penalty>  (239) 
0

>  <ligand_id>  (239) 
86

>  <original_smiles>  (239) 
CC1CCC2C3(C)CCC(C)(C)C(C4=CCC5C6(C)CCC(O)C(C)(C)C6CCC5(C)C42C)C13

>  <smiles>  (239) 
[H]OC1([H])C([H])([H])C([H])([H])C2(C([H])([H])[H])C([H])(C([H])([H])C([H])([H])C3(C([H])([H])[H])C2([H])C([H])([H])C([H])=C2C4([H])C5([H])C([H])(C([H])([H])[H])C([H])([H])C([H])([H])C([H])(C23C([H])([H])[H])C5(C([H])([H])[H])C([H])([H])C([H])([H])C4(C([H])([H])[H])C([H])([H])[H])C1(C([H])([H])[H])C([H])([H])[H]

$$$$
86:0:1
     RDKit          3D

 88 93  0  0  1  0  0  0  0  0999 V2000
    0.6841   -6.3548    7.0191 C   0  0  0  0  0  0  0  0  0  0  0  0
    2.1646   -6.7720    6.9524 C   0  0  2  0  0  0  0  0  0  0  0  0
    3.0355   -5.6300    6.4168 C   0  0  0  0  0  0  0  0  0  0  0  0
    4.4983   -6.0580    6.1593 C   0  0  0  0  0  0  0  0  0  0  0  0
    4.5909   -7.3409    5.2957 C   0  0  1  0  0  0  0  0  0  0  0  0
    3.8911   -8.5100    6.1225 C   0  0  2  0  0  0  0  0  0  0  0  0
    4.5223   -8.6589    7.5485 C   0  0  0  0  0  0  0  0  0  0  0  0
    4.0048   -9.9805    5.5782 C   0  0  0  0  0  0  0  0  0  0  0  0
    3.0595  -10.4541    4.4520 C   0  0  0  0  0  0  0  0  0  0  0  0
    1.6978   -9.7323    4.3522 C   0  0  0  0  0  0  0  0  0  0  0  0
    1.1711   -9.9192    2.9069 C   0  0  0  0  0  0  0  0  0  0  0  0
    0.6455  -10.4375    5.2494 C   0  0  0  0  0  0  0  0  0  0  0  0
    1.8341   -8.2296    4.7619 C   0  0  2  0  0  0  0  0  0  0  0  0
    2.5659   -7.3702    3.7023 C   0  0  0  0  0  0  0  0  0  0  0  0
    1.8477   -6.8588    2.6823 C   0  0  0  0  0  0  0  0  0  0  0  0
    2.3923   -6.0590    1.5220 C   0  0  0  0  0  0  0  0  0  0  0  0
    3.9178   -5.7166    1.5453 C   0  0  1  0  0  0  0  0  0  0  0  0
    4.2957   -4.4719    0.5911 C   0  0  1  0  0  0  0  0  0  0  0  0
    5.2159   -5.0731   -0.4903 C   0  0  0  0  0  0  0  0  0  0  0  0
    3.0703   -3.8442   -0.1455 C   0  0  0  0  0  0  0  0  0  0  0  0
    3.3886   -2.6361   -1.0408 C   0  0  0  0  0  0  0  0  0  0  0  0
    4.0085   -1.4955   -0.2346 C   0  0  1  0  0  0  0  0  0  0  0  0
    3.0197   -0.9437    0.6008 O   0  0  0  0  0  0  0  0  0  0  0  0
    5.2578   -1.9540    0.5712 C   0  0  0  0  0  0  0  0  0  0  0  0
    6.4420   -2.0827   -0.4196 C   0  0  0  0  0  0  0  0  0  0  0  0
    5.7035   -0.8134    1.5282 C   0  0  0  0  0  0  0  0  0  0  0  0
    5.0215   -3.3094    1.3536 C   0  0  1  0  0  0  0  0  0  0  0  0
    4.3974   -3.0959    2.7543 C   0  0  0  0  0  0  0  0  0  0  0  0
    3.8925   -4.3509    3.5090 C   0  0  0  0  0  0  0  0  0  0  0  0
    4.4885   -5.7213    3.0262 C   0  0  2  0  0  0  0  0  0  0  0  0
    6.0450   -5.6211    3.0889 C   0  0  0  0  0  0  0  0  0  0  0  0
    4.0816   -7.1211    3.7845 C   0  0  1  0  0  0  0  0  0  0  0  0
    4.7640   -8.2445    2.9263 C   0  0  0  0  0  0  0  0  0  0  0  0
    2.4089   -8.1148    6.2031 C   0  0  2  0  0  0  0  0  0  0  0  0
    0.3037   -6.0474    6.0433 H   0  0  0  0  0  0  0  0  0  0  0  0
    0.5503   -5.5085    7.6964 H   0  0  0  0  0  0  0  0  0  0  0  0
    0.0591   -7.1713    7.3851 H   0  0  0  0  0  0  0  0  0  0  0  0
    2.4469   -6.9190    7.9946 H   0  0  0  0  0  0  0  0  0  0  0  0
    2.5521   -5.2763    5.5116 H   0  0  0  0  0  0  0  0  0  0  0  0
    3.0217   -4.7922    7.1139 H   0  0  0  0  0  0  0  0  0  0  0  0
    5.1253   -5.2757    5.7483 H   0  0  0  0  0  0  0  0  0  0  0  0
    4.9970   -6.1872    7.1125 H   0  0  0  0  0  0  0  0  0  0  0  0
    5.6518   -7.5922    5.2614 H   0  0  0  0  0  0  0  0  0  0  0  0
    4.0663   -9.4783    8.1093 H   0  0  0  0  0  0  0  0  0  0  0  0
    4.4034   -7.8023    8.2093 H   0  0  0  0  0  0  0  0  0  0  0  0
    5.5924   -8.8709    7.4792 H   0  0  0  0  0  0  0  0  0  0  0  0
    5.0322  -10.1841    5.2942 H   0  0  0  0  0  0  0  0  0  0  0  0
    3.8378  -10.6943    6.3909 H   0  0  0  0  0  0  0  0  0  0  0  0
    3.5681  -10.4730    3.4898 H   0  0  0  0  0  0  0  0  0  0  0  0
    2.8696  -11.5116    4.6292 H   0  0  0  0  0  0  0  0  0  0  0  0
    0.2189   -9.4046    2.7556 H   0  0  0  0  0  0  0  0  0  0  0  0
    1.0124  -10.9781    2.6744 H   0  0  0  0  0  0  0  0  0  0  0  0
    1.8808   -9.5490    2.1655 H   0  0  0  0  0  0  0  0  0  0  0  0
   -0.2517   -9.8326    5.3337 H   0  0  0  0  0  0  0  0  0  0  0  0
    1.0048  -10.6334    6.2585 H   0  0  0  0  0  0  0  0  0  0  0  0
    0.3526  -11.4138    4.8558 H   0  0  0  0  0  0  0  0  0  0  0  0
    0.8170   -7.8556    4.7885 H   0  0  0  0  0  0  0  0  0  0  0  0
    0.7916   -7.0655    2.6341 H   0  0  0  0  0  0  0  0  0  0  0  0
    2.1488   -6.5978    0.6032 H   0  0  0  0  0  0  0  0  0  0  0  0
    1.7567   -5.1800    1.5569 H   0  0  0  0  0  0  0  0  0  0  0  0
    4.3584   -6.5910    1.0766 H   0  0  0  0  0  0  0  0  0  0  0  0
    5.4400   -4.4113   -1.3155 H   0  0  0  0  0  0  0  0  0  0  0  0
    4.7445   -5.9365   -0.9624 H   0  0  0  0  0  0  0  0  0  0  0  0
    6.1685   -5.4063   -0.0781 H   0  0  0  0  0  0  0  0  0  0  0  0
    2.5622   -4.5987   -0.7424 H   0  0  0  0  0  0  0  0  0  0  0  0
    2.3550   -3.4776    0.5862 H   0  0  0  0  0  0  0  0  0  0  0  0
    4.0259   -2.9152   -1.8735 H   0  0  0  0  0  0  0  0  0  0  0  0
    2.4751   -2.2842   -1.5170 H   0  0  0  0  0  0  0  0  0  0  0  0
    4.2937   -0.6966   -0.9176 H   0  0  0  0  0  0  0  0  0  0  0  0
    2.1845   -0.8863    0.1121 H   0  0  0  0  0  0  0  0  0  0  0  0
    7.2620   -2.6948   -0.0331 H   0  0  0  0  0  0  0  0  0  0  0  0
    6.8539   -1.0982   -0.6274 H   0  0  0  0  0  0  0  0  0  0  0  0
    6.1563   -2.4744   -1.3935 H   0  0  0  0  0  0  0  0  0  0  0  0
    6.6141   -1.0757    2.0764 H   0  0  0  0  0  0  0  0  0  0  0  0
    4.9410   -0.5525    2.2627 H   0  0  0  0  0  0  0  0  0  0  0  0
    5.9048    0.1080    0.9756 H   0  0  0  0  0  0  0  0  0  0  0  0
    6.0353   -3.6465    1.5514 H   0  0  0  0  0  0  0  0  0  0  0  0
    5.1759   -2.6575    3.3803 H   0  0  0  0  0  0  0  0  0  0  0  0
    3.5958   -2.3564    2.7236 H   0  0  0  0  0  0  0  0  0  0  0  0
    4.0617   -4.1032    4.5459 H   0  0  0  0  0  0  0  0  0  0  0  0
    2.8088   -4.3634    3.4122 H   0  0  0  0  0  0  0  0  0  0  0  0
    6.5111   -6.3676    3.7270 H   0  0  0  0  0  0  0  0  0  0  0  0
    6.3711   -4.6717    3.5046 H   0  0  0  0  0  0  0  0  0  0  0  0
    6.5084   -5.7477    2.1113 H   0  0  0  0  0  0  0  0  0  0  0  0
    5.5820   -7.9114    2.2922 H   0  0  0  0  0  0  0  0  0  0  0  0
    4.0631   -8.7149    2.2368 H   0  0  0  0  0  0  0  0  0  0  0  0
    5.2295   -9.0223    3.5181 H   0  0  0  0  0  0  0  0  0  0  0  0
    1.9207   -8.8450    6.8446 H   0  0  0  0  0  0  0  0  0  0  0  0
  1  2  1  0
  1 35  1  0
  1 36  1  0
  1 37  1  0
  2 34  1  0
  2  3  1  0
  2 38  1  1
  3  4  1  0
  3 39  1  0
  3 40  1  0
  4  5  1  0
  4 41  1  0
  4 42  1  0
  5 32  1  0
  5  6  1  0
  5 43  1  6
  6 34  1  0
  6  7  1  1
  6  8  1  0
  7 44  1  0
  7 45  1  0
  7 46  1  0
  8  9  1  0
  8 47  1  0
  8 48  1  0
  9 10  1  0
  9 49  1  0
  9 50  1  0
 10 11  1  0
 10 12  1  0
 10 13  1  0
 11 51  1  0
 11 52  1  0
 11 53  1  0
 12 54  1  0
 12 55  1  0
 12 56  1  0
 13 14  1  0
 13 34  1  0
 13 57  1  1
 14 32  1  0
 14 15  2  0
 15 16  1  0
 15 58  1  0
 16 17  1  0
 16 59  1  0
 16 60  1  0
 17 30  1  0
 17 18  1  0
 17 61  1  6
 18 27  1  0
 18 19  1  6
 18 20  1  0
 19 62  1  0
 19 63  1  0
 19 64  1  0
 20 21  1  0
 20 65  1  0
 20 66  1  0
 21 22  1  0
 21 67  1  0
 21 68  1  0
 22 23  1  0
 22 24  1  0
 22 69  1  6
 23 70  1  0
 24 25  1  0
 24 26  1  0
 24 27  1  0
 25 71  1  0
 25 72  1  0
 25 73  1  0
 26 74  1  0
 26 75  1  0
 26 76  1  0
 27 28  1  0
 27 77  1  1
 28 29  1  0
 28 78  1  0
 28 79  1  0
 29 30  1  0
 29 80  1  0
 29 81  1  0
 30 31  1  6
 30 32  1  0
 31 82  1  0
 31 83  1  0
 31 84  1  0
 32 33  1  6
 33 85  1  0
 33 86  1  0
 33 87  1  0
 34 88  1  1
M  END
>  <i_m_ct_stereo_status>  (240) 
1

>  <s_m_source_file>  (240) 
/var/tmp/pbs.5076255.sched01/tmppvoazpai/72cbyqjt17.sdf

>  <i_m_source_file_index>  (240) 
35

>  <i_lp_mmshare_version>  (240) 
48012

>  <i_f3d_flags>  (240) 
0

>  <s_epik_input>  (240) 
W0NIMl0xW0NIMl1bQ0BASF0oW0NIM10pW0NASF0yW0NASF0oQyhbQ0gzXSkoW0NIM10pW0NIMl1bQ0gyXTMpQyhbQ0BdNChbQ0gzXSlbQ0BASF0xW0NAQF0yM1tDSDNdKT1bQ0hdW0NIMl1bQ0BIXTVbQ0BdNihbQ0gzXSlbQ0BASF0oQyhbQ0gzXSkoW0NIM10pW0NASF0oW09IXSlbQ0gyXVtDSDJdNilbQ0gyXVtDSDJdW0NAQF00NVtDSDNd

>  <s_epik_cmdline>  (240) 
J2VwaWtfcHl0aG9uJywgJy1waHQnLCAnMi4wJywgJy1waCcsICc3LjAnLCAnLXRuJywgJzgnLCAnLW1hJywgJzIwMCcsICctaW1hZScsICc8aW5maWxlLm1hZT4nLCAnLW9tYWUnLCAnPG91dGZpbGUubWFlPic=

>  <r_lp_tautomer_probability>  (240) 
1

>  <r_epik_Ionization_Penalty>  (240) 
2.96894e-06

>  <r_epik_Ionization_Penalty_Charging>  (240) 
0

>  <r_epik_Ionization_Penalty_Neutral>  (240) 
2.96894e-06

>  <r_epik_State_Penalty>  (240) 
-0

>  <r_epik_Charging_Adjusted_Penalty>  (240) 
0

>  <i_epik_Tot_Q>  (240) 
0

>  <i_epik_Tot_abs_Q>  (240) 
0

>  <s_lp_Force_Field>  (240) 
OPLS3e

>  <r_lp_Energy>  (240) 
145.228

>  <b_lp_Chiralities_Consistent>  (240) 
1

>  <s_lp_Variant>  (240) 
86:0-1

>  <s_i_glide_gridfile>  (240) 
pfpi4k_grid

>  <i_i_glide_lignum>  (240) 
35

>  <i_i_glide_rotatable_bonds>  (240) 
1

>  <r_i_docking_score>  (240) 
-2.61663

>  <r_i_glide_ligand_efficiency>  (240) 
-0.0769598

>  <r_i_glide_ligand_efficiency_sa>  (240) 
-0.24932

>  <r_i_glide_ligand_efficiency_ln>  (240) 
-0.578088

>  <r_i_glide_gscore>  (240) 
-2.61663

>  <r_i_glide_lipo>  (240) 
-0.379146

>  <r_i_glide_hbond>  (240) 
-0.16

>  <r_i_glide_metal>  (240) 
-0

>  <r_i_glide_rewards>  (240) 
-0.226491

>  <r_i_glide_evdw>  (240) 
-26.5839

>  <r_i_glide_ecoul>  (240) 
-3.47867

>  <r_i_glide_erotb>  (240) 
0

>  <r_i_glide_esite>  (240) 
0

>  <r_i_glide_emodel>  (240) 
-35.0597

>  <r_i_glide_energy>  (240) 
-30.0626

>  <r_i_glide_einternal>  (240) 
0.595566

>  <r_i_glide_intrahb_reward>  (240) 
-0

>  <i_i_glide_confnum>  (240) 
1

>  <i_i_glide_posenum>  (240) 
3

>  <r_i_glide_eff_state_penalty>  (240) 
0

>  <ligand_id>  (240) 
86

>  <original_smiles>  (240) 
CC1CCC2C3(C)CCC(C)(C)C(C4=CCC5C6(C)CCC(O)C(C)(C)C6CCC5(C)C42C)C13

>  <smiles>  (240) 
[H]OC1([H])C([H])([H])C([H])([H])C2(C([H])([H])[H])C([H])(C([H])([H])C([H])([H])C3(C([H])([H])[H])C2([H])C([H])([H])C([H])=C2C4([H])C5([H])C([H])(C([H])([H])[H])C([H])([H])C([H])([H])C([H])(C23C([H])([H])[H])C5(C([H])([H])[H])C([H])([H])C([H])([H])C4(C([H])([H])[H])C([H])([H])[H])C1(C([H])([H])[H])C([H])([H])[H]

$$$$
86:0:2
     RDKit          3D

 88 93  0  0  1  0  0  0  0  0999 V2000
    4.4772   -7.9345    6.9316 C   0  0  0  0  0  0  0  0  0  0  0  0
    4.4470   -8.6820    5.5878 C   0  0  2  0  0  0  0  0  0  0  0  0
    5.3175   -7.9790    4.5413 C   0  0  0  0  0  0  0  0  0  0  0  0
    5.1734   -8.5879    3.1258 C   0  0  0  0  0  0  0  0  0  0  0  0
    3.6908   -8.7150    2.6923 C   0  0  1  0  0  0  0  0  0  0  0  0
    2.9915   -9.7168    3.7131 C   0  0  2  0  0  0  0  0  0  0  0  0
    3.7490  -11.0846    3.7884 C   0  0  0  0  0  0  0  0  0  0  0  0
    1.5256  -10.1864    3.3971 C   0  0  0  0  0  0  0  0  0  0  0  0
    0.3323   -9.2774    3.7686 C   0  0  0  0  0  0  0  0  0  0  0  0
    0.5558   -8.2784    4.9264 C   0  0  0  0  0  0  0  0  0  0  0  0
   -0.4603   -7.1247    4.7534 C   0  0  0  0  0  0  0  0  0  0  0  0
    0.1914   -8.9523    6.2800 C   0  0  0  0  0  0  0  0  0  0  0  0
    2.0408   -7.7762    4.9493 C   0  0  2  0  0  0  0  0  0  0  0  0
    2.3814   -6.7898    3.8053 C   0  0  0  0  0  0  0  0  0  0  0  0
    2.1081   -5.4830    3.9688 C   0  0  0  0  0  0  0  0  0  0  0  0
    2.2940   -4.3858    2.9465 C   0  0  0  0  0  0  0  0  0  0  0  0
    2.9496   -4.7891    1.5804 C   0  0  1  0  0  0  0  0  0  0  0  0
    3.5611   -3.5307    0.7738 C   0  0  1  0  0  0  0  0  0  0  0  0
    2.7308   -3.4280   -0.5342 C   0  0  0  0  0  0  0  0  0  0  0  0
    3.4158   -2.1742    1.5372 C   0  0  0  0  0  0  0  0  0  0  0  0
    4.0379   -0.9517    0.8475 C   0  0  0  0  0  0  0  0  0  0  0  0
    5.5394   -1.1438    0.6087 C   0  0  1  0  0  0  0  0  0  0  0  0
    6.1915   -1.0689    1.8595 O   0  0  0  0  0  0  0  0  0  0  0  0
    5.8707   -2.4615   -0.1535 C   0  0  0  0  0  0  0  0  0  0  0  0
    5.5280   -2.2540   -1.6543 C   0  0  0  0  0  0  0  0  0  0  0  0
    7.4088   -2.6983   -0.1434 C   0  0  0  0  0  0  0  0  0  0  0  0
    5.0921   -3.7092    0.4491 C   0  0  1  0  0  0  0  0  0  0  0  0
    5.8429   -4.3851    1.6272 C   0  0  0  0  0  0  0  0  0  0  0  0
    5.0765   -5.4421    2.4583 C   0  0  0  0  0  0  0  0  0  0  0  0
    3.8432   -6.0946    1.7408 C   0  0  2  0  0  0  0  0  0  0  0  0
    4.3363   -6.6781    0.3810 C   0  0  0  0  0  0  0  0  0  0  0  0
    2.9791   -7.2854    2.4686 C   0  0  1  0  0  0  0  0  0  0  0  0
    1.7586   -7.5373    1.5207 C   0  0  0  0  0  0  0  0  0  0  0  0
    3.0119   -8.9901    5.0695 C   0  0  2  0  0  0  0  0  0  0  0  0
    4.1398   -6.9025    6.8282 H   0  0  0  0  0  0  0  0  0  0  0  0
    5.4917   -7.9033    7.3311 H   0  0  0  0  0  0  0  0  0  0  0  0
    3.8463   -8.4264    7.6722 H   0  0  0  0  0  0  0  0  0  0  0  0
    4.9264   -9.6389    5.7994 H   0  0  0  0  0  0  0  0  0  0  0  0
    5.0298   -6.9321    4.5618 H   0  0  0  0  0  0  0  0  0  0  0  0
    6.3638   -8.0099    4.8444 H   0  0  0  0  0  0  0  0  0  0  0  0
    5.7518   -8.0825    2.3643 H   0  0  0  0  0  0  0  0  0  0  0  0
    5.6723   -9.5502    3.1093 H   0  0  0  0  0  0  0  0  0  0  0  0
    3.7120   -9.2371    1.7347 H   0  0  0  0  0  0  0  0  0  0  0  0
    3.2574  -11.7878    4.4655 H   0  0  0  0  0  0  0  0  0  0  0  0
    4.7672  -11.0398    4.1667 H   0  0  0  0  0  0  0  0  0  0  0  0
    3.7891  -11.5590    2.8039 H   0  0  0  0  0  0  0  0  0  0  0  0
    1.4541  -10.4914    2.3567 H   0  0  0  0  0  0  0  0  0  0  0  0
    1.3125  -11.1106    3.9336 H   0  0  0  0  0  0  0  0  0  0  0  0
   -0.0415   -8.7763    2.8828 H   0  0  0  0  0  0  0  0  0  0  0  0
   -0.5100   -9.9213    4.0291 H   0  0  0  0  0  0  0  0  0  0  0  0
   -0.3376   -6.3621    5.5255 H   0  0  0  0  0  0  0  0  0  0  0  0
   -1.4884   -7.4954    4.8128 H   0  0  0  0  0  0  0  0  0  0  0  0
   -0.3652   -6.6426    3.7788 H   0  0  0  0  0  0  0  0  0  0  0  0
    0.4839   -8.3252    7.1232 H   0  0  0  0  0  0  0  0  0  0  0  0
    0.6402   -9.9328    6.4242 H   0  0  0  0  0  0  0  0  0  0  0  0
   -0.8835   -9.1129    6.3681 H   0  0  0  0  0  0  0  0  0  0  0  0
    2.1273   -7.1967    5.8648 H   0  0  0  0  0  0  0  0  0  0  0  0
    1.6695   -5.1607    4.9013 H   0  0  0  0  0  0  0  0  0  0  0  0
    1.3236   -3.9229    2.7723 H   0  0  0  0  0  0  0  0  0  0  0  0
    2.8860   -3.6790    3.5150 H   0  0  0  0  0  0  0  0  0  0  0  0
    2.0917   -5.1039    0.9963 H   0  0  0  0  0  0  0  0  0  0  0  0
    2.9109   -2.5319   -1.1095 H   0  0  0  0  0  0  0  0  0  0  0  0
    1.6670   -3.3908   -0.3276 H   0  0  0  0  0  0  0  0  0  0  0  0
    2.9031   -4.2658   -1.1994 H   0  0  0  0  0  0  0  0  0  0  0  0
    2.3646   -1.9629    1.7344 H   0  0  0  0  0  0  0  0  0  0  0  0
    3.9096   -2.2375    2.5043 H   0  0  0  0  0  0  0  0  0  0  0  0
    3.5252   -0.7332   -0.0837 H   0  0  0  0  0  0  0  0  0  0  0  0
    3.8822   -0.0660    1.4588 H   0  0  0  0  0  0  0  0  0  0  0  0
    5.9096   -0.2961    0.0316 H   0  0  0  0  0  0  0  0  0  0  0  0
    5.8476   -1.7591    2.4064 H   0  0  0  0  0  0  0  0  0  0  0  0
    5.4101   -3.1976   -2.1896 H   0  0  0  0  0  0  0  0  0  0  0  0
    6.3141   -1.7035   -2.1653 H   0  0  0  0  0  0  0  0  0  0  0  0
    4.6337   -1.6581   -1.8113 H   0  0  0  0  0  0  0  0  0  0  0  0
    7.6781   -3.5923   -0.7071 H   0  0  0  0  0  0  0  0  0  0  0  0
    7.8175   -2.8015    0.8614 H   0  0  0  0  0  0  0  0  0  0  0  0
    7.9448   -1.8598   -0.5928 H   0  0  0  0  0  0  0  0  0  0  0  0
    5.1500   -4.4315   -0.3589 H   0  0  0  0  0  0  0  0  0  0  0  0
    6.7160   -4.8827    1.2023 H   0  0  0  0  0  0  0  0  0  0  0  0
    6.2280   -3.6367    2.3168 H   0  0  0  0  0  0  0  0  0  0  0  0
    5.8546   -6.1286    2.7502 H   0  0  0  0  0  0  0  0  0  0  0  0
    4.7642   -4.9774    3.3908 H   0  0  0  0  0  0  0  0  0  0  0  0
    4.1599   -7.7438    0.2637 H   0  0  0  0  0  0  0  0  0  0  0  0
    5.4089   -6.5684    0.2315 H   0  0  0  0  0  0  0  0  0  0  0  0
    3.8274   -6.2058   -0.4544 H   0  0  0  0  0  0  0  0  0  0  0  0
    1.8804   -7.1429    0.5168 H   0  0  0  0  0  0  0  0  0  0  0  0
    0.8506   -7.0554    1.8725 H   0  0  0  0  0  0  0  0  0  0  0  0
    1.5485   -8.5860    1.3520 H   0  0  0  0  0  0  0  0  0  0  0  0
    2.6260   -9.6863    5.8087 H   0  0  0  0  0  0  0  0  0  0  0  0
  1  2  1  0
  1 35  1  0
  1 36  1  0
  1 37  1  0
  2 34  1  0
  2  3  1  0
  2 38  1  1
  3  4  1  0
  3 39  1  0
  3 40  1  0
  4  5  1  0
  4 41  1  0
  4 42  1  0
  5 32  1  0
  5  6  1  0
  5 43  1  6
  6 34  1  0
  6  7  1  1
  6  8  1  0
  7 44  1  0
  7 45  1  0
  7 46  1  0
  8  9  1  0
  8 47  1  0
  8 48  1  0
  9 10  1  0
  9 49  1  0
  9 50  1  0
 10 11  1  0
 10 12  1  0
 10 13  1  0
 11 51  1  0
 11 52  1  0
 11 53  1  0
 12 54  1  0
 12 55  1  0
 12 56  1  0
 13 14  1  0
 13 34  1  0
 13 57  1  1
 14 32  1  0
 14 15  2  0
 15 16  1  0
 15 58  1  0
 16 17  1  0
 16 59  1  0
 16 60  1  0
 17 30  1  0
 17 18  1  0
 17 61  1  6
 18 27  1  0
 18 19  1  6
 18 20  1  0
 19 62  1  0
 19 63  1  0
 19 64  1  0
 20 21  1  0
 20 65  1  0
 20 66  1  0
 21 22  1  0
 21 67  1  0
 21 68  1  0
 22 23  1  0
 22 24  1  0
 22 69  1  6
 23 70  1  0
 24 25  1  0
 24 26  1  0
 24 27  1  0
 25 71  1  0
 25 72  1  0
 25 73  1  0
 26 74  1  0
 26 75  1  0
 26 76  1  0
 27 28  1  0
 27 77  1  6
 28 29  1  0
 28 78  1  0
 28 79  1  0
 29 30  1  0
 29 80  1  0
 29 81  1  0
 30 31  1  6
 30 32  1  0
 31 82  1  0
 31 83  1  0
 31 84  1  0
 32 33  1  6
 33 85  1  0
 33 86  1  0
 33 87  1  0
 34 88  1  1
M  END
>  <i_m_ct_stereo_status>  (241) 
1

>  <s_m_source_file>  (241) 
/var/tmp/pbs.5076255.sched01/tmppvoazpai/72cbyqjt17.sdf

>  <i_m_source_file_index>  (241) 
35

>  <i_lp_mmshare_version>  (241) 
48012

>  <i_f3d_flags>  (241) 
0

>  <s_epik_input>  (241) 
W0NIMl0xW0NIMl1bQ0BASF0oW0NIM10pW0NASF0yW0NASF0oQyhbQ0gzXSkoW0NIM10pW0NIMl1bQ0gyXTMpQyhbQ0BdNChbQ0gzXSlbQ0BASF0xW0NAQF0yM1tDSDNdKT1bQ0hdW0NIMl1bQ0BIXTVbQ0BdNihbQ0gzXSlbQ0BASF0oQyhbQ0gzXSkoW0NIM10pW0NASF0oW09IXSlbQ0gyXVtDSDJdNilbQ0gyXVtDSDJdW0NAQF00NVtDSDNd

>  <s_epik_cmdline>  (241) 
J2VwaWtfcHl0aG9uJywgJy1waHQnLCAnMi4wJywgJy1waCcsICc3LjAnLCAnLXRuJywgJzgnLCAnLW1hJywgJzIwMCcsICctaW1hZScsICc8aW5maWxlLm1hZT4nLCAnLW9tYWUnLCAnPG91dGZpbGUubWFlPic=

>  <r_lp_tautomer_probability>  (241) 
1

>  <r_epik_Ionization_Penalty>  (241) 
2.96894e-06

>  <r_epik_Ionization_Penalty_Charging>  (241) 
0

>  <r_epik_Ionization_Penalty_Neutral>  (241) 
2.96894e-06

>  <r_epik_State_Penalty>  (241) 
-0

>  <r_epik_Charging_Adjusted_Penalty>  (241) 
0

>  <i_epik_Tot_Q>  (241) 
0

>  <i_epik_Tot_abs_Q>  (241) 
0

>  <s_lp_Force_Field>  (241) 
OPLS3e

>  <r_lp_Energy>  (241) 
145.228

>  <b_lp_Chiralities_Consistent>  (241) 
1

>  <s_lp_Variant>  (241) 
86:0-1

>  <s_i_glide_gridfile>  (241) 
pfpi4k_grid

>  <i_i_glide_lignum>  (241) 
35

>  <i_i_glide_rotatable_bonds>  (241) 
1

>  <r_i_docking_score>  (241) 
-2.48011

>  <r_i_glide_ligand_efficiency>  (241) 
-0.0729444

>  <r_i_glide_ligand_efficiency_sa>  (241) 
-0.236312

>  <r_i_glide_ligand_efficiency_ln>  (241) 
-0.547926

>  <r_i_glide_gscore>  (241) 
-2.48011

>  <r_i_glide_lipo>  (241) 
-0.517724

>  <r_i_glide_hbond>  (241) 
0

>  <r_i_glide_metal>  (241) 
-0

>  <r_i_glide_rewards>  (241) 
-0.226491

>  <r_i_glide_evdw>  (241) 
-34.4272

>  <r_i_glide_ecoul>  (241) 
-0.0968847

>  <r_i_glide_erotb>  (241) 
0

>  <r_i_glide_esite>  (241) 
0

>  <r_i_glide_emodel>  (241) 
-39.5997

>  <r_i_glide_energy>  (241) 
-34.5241

>  <r_i_glide_einternal>  (241) 
0.0121264

>  <r_i_glide_intrahb_reward>  (241) 
-0

>  <i_i_glide_confnum>  (241) 
1

>  <i_i_glide_posenum>  (241) 
16

>  <r_i_glide_eff_state_penalty>  (241) 
0

>  <ligand_id>  (241) 
86

>  <original_smiles>  (241) 
CC1CCC2C3(C)CCC(C)(C)C(C4=CCC5C6(C)CCC(O)C(C)(C)C6CCC5(C)C42C)C13

>  <smiles>  (241) 
[H]OC1([H])C([H])([H])C([H])([H])C2(C([H])([H])[H])C([H])(C([H])([H])C([H])([H])C3(C([H])([H])[H])C2([H])C([H])([H])C([H])=C2C4([H])C5([H])C([H])(C([H])([H])[H])C([H])([H])C([H])([H])C([H])(C23C([H])([H])[H])C5(C([H])([H])[H])C([H])([H])C([H])([H])C4(C([H])([H])[H])C([H])([H])[H])C1(C([H])([H])[H])C([H])([H])[H]

$$$$
87:0:0
     RDKit          3D

 57 60  0  0  1  0  0  0  0  0999 V2000
   -1.5898   -8.9934    2.4768 C   0  0  0  0  0  0  0  0  0  0  0  0
   -0.4596   -8.4389    3.1254 O   0  0  0  0  0  0  0  0  0  0  0  0
   -0.6053   -7.6275    4.1720 C   0  0  0  0  0  0  0  0  0  0  0  0
   -1.6431   -7.0489    4.4625 O   0  0  0  0  0  0  0  0  0  0  0  0
    0.7063   -7.4701    5.0186 C   0  0  1  0  0  0  0  0  0  0  0  0
    0.3082   -6.9624    6.2820 O   0  0  0  0  0  0  0  0  0  0  0  0
    1.3419   -8.8661    5.3042 C   0  0  0  0  0  0  0  0  0  0  0  0
    2.1171   -9.4790    4.1134 C   0  0  0  0  0  0  0  0  0  0  0  0
    3.1093   -8.4753    3.5025 C   0  0  0  0  0  0  0  0  0  0  0  0
    2.4839   -7.0882    3.1651 C   0  0  2  0  0  0  0  0  0  0  0  0
    3.4946   -6.1069    2.4570 C   0  0  1  0  0  0  0  0  0  0  0  0
    4.1084   -6.7673    1.1997 C   0  0  0  0  0  0  0  0  0  0  0  0
    4.8296   -5.8039    0.2911 C   0  0  0  0  0  0  0  0  0  0  0  0
    4.8384   -4.4745    0.3969 C   0  0  0  0  0  0  0  0  0  0  0  0
    5.6455   -3.6646   -0.6186 C   0  0  2  0  0  0  0  0  0  0  0  0
    7.5098   -3.3662    0.0420 Br  0  0  0  0  0  0  0  0  0  0  0  0
    5.0245   -2.3282   -1.0128 C   0  0  0  0  0  0  0  0  0  0  0  0
    5.5982   -1.6457   -1.8536 O   0  0  0  0  0  0  0  0  0  0  0  0
    3.7844   -1.9073   -0.3616 C   0  0  0  0  0  0  0  0  0  0  0  0
    3.3151   -2.5363    0.7302 C   0  0  0  0  0  0  0  0  0  0  0  0
    3.9675   -3.7333    1.4437 C   0  0  2  0  0  0  0  0  0  0  0  0
    4.9282   -3.1613    2.5098 C   0  0  0  0  0  0  0  0  0  0  0  0
    2.8890   -4.7109    2.0999 C   0  0  1  0  0  0  0  0  0  0  0  0
    1.9572   -4.9919    1.1834 F   0  0  0  0  0  0  0  0  0  0  0  0
    2.1590   -4.1385    3.3668 C   0  0  1  0  0  0  0  0  0  0  0  0
    1.4316   -2.9554    3.1371 O   0  0  0  0  0  0  0  0  0  0  0  0
    1.1586   -5.1293    3.9954 C   0  0  0  0  0  0  0  0  0  0  0  0
    1.7947   -6.4734    4.4293 C   0  0  1  0  0  0  0  0  0  0  0  0
    2.8661   -6.1562    5.5286 C   0  0  0  0  0  0  0  0  0  0  0  0
   -1.2362   -9.6794    1.7086 H   0  0  0  0  0  0  0  0  0  0  0  0
   -2.2108   -8.2335    2.0086 H   0  0  0  0  0  0  0  0  0  0  0  0
   -2.1966   -9.5749    3.1699 H   0  0  0  0  0  0  0  0  0  0  0  0
    1.0850   -6.9200    6.8376 H   0  0  0  0  0  0  0  0  0  0  0  0
    2.0305   -8.8032    6.1500 H   0  0  0  0  0  0  0  0  0  0  0  0
    0.5801   -9.5682    5.6414 H   0  0  0  0  0  0  0  0  0  0  0  0
    2.6386  -10.3834    4.4365 H   0  0  0  0  0  0  0  0  0  0  0  0
    1.4547   -9.8329    3.3223 H   0  0  0  0  0  0  0  0  0  0  0  0
    3.9549   -8.3522    4.1797 H   0  0  0  0  0  0  0  0  0  0  0  0
    3.5043   -8.9428    2.6006 H   0  0  0  0  0  0  0  0  0  0  0  0
    1.6977   -7.2732    2.4312 H   0  0  0  0  0  0  0  0  0  0  0  0
    4.3323   -5.9392    3.1310 H   0  0  0  0  0  0  0  0  0  0  0  0
    4.8388   -7.5168    1.5012 H   0  0  0  0  0  0  0  0  0  0  0  0
    3.3458   -7.2738    0.6116 H   0  0  0  0  0  0  0  0  0  0  0  0
    5.4011   -6.2620   -0.5056 H   0  0  0  0  0  0  0  0  0  0  0  0
    5.7487   -4.2552   -1.5283 H   0  0  0  0  0  0  0  0  0  0  0  0
    3.2445   -1.0683   -0.7893 H   0  0  0  0  0  0  0  0  0  0  0  0
    2.3855   -2.1533    1.1205 H   0  0  0  0  0  0  0  0  0  0  0  0
    5.6766   -2.5055    2.0657 H   0  0  0  0  0  0  0  0  0  0  0  0
    5.4685   -3.9499    3.0329 H   0  0  0  0  0  0  0  0  0  0  0  0
    4.4091   -2.5542    3.2485 H   0  0  0  0  0  0  0  0  0  0  0  0
    2.8978   -3.8778    4.1209 H   0  0  0  0  0  0  0  0  0  0  0  0
    2.0359   -2.2966    2.8026 H   0  0  0  0  0  0  0  0  0  0  0  0
    0.6706   -4.6565    4.8512 H   0  0  0  0  0  0  0  0  0  0  0  0
    0.3701   -5.3090    3.2677 H   0  0  0  0  0  0  0  0  0  0  0  0
    3.7090   -5.5827    5.1526 H   0  0  0  0  0  0  0  0  0  0  0  0
    3.3041   -7.0473    5.9715 H   0  0  0  0  0  0  0  0  0  0  0  0
    2.4489   -5.5588    6.3403 H   0  0  0  0  0  0  0  0  0  0  0  0
  1  2  1  0
  1 30  1  0
  1 31  1  0
  1 32  1  0
  2  3  1  0
  3  4  2  0
  3  5  1  0
  5 28  1  0
  5  6  1  1
  5  7  1  0
  6 33  1  0
  7  8  1  0
  7 34  1  0
  7 35  1  0
  8  9  1  0
  8 36  1  0
  8 37  1  0
  9 10  1  0
  9 38  1  0
  9 39  1  0
 10 28  1  0
 10 11  1  0
 10 40  1  6
 11 23  1  0
 11 12  1  0
 11 41  1  1
 12 13  1  0
 12 42  1  0
 12 43  1  0
 13 14  2  0
 13 44  1  0
 14 21  1  0
 14 15  1  0
 15 16  1  0
 15 17  1  0
 15 45  1  6
 17 18  2  0
 17 19  1  0
 19 20  2  0
 19 46  1  0
 20 21  1  0
 20 47  1  0
 21 22  1  1
 21 23  1  0
 22 48  1  0
 22 49  1  0
 22 50  1  0
 23 24  1  6
 23 25  1  0
 25 26  1  0
 25 27  1  0
 25 51  1  1
 26 52  1  0
 27 28  1  0
 27 53  1  0
 27 54  1  0
 28 29  1  1
 29 55  1  0
 29 56  1  0
 29 57  1  0
M  END
>  <i_m_ct_stereo_status>  (242) 
1

>  <s_m_source_file>  (242) 
/var/tmp/pbs.5076255.sched01/tmppvoazpai/72cbyqjt17.sdf

>  <i_m_source_file_index>  (242) 
36

>  <i_lp_mmshare_version>  (242) 
48012

>  <i_f3d_flags>  (242) 
0

>  <s_epik_input>  (242) 
W0NIM11PQyg9TylbQ0BAXShbT0hdKShbQ0gyXVtDSDJdW0NIMl0xKVtDQF0oW0NIM10pKFtDSDJdW0NAQEhdKFtDQF0yM0YpW09IXSlbQ0BIXTFbQ0BIXTJbQ0gyXVtDSF09QyhbQ0BdMzRbQ0gzXSlbQ0BIXShCcilDKD1PKVtDSF09W0NIXTQ=

>  <s_epik_cmdline>  (242) 
J2VwaWtfcHl0aG9uJywgJy1waHQnLCAnMi4wJywgJy1waCcsICc3LjAnLCAnLXRuJywgJzgnLCAnLW1hJywgJzIwMCcsICctaW1hZScsICc8aW5maWxlLm1hZT4nLCAnLW9tYWUnLCAnPG91dGZpbGUubWFlPic=

>  <r_lp_tautomer_probability>  (242) 
1

>  <r_epik_Ionization_Penalty>  (242) 
2.9024e-06

>  <r_epik_Ionization_Penalty_Charging>  (242) 
0

>  <r_epik_Ionization_Penalty_Neutral>  (242) 
2.9024e-06

>  <r_epik_State_Penalty>  (242) 
-0

>  <r_epik_Charging_Adjusted_Penalty>  (242) 
0

>  <i_epik_Tot_Q>  (242) 
0

>  <i_epik_Tot_abs_Q>  (242) 
0

>  <s_epik_Chemistry_Notes>  (242) 
This compound has an ester and may undergo hydrolysis at high or low pH.

>  <s_lp_Force_Field>  (242) 
OPLS3e

>  <r_lp_Energy>  (242) 
45.4617

>  <b_lp_Chiralities_Consistent>  (242) 
1

>  <s_lp_Variant>  (242) 
87:0-1

>  <s_i_glide_gridfile>  (242) 
pfpi4k_grid

>  <i_i_glide_lignum>  (242) 
36

>  <i_i_glide_rotatable_bonds>  (242) 
4

>  <r_i_docking_score>  (242) 
-2.97158

>  <r_i_glide_ligand_efficiency>  (242) 
-0.102468

>  <r_i_glide_ligand_efficiency_sa>  (242) 
-0.314815

>  <r_i_glide_ligand_efficiency_ln>  (242) 
-0.680417

>  <r_i_glide_gscore>  (242) 
-2.97158

>  <r_i_glide_lipo>  (242) 
-0.737275

>  <r_i_glide_hbond>  (242) 
-0.0106998

>  <r_i_glide_metal>  (242) 
-0

>  <r_i_glide_rewards>  (242) 
-0.195292

>  <r_i_glide_evdw>  (242) 
-31.7957

>  <r_i_glide_ecoul>  (242) 
-2.72635

>  <r_i_glide_erotb>  (242) 
0.0909721

>  <r_i_glide_esite>  (242) 
-0.12055

>  <r_i_glide_emodel>  (242) 
-39.8312

>  <r_i_glide_energy>  (242) 
-34.522

>  <r_i_glide_einternal>  (242) 
3.58044

>  <r_i_glide_intrahb_reward>  (242) 
-0

>  <i_i_glide_confnum>  (242) 
1

>  <i_i_glide_posenum>  (242) 
24

>  <r_i_glide_eff_state_penalty>  (242) 
0

>  <ligand_id>  (242) 
87

>  <original_smiles>  (242) 
COC(=O)C1(O)CCCC2C3CC=C4C(Br)C(=O)C=CC4(C)C3(F)C(O)CC21C

>  <smiles>  (242) 
[H]OC1([H])C([H])([H])C2(C([H])([H])[H])C(O[H])(C(=O)OC([H])([H])[H])C([H])([H])C([H])([H])C([H])([H])C2([H])C2([H])C([H])([H])C([H])=C3C([H])(Br)C(=O)C([H])=C([H])C3(C([H])([H])[H])C12F

$$$$
87:0:1
     RDKit          3D

 57 60  0  0  1  0  0  0  0  0999 V2000
    1.5108   -2.4236    5.6358 C   0  0  0  0  0  0  0  0  0  0  0  0
    2.4601   -3.3259    5.1005 O   0  0  0  0  0  0  0  0  0  0  0  0
    3.6447   -3.4951    5.6839 C   0  0  0  0  0  0  0  0  0  0  0  0
    4.0026   -2.9094    6.7022 O   0  0  0  0  0  0  0  0  0  0  0  0
    4.5332   -4.5813    4.9927 C   0  0  1  0  0  0  0  0  0  0  0  0
    5.7698   -4.6077    5.6905 O   0  0  0  0  0  0  0  0  0  0  0  0
    3.9235   -5.9880    5.2135 C   0  0  0  0  0  0  0  0  0  0  0  0
    2.7026   -6.2705    4.3193 C   0  0  0  0  0  0  0  0  0  0  0  0
    3.0075   -6.0069    2.8323 C   0  0  0  0  0  0  0  0  0  0  0  0
    3.6042   -4.5979    2.5483 C   0  0  2  0  0  0  0  0  0  0  0  0
    3.8645   -4.2792    1.0360 C   0  0  1  0  0  0  0  0  0  0  0  0
    2.5746   -4.5110    0.2517 C   0  0  0  0  0  0  0  0  0  0  0  0
    2.4989   -3.8535   -1.0940 C   0  0  0  0  0  0  0  0  0  0  0  0
    3.4360   -3.0829   -1.6215 C   0  0  0  0  0  0  0  0  0  0  0  0
    3.2712   -2.6370   -3.0745 C   0  0  2  0  0  0  0  0  0  0  0  0
    4.2850   -3.8629   -4.2519 Br  0  0  0  0  0  0  0  0  0  0  0  0
    3.7884   -1.2397   -3.3407 C   0  0  0  0  0  0  0  0  0  0  0  0
    3.7101   -0.8058   -4.4819 O   0  0  0  0  0  0  0  0  0  0  0  0
    4.4582   -0.5162   -2.2731 C   0  0  0  0  0  0  0  0  0  0  0  0
    4.8228   -1.1043   -1.1193 C   0  0  0  0  0  0  0  0  0  0  0  0
    4.6325   -2.5724   -0.7826 C   0  0  2  0  0  0  0  0  0  0  0  0
    5.9035   -3.3004   -1.2546 C   0  0  0  0  0  0  0  0  0  0  0  0
    4.3853   -2.8222    0.7722 C   0  0  1  0  0  0  0  0  0  0  0  0
    3.4367   -1.9753    1.1865 F   0  0  0  0  0  0  0  0  0  0  0  0
    5.6088   -2.5959    1.7018 C   0  0  1  0  0  0  0  0  0  0  0  0
    6.1191   -1.2821    1.6434 O   0  0  0  0  0  0  0  0  0  0  0  0
    5.3021   -2.8898    3.1830 C   0  0  0  0  0  0  0  0  0  0  0  0
    4.8556   -4.3480    3.4516 C   0  0  1  0  0  0  0  0  0  0  0  0
    6.0019   -5.3188    3.0142 C   0  0  0  0  0  0  0  0  0  0  0  0
    0.6328   -2.4392    4.9905 H   0  0  0  0  0  0  0  0  0  0  0  0
    1.9082   -1.4104    5.6476 H   0  0  0  0  0  0  0  0  0  0  0  0
    1.1982   -2.7157    6.6341 H   0  0  0  0  0  0  0  0  0  0  0  0
    6.3134   -5.2850    5.3133 H   0  0  0  0  0  0  0  0  0  0  0  0
    4.6616   -6.7710    5.0475 H   0  0  0  0  0  0  0  0  0  0  0  0
    3.6359   -6.1037    6.2626 H   0  0  0  0  0  0  0  0  0  0  0  0
    2.3720   -7.2961    4.4647 H   0  0  0  0  0  0  0  0  0  0  0  0
    1.8457   -5.6798    4.6297 H   0  0  0  0  0  0  0  0  0  0  0  0
    3.6859   -6.7826    2.4719 H   0  0  0  0  0  0  0  0  0  0  0  0
    2.0656   -6.1436    2.2983 H   0  0  0  0  0  0  0  0  0  0  0  0
    2.8305   -3.8815    2.8206 H   0  0  0  0  0  0  0  0  0  0  0  0
    4.5666   -5.0023    0.6293 H   0  0  0  0  0  0  0  0  0  0  0  0
    2.3678   -5.5679    0.1065 H   0  0  0  0  0  0  0  0  0  0  0  0
    1.8159   -4.0895    0.8724 H   0  0  0  0  0  0  0  0  0  0  0  0
    1.6537   -4.1590   -1.7118 H   0  0  0  0  0  0  0  0  0  0  0  0
    2.2220   -2.6868   -3.3715 H   0  0  0  0  0  0  0  0  0  0  0  0
    4.5910    0.5297   -2.4481 H   0  0  0  0  0  0  0  0  0  0  0  0
    5.2558   -0.4761   -0.3576 H   0  0  0  0  0  0  0  0  0  0  0  0
    6.0920   -3.1436   -2.3140 H   0  0  0  0  0  0  0  0  0  0  0  0
    5.8323   -4.3791   -1.0996 H   0  0  0  0  0  0  0  0  0  0  0  0
    6.7952   -2.9389   -0.7476 H   0  0  0  0  0  0  0  0  0  0  0  0
    6.4267   -3.2356    1.3857 H   0  0  0  0  0  0  0  0  0  0  0  0
    5.4385   -0.6984    1.9454 H   0  0  0  0  0  0  0  0  0  0  0  0
    6.1727   -2.6595    3.7876 H   0  0  0  0  0  0  0  0  0  0  0  0
    4.5327   -2.1940    3.5232 H   0  0  0  0  0  0  0  0  0  0  0  0
    6.1936   -5.3055    1.9450 H   0  0  0  0  0  0  0  0  0  0  0  0
    5.8048   -6.3631    3.2530 H   0  0  0  0  0  0  0  0  0  0  0  0
    6.9548   -5.0635    3.4750 H   0  0  0  0  0  0  0  0  0  0  0  0
  1  2  1  0
  1 30  1  0
  1 31  1  0
  1 32  1  0
  2  3  1  0
  3  4  2  0
  3  5  1  0
  5 28  1  0
  5  6  1  1
  5  7  1  0
  6 33  1  0
  7  8  1  0
  7 34  1  0
  7 35  1  0
  8  9  1  0
  8 36  1  0
  8 37  1  0
  9 10  1  0
  9 38  1  0
  9 39  1  0
 10 28  1  0
 10 11  1  0
 10 40  1  1
 11 23  1  0
 11 12  1  0
 11 41  1  6
 12 13  1  0
 12 42  1  0
 12 43  1  0
 13 14  2  0
 13 44  1  0
 14 21  1  0
 14 15  1  0
 15 16  1  0
 15 17  1  0
 15 45  1  6
 17 18  2  0
 17 19  1  0
 19 20  2  0
 19 46  1  0
 20 21  1  0
 20 47  1  0
 21 22  1  6
 21 23  1  0
 22 48  1  0
 22 49  1  0
 22 50  1  0
 23 24  1  1
 23 25  1  0
 25 26  1  0
 25 27  1  0
 25 51  1  6
 26 52  1  0
 27 28  1  0
 27 53  1  0
 27 54  1  0
 28 29  1  6
 29 55  1  0
 29 56  1  0
 29 57  1  0
M  END
>  <i_m_ct_stereo_status>  (243) 
1

>  <s_m_source_file>  (243) 
/var/tmp/pbs.5076255.sched01/tmppvoazpai/72cbyqjt17.sdf

>  <i_m_source_file_index>  (243) 
36

>  <i_lp_mmshare_version>  (243) 
48012

>  <i_f3d_flags>  (243) 
0

>  <s_epik_input>  (243) 
W0NIM11PQyg9TylbQ0BAXShbT0hdKShbQ0gyXVtDSDJdW0NIMl0xKVtDQF0oW0NIM10pKFtDSDJdW0NAQEhdKFtDQF0yM0YpW09IXSlbQ0BIXTFbQ0BIXTJbQ0gyXVtDSF09QyhbQ0BdMzRbQ0gzXSlbQ0BIXShCcilDKD1PKVtDSF09W0NIXTQ=

>  <s_epik_cmdline>  (243) 
J2VwaWtfcHl0aG9uJywgJy1waHQnLCAnMi4wJywgJy1waCcsICc3LjAnLCAnLXRuJywgJzgnLCAnLW1hJywgJzIwMCcsICctaW1hZScsICc8aW5maWxlLm1hZT4nLCAnLW9tYWUnLCAnPG91dGZpbGUubWFlPic=

>  <r_lp_tautomer_probability>  (243) 
1

>  <r_epik_Ionization_Penalty>  (243) 
2.9024e-06

>  <r_epik_Ionization_Penalty_Charging>  (243) 
0

>  <r_epik_Ionization_Penalty_Neutral>  (243) 
2.9024e-06

>  <r_epik_State_Penalty>  (243) 
-0

>  <r_epik_Charging_Adjusted_Penalty>  (243) 
0

>  <i_epik_Tot_Q>  (243) 
0

>  <i_epik_Tot_abs_Q>  (243) 
0

>  <s_epik_Chemistry_Notes>  (243) 
This compound has an ester and may undergo hydrolysis at high or low pH.

>  <s_lp_Force_Field>  (243) 
OPLS3e

>  <r_lp_Energy>  (243) 
45.4617

>  <b_lp_Chiralities_Consistent>  (243) 
1

>  <s_lp_Variant>  (243) 
87:0-1

>  <s_i_glide_gridfile>  (243) 
pfpi4k_grid

>  <i_i_glide_lignum>  (243) 
36

>  <i_i_glide_rotatable_bonds>  (243) 
4

>  <r_i_docking_score>  (243) 
-2.34743

>  <r_i_glide_ligand_efficiency>  (243) 
-0.0809458

>  <r_i_glide_ligand_efficiency_sa>  (243) 
-0.248691

>  <r_i_glide_ligand_efficiency_ln>  (243) 
-0.537502

>  <r_i_glide_gscore>  (243) 
-2.34743

>  <r_i_glide_lipo>  (243) 
-0.318803

>  <r_i_glide_hbond>  (243) 
-0.0603687

>  <r_i_glide_metal>  (243) 
-0

>  <r_i_glide_rewards>  (243) 
-0.377482

>  <r_i_glide_evdw>  (243) 
-24.4147

>  <r_i_glide_ecoul>  (243) 
-2.91937

>  <r_i_glide_erotb>  (243) 
0.0909721

>  <r_i_glide_esite>  (243) 
-0.0231068

>  <r_i_glide_emodel>  (243) 
-32.6225

>  <r_i_glide_energy>  (243) 
-27.3341

>  <r_i_glide_einternal>  (243) 
0.00616211

>  <r_i_glide_intrahb_reward>  (243) 
-0

>  <i_i_glide_confnum>  (243) 
2

>  <i_i_glide_posenum>  (243) 
33

>  <r_i_glide_eff_state_penalty>  (243) 
0

>  <ligand_id>  (243) 
87

>  <original_smiles>  (243) 
COC(=O)C1(O)CCCC2C3CC=C4C(Br)C(=O)C=CC4(C)C3(F)C(O)CC21C

>  <smiles>  (243) 
[H]OC1([H])C([H])([H])C2(C([H])([H])[H])C(O[H])(C(=O)OC([H])([H])[H])C([H])([H])C([H])([H])C([H])([H])C2([H])C2([H])C([H])([H])C([H])=C3C([H])(Br)C(=O)C([H])=C([H])C3(C([H])([H])[H])C12F

$$$$
87:0:2
     RDKit          3D

 57 60  0  0  1  0  0  0  0  0999 V2000
    0.3959   -5.5942    5.7868 C   0  0  0  0  0  0  0  0  0  0  0  0
    1.1934   -6.4516    4.9974 O   0  0  0  0  0  0  0  0  0  0  0  0
    2.2303   -7.1061    5.5276 C   0  0  0  0  0  0  0  0  0  0  0  0
    2.5313   -7.0559    6.7216 O   0  0  0  0  0  0  0  0  0  0  0  0
    3.0381   -7.9626    4.5023 C   0  0  1  0  0  0  0  0  0  0  0  0
    4.1080   -8.5685    5.2123 O   0  0  0  0  0  0  0  0  0  0  0  0
    2.1595   -9.1390    3.9927 C   0  0  0  0  0  0  0  0  0  0  0  0
    1.0893   -8.7139    2.9710 C   0  0  0  0  0  0  0  0  0  0  0  0
    1.6975   -7.9119    1.8058 C   0  0  0  0  0  0  0  0  0  0  0  0
    2.5624   -6.7001    2.2656 C   0  0  2  0  0  0  0  0  0  0  0  0
    3.1129   -5.8196    1.0905 C   0  0  1  0  0  0  0  0  0  0  0  0
    1.9446   -5.3856    0.1977 C   0  0  0  0  0  0  0  0  0  0  0  0
    2.2604   -4.2316   -0.7233 C   0  0  0  0  0  0  0  0  0  0  0  0
    3.4140   -3.5451   -0.7448 C   0  0  0  0  0  0  0  0  0  0  0  0
    3.6053   -2.4838   -1.8362 C   0  0  2  0  0  0  0  0  0  0  0  0
    4.5003   -3.2611   -3.4424 Br  0  0  0  0  0  0  0  0  0  0  0  0
    4.4063   -1.2677   -1.3898 C   0  0  0  0  0  0  0  0  0  0  0  0
    4.6265   -0.3916   -2.2249 O   0  0  0  0  0  0  0  0  0  0  0  0
    4.9191   -1.2100   -0.0168 C   0  0  0  0  0  0  0  0  0  0  0  0
    4.9674   -2.3181    0.7484 C   0  0  0  0  0  0  0  0  0  0  0  0
    4.4929   -3.7223    0.3398 C   0  0  2  0  0  0  0  0  0  0  0  0
    5.6951   -4.4385   -0.3116 C   0  0  0  0  0  0  0  0  0  0  0  0
    3.9292   -4.5667    1.5677 C   0  0  1  0  0  0  0  0  0  0  0  0
    3.0779   -3.7833    2.2408 F   0  0  0  0  0  0  0  0  0  0  0  0
    4.9944   -5.0560    2.5944 C   0  0  1  0  0  0  0  0  0  0  0  0
    5.6937   -3.9976    3.1904 O   0  0  0  0  0  0  0  0  0  0  0  0
    4.4063   -5.8904    3.7493 C   0  0  0  0  0  0  0  0  0  0  0  0
    3.6657   -7.1639    3.2730 C   0  0  1  0  0  0  0  0  0  0  0  0
    4.7016   -8.0786    2.5358 C   0  0  0  0  0  0  0  0  0  0  0  0
   -0.3967   -5.1842    5.1606 H   0  0  0  0  0  0  0  0  0  0  0  0
    0.9941   -4.7660    6.1664 H   0  0  0  0  0  0  0  0  0  0  0  0
   -0.0666   -6.1210    6.6218 H   0  0  0  0  0  0  0  0  0  0  0  0
    4.5810   -9.1272    4.6133 H   0  0  0  0  0  0  0  0  0  0  0  0
    2.7756   -9.9181    3.5423 H   0  0  0  0  0  0  0  0  0  0  0  0
    1.6739   -9.6351    4.8354 H   0  0  0  0  0  0  0  0  0  0  0  0
    0.5771   -9.5971    2.5843 H   0  0  0  0  0  0  0  0  0  0  0  0
    0.3066   -8.1293    3.4521 H   0  0  0  0  0  0  0  0  0  0  0  0
    2.2935   -8.5831    1.1882 H   0  0  0  0  0  0  0  0  0  0  0  0
    0.8652   -7.5840    1.1848 H   0  0  0  0  0  0  0  0  0  0  0  0
    1.8859   -6.0240    2.7838 H   0  0  0  0  0  0  0  0  0  0  0  0
    3.7529   -6.4298    0.4573 H   0  0  0  0  0  0  0  0  0  0  0  0
    1.6188   -6.2108   -0.4359 H   0  0  0  0  0  0  0  0  0  0  0  0
    1.1113   -5.1255    0.8355 H   0  0  0  0  0  0  0  0  0  0  0  0
    1.5216   -4.0317   -1.4817 H   0  0  0  0  0  0  0  0  0  0  0  0
    2.6326   -2.1336   -2.1793 H   0  0  0  0  0  0  0  0  0  0  0  0
    5.2871   -0.2635    0.3517 H   0  0  0  0  0  0  0  0  0  0  0  0
    5.3963   -2.2041    1.7293 H   0  0  0  0  0  0  0  0  0  0  0  0
    6.0863   -3.8791   -1.1642 H   0  0  0  0  0  0  0  0  0  0  0  0
    5.4235   -5.4308   -0.6765 H   0  0  0  0  0  0  0  0  0  0  0  0
    6.5277   -4.5430    0.3767 H   0  0  0  0  0  0  0  0  0  0  0  0
    5.7428   -5.6588    2.0872 H   0  0  0  0  0  0  0  0  0  0  0  0
    5.0600   -3.4239    3.5948 H   0  0  0  0  0  0  0  0  0  0  0  0
    5.2051   -6.1668    4.4391 H   0  0  0  0  0  0  0  0  0  0  0  0
    3.7302   -5.2524    4.3216 H   0  0  0  0  0  0  0  0  0  0  0  0
    5.0753   -7.6445    1.6114 H   0  0  0  0  0  0  0  0  0  0  0  0
    4.2924   -9.0461    2.2493 H   0  0  0  0  0  0  0  0  0  0  0  0
    5.5857   -8.2643    3.1475 H   0  0  0  0  0  0  0  0  0  0  0  0
  1  2  1  0
  1 30  1  0
  1 31  1  0
  1 32  1  0
  2  3  1  0
  3  4  2  0
  3  5  1  0
  5 28  1  0
  5  6  1  1
  5  7  1  0
  6 33  1  0
  7  8  1  0
  7 34  1  0
  7 35  1  0
  8  9  1  0
  8 36  1  0
  8 37  1  0
  9 10  1  0
  9 38  1  0
  9 39  1  0
 10 28  1  0
 10 11  1  0
 10 40  1  1
 11 23  1  0
 11 12  1  0
 11 41  1  6
 12 13  1  0
 12 42  1  0
 12 43  1  0
 13 14  2  0
 13 44  1  0
 14 21  1  0
 14 15  1  0
 15 16  1  0
 15 17  1  0
 15 45  1  6
 17 18  2  0
 17 19  1  0
 19 20  2  0
 19 46  1  0
 20 21  1  0
 20 47  1  0
 21 22  1  6
 21 23  1  0
 22 48  1  0
 22 49  1  0
 22 50  1  0
 23 24  1  1
 23 25  1  0
 25 26  1  0
 25 27  1  0
 25 51  1  6
 26 52  1  0
 27 28  1  0
 27 53  1  0
 27 54  1  0
 28 29  1  6
 29 55  1  0
 29 56  1  0
 29 57  1  0
M  END
>  <i_m_ct_stereo_status>  (244) 
1

>  <s_m_source_file>  (244) 
/var/tmp/pbs.5076255.sched01/tmppvoazpai/72cbyqjt17.sdf

>  <i_m_source_file_index>  (244) 
36

>  <i_lp_mmshare_version>  (244) 
48012

>  <i_f3d_flags>  (244) 
0

>  <s_epik_input>  (244) 
W0NIM11PQyg9TylbQ0BAXShbT0hdKShbQ0gyXVtDSDJdW0NIMl0xKVtDQF0oW0NIM10pKFtDSDJdW0NAQEhdKFtDQF0yM0YpW09IXSlbQ0BIXTFbQ0BIXTJbQ0gyXVtDSF09QyhbQ0BdMzRbQ0gzXSlbQ0BIXShCcilDKD1PKVtDSF09W0NIXTQ=

>  <s_epik_cmdline>  (244) 
J2VwaWtfcHl0aG9uJywgJy1waHQnLCAnMi4wJywgJy1waCcsICc3LjAnLCAnLXRuJywgJzgnLCAnLW1hJywgJzIwMCcsICctaW1hZScsICc8aW5maWxlLm1hZT4nLCAnLW9tYWUnLCAnPG91dGZpbGUubWFlPic=

>  <r_lp_tautomer_probability>  (244) 
1

>  <r_epik_Ionization_Penalty>  (244) 
2.9024e-06

>  <r_epik_Ionization_Penalty_Charging>  (244) 
0

>  <r_epik_Ionization_Penalty_Neutral>  (244) 
2.9024e-06

>  <r_epik_State_Penalty>  (244) 
-0

>  <r_epik_Charging_Adjusted_Penalty>  (244) 
0

>  <i_epik_Tot_Q>  (244) 
0

>  <i_epik_Tot_abs_Q>  (244) 
0

>  <s_epik_Chemistry_Notes>  (244) 
This compound has an ester and may undergo hydrolysis at high or low pH.

>  <s_lp_Force_Field>  (244) 
OPLS3e

>  <r_lp_Energy>  (244) 
45.4617

>  <b_lp_Chiralities_Consistent>  (244) 
1

>  <s_lp_Variant>  (244) 
87:0-1

>  <s_i_glide_gridfile>  (244) 
pfpi4k_grid

>  <i_i_glide_lignum>  (244) 
36

>  <i_i_glide_rotatable_bonds>  (244) 
4

>  <r_i_docking_score>  (244) 
-1.90416

>  <r_i_glide_ligand_efficiency>  (244) 
-0.0656609

>  <r_i_glide_ligand_efficiency_sa>  (244) 
-0.201731

>  <r_i_glide_ligand_efficiency_ln>  (244) 
-0.436005

>  <r_i_glide_gscore>  (244) 
-1.90416

>  <r_i_glide_lipo>  (244) 
-0.34606

>  <r_i_glide_hbond>  (244) 
0

>  <r_i_glide_metal>  (244) 
-0

>  <r_i_glide_rewards>  (244) 
-0.195292

>  <r_i_glide_evdw>  (244) 
-25.4912

>  <r_i_glide_ecoul>  (244) 
-0.886285

>  <r_i_glide_erotb>  (244) 
0.0909721

>  <r_i_glide_esite>  (244) 
-0.0462829

>  <r_i_glide_emodel>  (244) 
-30.7147

>  <r_i_glide_energy>  (244) 
-26.3775

>  <r_i_glide_einternal>  (244) 
0.198201

>  <r_i_glide_intrahb_reward>  (244) 
-0

>  <i_i_glide_confnum>  (244) 
1

>  <i_i_glide_posenum>  (244) 
1

>  <r_i_glide_eff_state_penalty>  (244) 
0

>  <ligand_id>  (244) 
87

>  <original_smiles>  (244) 
COC(=O)C1(O)CCCC2C3CC=C4C(Br)C(=O)C=CC4(C)C3(F)C(O)CC21C

>  <smiles>  (244) 
[H]OC1([H])C([H])([H])C2(C([H])([H])[H])C(O[H])(C(=O)OC([H])([H])[H])C([H])([H])C([H])([H])C([H])([H])C2([H])C2([H])C([H])([H])C([H])=C3C([H])(Br)C(=O)C([H])=C([H])C3(C([H])([H])[H])C12F

$$$$
88:0:0
     RDKit          3D

 75 81  0  0  1  0  0  0  0  0999 V2000
   -0.9249   -8.9185    2.9935 C   0  0  0  0  0  0  0  0  0  0  0  0
    0.2833   -8.6012    3.9271 C   0  0  0  0  0  0  0  0  0  0  0  0
   -0.2767   -8.8675    5.3498 C   0  0  0  0  0  0  0  0  0  0  0  0
    1.2271   -9.5773    3.4689 O   0  0  0  0  0  0  0  0  0  0  0  0
    2.6302   -9.5217    3.7593 C   0  0  2  0  0  0  0  0  0  0  0  0
    2.8231   -9.8713    5.2337 C   0  0  1  0  0  0  0  0  0  0  0  0
    4.0193  -10.6003    5.4112 O   0  0  0  0  0  0  0  0  0  0  0  0
    2.7732   -8.6249    6.1358 C   0  0  0  0  0  0  0  0  0  0  0  0
    3.0347   -7.2255    5.4591 C   0  0  2  0  0  0  0  0  0  0  0  0
    3.5594   -6.4063    6.6890 C   0  0  0  0  0  0  0  0  0  0  0  0
    1.7573   -6.4983    4.8499 C   0  0  2  0  0  0  0  0  0  0  0  0
    0.8562   -7.1616    3.7016 C   0  0  1  0  0  0  0  0  0  0  0  0
    1.3811   -7.0920    2.2351 C   0  0  1  0  0  0  0  0  0  0  0  0
    1.1298   -5.8791    1.5720 O   0  0  0  0  0  0  0  0  0  0  0  0
    2.7957   -7.6353    2.0052 C   0  0  0  0  0  0  0  0  0  0  0  0
    3.4722   -8.2982    3.2220 C   0  0  1  0  0  0  0  0  0  0  0  0
    4.0958   -7.3267    4.3172 C   0  0  2  0  0  0  0  0  0  0  0  0
    5.4203   -7.9667    4.8859 C   0  0  0  0  0  0  0  0  0  0  0  0
    4.5189   -5.8585    3.8262 C   0  0  1  0  0  0  0  0  0  0  0  0
    5.6090   -5.7147    2.6992 C   0  0  1  0  0  0  0  0  0  0  0  0
    6.1078   -6.9541    2.2174 O   0  0  0  0  0  0  0  0  0  0  0  0
    5.2067   -4.8009    1.5417 C   0  0  0  0  0  0  0  0  0  0  0  0
    3.9821   -4.2429    1.4447 C   0  0  0  0  0  0  0  0  0  0  0  0
    3.6223   -3.4526    0.2932 C   0  0  0  0  0  0  0  0  0  0  0  0
    4.5132   -3.2633   -0.6955 C   0  0  0  0  0  0  0  0  0  0  0  0
    4.2039   -2.4603   -1.8838 C   0  0  0  0  0  0  0  0  0  0  0  0
    3.9965   -3.0655   -3.1339 C   0  0  0  0  0  0  0  0  0  0  0  0
    3.8085   -2.3341   -4.2547 N   0  0  0  0  0  0  0  0  0  0  0  0
    3.8087   -1.0120   -4.1164 C   0  0  0  0  0  0  0  0  0  0  0  0
    4.0474   -0.3369   -2.9999 N   0  0  0  0  0  0  0  0  0  0  0  0
    4.2160   -1.0550   -1.8677 C   0  0  0  0  0  0  0  0  0  0  0  0
    5.7846   -3.7875   -0.6066 O   0  0  0  0  0  0  0  0  0  0  0  0
    6.2145   -4.5410    0.4734 C   0  0  0  0  0  0  0  0  0  0  0  0
    7.3725   -4.9545    0.5243 O   0  0  0  0  0  0  0  0  0  0  0  0
    3.0308   -4.4140    2.4200 O   0  0  0  0  0  0  0  0  0  0  0  0
    3.4365   -4.7176    3.7604 C   0  0  2  0  0  0  0  0  0  0  0  0
    4.0280   -3.3758    4.2901 C   0  0  0  0  0  0  0  0  0  0  0  0
    2.1256   -5.0103    4.5650 C   0  0  1  0  0  0  0  0  0  0  0  0
    1.0265   -4.2536    4.0918 O   0  0  0  0  0  0  0  0  0  0  0  0
   -1.6836   -8.1364    3.0187 H   0  0  0  0  0  0  0  0  0  0  0  0
   -1.4126   -9.8503    3.2807 H   0  0  0  0  0  0  0  0  0  0  0  0
   -0.6574   -9.0967    1.9561 H   0  0  0  0  0  0  0  0  0  0  0  0
   -0.1036   -8.0789    6.0745 H   0  0  0  0  0  0  0  0  0  0  0  0
    0.0643   -9.8145    5.7613 H   0  0  0  0  0  0  0  0  0  0  0  0
   -1.3620   -8.9625    5.3409 H   0  0  0  0  0  0  0  0  0  0  0  0
    2.9843  -10.3880    3.1961 H   0  0  0  0  0  0  0  0  0  0  0  0
    2.0603  -10.5919    5.5428 H   0  0  0  0  0  0  0  0  0  0  0  0
    3.8961  -11.1890    6.1460 H   0  0  0  0  0  0  0  0  0  0  0  0
    1.8411   -8.5957    6.6769 H   0  0  0  0  0  0  0  0  0  0  0  0
    3.4720   -8.8129    6.9630 H   0  0  0  0  0  0  0  0  0  0  0  0
    3.9172   -5.4051    6.4730 H   0  0  0  0  0  0  0  0  0  0  0  0
    4.4025   -6.8867    7.1833 H   0  0  0  0  0  0  0  0  0  0  0  0
    2.7788   -6.3005    7.4450 H   0  0  0  0  0  0  0  0  0  0  0  0
    1.0706   -6.4028    5.6890 H   0  0  0  0  0  0  0  0  0  0  0  0
   -0.0431   -6.5488    3.7084 H   0  0  0  0  0  0  0  0  0  0  0  0
    0.7670   -7.7188    1.6021 H   0  0  0  0  0  0  0  0  0  0  0  0
    1.7639   -5.2393    1.9105 H   0  0  0  0  0  0  0  0  0  0  0  0
    2.7227   -8.3923    1.2205 H   0  0  0  0  0  0  0  0  0  0  0  0
    3.4312   -6.8742    1.5688 H   0  0  0  0  0  0  0  0  0  0  0  0
    4.3275   -8.7840    2.7579 H   0  0  0  0  0  0  0  0  0  0  0  0
    5.8816   -8.6760    4.1996 H   0  0  0  0  0  0  0  0  0  0  0  0
    5.3033   -8.5044    5.8208 H   0  0  0  0  0  0  0  0  0  0  0  0
    6.1964   -7.2359    5.1086 H   0  0  0  0  0  0  0  0  0  0  0  0
    5.1005   -5.5178    4.6810 H   0  0  0  0  0  0  0  0  0  0  0  0
    6.4828   -5.2350    3.1482 H   0  0  0  0  0  0  0  0  0  0  0  0
    5.3883   -7.4667    1.8722 H   0  0  0  0  0  0  0  0  0  0  0  0
    2.6320   -3.0280    0.2345 H   0  0  0  0  0  0  0  0  0  0  0  0
    4.0284   -4.1407   -3.2496 H   0  0  0  0  0  0  0  0  0  0  0  0
    3.6678   -0.4384   -5.0137 H   0  0  0  0  0  0  0  0  0  0  0  0
    4.4161   -0.4910   -0.9647 H   0  0  0  0  0  0  0  0  0  0  0  0
    4.2839   -3.4259    5.3474 H   0  0  0  0  0  0  0  0  0  0  0  0
    3.3161   -2.5573    4.1781 H   0  0  0  0  0  0  0  0  0  0  0  0
    4.9368   -3.0782    3.7668 H   0  0  0  0  0  0  0  0  0  0  0  0
    2.2432   -4.5489    5.5416 H   0  0  0  0  0  0  0  0  0  0  0  0
    1.2845   -3.3415    4.0474 H   0  0  0  0  0  0  0  0  0  0  0  0
  1  2  1  0
  1 40  1  0
  1 41  1  0
  1 42  1  0
  2 12  1  0
  2  3  1  0
  2  4  1  0
  3 43  1  0
  3 44  1  0
  3 45  1  0
  4  5  1  0
  5 16  1  0
  5  6  1  0
  5 46  1  6
  6  7  1  0
  6  8  1  0
  6 47  1  1
  7 48  1  0
  8  9  1  0
  8 49  1  0
  8 50  1  0
  9 17  1  0
  9 10  1  1
  9 11  1  0
 10 51  1  0
 10 52  1  0
 10 53  1  0
 11 38  1  0
 11 12  1  0
 11 54  1  1
 12 13  1  0
 12 55  1  6
 13 14  1  0
 13 15  1  0
 13 56  1  6
 14 57  1  0
 15 16  1  0
 15 58  1  0
 15 59  1  0
 16 17  1  0
 16 60  1  6
 17 18  1  1
 17 19  1  0
 18 61  1  0
 18 62  1  0
 18 63  1  0
 19 36  1  0
 19 20  1  0
 19 64  1  1
 20 21  1  0
 20 22  1  0
 20 65  1  1
 21 66  1  0
 22 33  1  0
 22 23  2  0
 23 24  1  0
 23 35  1  0
 24 25  2  0
 24 67  1  0
 25 26  1  0
 25 32  1  0
 26 31  1  0
 26 27  2  0
 27 28  1  0
 27 68  1  0
 28 29  2  0
 29 30  1  0
 29 69  1  0
 30 31  2  0
 31 70  1  0
 32 33  1  0
 33 34  2  0
 35 36  1  0
 36 37  1  1
 36 38  1  0
 37 71  1  0
 37 72  1  0
 37 73  1  0
 38 39  1  0
 38 74  1  1
 39 75  1  0
M  END
>  <i_m_ct_stereo_status>  (245) 
1

>  <s_m_source_file>  (245) 
/var/tmp/pbs.5076255.sched01/tmp_gsyjirk/108c9vsds16.sdf

>  <i_m_source_file_index>  (245) 
1

>  <i_lp_mmshare_version>  (245) 
48012

>  <i_f3d_flags>  (245) 
0

>  <s_epik_input>  (245) 
W0NIM11bQ0BdMTJbQ0BASF0zW0NAQEhdNEMoW0NIM10pKFtDSDNdKU9bQ0BIXShbQ0BASF0oW09IXSlbQ0gyXTEpW0NAQEhdKFtDSDJdW0NAQEhdNFtPSF0pW0NAQF0yKFtDSDNdKVtDQEBIXTVbQ0BdKFtDSDNdKShbQ0BIXTNbT0hdKU9jNmMoW0NAQEhdNVtPSF0pYyg9TylvYyhbY0hdNiktYzdbY0hdbltjSF1uW2NIXTc=

>  <s_epik_cmdline>  (245) 
J2VwaWtfcHl0aG9uJywgJy1waHQnLCAnMi4wJywgJy1waCcsICc3LjAnLCAnLXRuJywgJzgnLCAnLW1hJywgJzIwMCcsICctaW1hZScsICc8aW5maWxlLm1hZT4nLCAnLW9tYWUnLCAnPG91dGZpbGUubWFlPic=

>  <r_lp_tautomer_probability>  (245) 
1

>  <r_epik_Ionization_Penalty>  (245) 
1.51877e-06

>  <r_epik_Ionization_Penalty_Charging>  (245) 
0

>  <r_epik_Ionization_Penalty_Neutral>  (245) 
1.51877e-06

>  <r_epik_State_Penalty>  (245) 
-0

>  <r_epik_Charging_Adjusted_Penalty>  (245) 
0

>  <i_epik_Tot_Q>  (245) 
0

>  <i_epik_Tot_abs_Q>  (245) 
0

>  <s_lp_Force_Field>  (245) 
OPLS3e

>  <r_lp_Energy>  (245) 
125.9

>  <b_lp_Chiralities_Consistent>  (245) 
1

>  <s_lp_Variant>  (245) 
88:0-1

>  <s_i_glide_gridfile>  (245) 
pfpi4k_grid

>  <i_i_glide_lignum>  (245) 
1

>  <i_i_glide_rotatable_bonds>  (245) 
5

>  <r_i_docking_score>  (245) 
-4.13514

>  <r_i_glide_ligand_efficiency>  (245) 
-0.106029

>  <r_i_glide_ligand_efficiency_sa>  (245) 
-0.359568

>  <r_i_glide_ligand_efficiency_ln>  (245) 
-0.886692

>  <r_i_glide_gscore>  (245) 
-4.13514

>  <r_i_glide_lipo>  (245) 
-0.285246

>  <r_i_glide_hbond>  (245) 
-0.32

>  <r_i_glide_metal>  (245) 
-0

>  <r_i_glide_rewards>  (245) 
-0.6375

>  <r_i_glide_evdw>  (245) 
-37.9252

>  <r_i_glide_ecoul>  (245) 
-7.11253

>  <r_i_glide_erotb>  (245) 
0.0707451

>  <r_i_glide_esite>  (245) 
0

>  <r_i_glide_emodel>  (245) 
-58.9942

>  <r_i_glide_energy>  (245) 
-45.0377

>  <r_i_glide_einternal>  (245) 
5.74647

>  <r_i_glide_intrahb_reward>  (245) 
-0.5

>  <i_i_glide_confnum>  (245) 
1

>  <i_i_glide_posenum>  (245) 
11

>  <r_i_glide_eff_state_penalty>  (245) 
0

>  <ligand_id>  (245) 
88

>  <original_smiles>  (245) 
CC1(C)OC2C(O)CC3(C)C4C1C(O)CC2C3(C)C1C(O)c2c(cc(-c3cncnc3)oc2=O)OC1(C)C4O

>  <smiles>  (245) 
[H]OC1([H])c2c(c([H])c(-c3c([H])nc([H])nc3[H])oc2=O)OC2(C([H])([H])[H])C([H])(O[H])C3([H])C4([H])C([H])(O[H])C([H])([H])C5([H])C([H])(OC4(C([H])([H])[H])C([H])([H])[H])C([H])(O[H])C([H])([H])C3(C([H])([H])[H])C5(C([H])([H])[H])C12[H]

$$$$
88:0:1
     RDKit          3D

 75 81  0  0  1  0  0  0  0  0999 V2000
    4.1575   -3.6381    1.4578 C   0  0  0  0  0  0  0  0  0  0  0  0
    4.1268   -5.1893    1.5749 C   0  0  0  0  0  0  0  0  0  0  0  0
    4.1215   -5.6458    0.0897 C   0  0  0  0  0  0  0  0  0  0  0  0
    5.3649   -5.4211    2.2622 O   0  0  0  0  0  0  0  0  0  0  0  0
    5.6791   -6.6580    2.9217 C   0  0  2  0  0  0  0  0  0  0  0  0
    5.9556   -7.7168    1.8561 C   0  0  1  0  0  0  0  0  0  0  0  0
    6.9806   -8.6000    2.2801 O   0  0  0  0  0  0  0  0  0  0  0  0
    4.6769   -8.4707    1.4487 C   0  0  0  0  0  0  0  0  0  0  0  0
    3.4668   -8.4535    2.4575 C   0  0  2  0  0  0  0  0  0  0  0  0
    2.7373   -9.7842    2.0617 C   0  0  0  0  0  0  0  0  0  0  0  0
    2.4561   -7.2342    2.2992 C   0  0  2  0  0  0  0  0  0  0  0  0
    2.9236   -5.7067    2.4453 C   0  0  1  0  0  0  0  0  0  0  0  0
    3.1081   -5.1488    3.8887 C   0  0  1  0  0  0  0  0  0  0  0  0
    1.9155   -4.7340    4.5161 O   0  0  0  0  0  0  0  0  0  0  0  0
    4.0529   -5.9422    4.8025 C   0  0  0  0  0  0  0  0  0  0  0  0
    4.7900   -7.1265    4.1426 C   0  0  1  0  0  0  0  0  0  0  0  0
    3.9552   -8.4674    3.9431 C   0  0  2  0  0  0  0  0  0  0  0  0
    4.9002   -9.7087    4.1732 C   0  0  0  0  0  0  0  0  0  0  0  0
    2.7094   -8.7019    4.9307 C   0  0  1  0  0  0  0  0  0  0  0  0
    2.9745   -8.7975    6.4791 C   0  0  1  0  0  0  0  0  0  0  0  0
    4.3372   -8.6307    6.8405 O   0  0  0  0  0  0  0  0  0  0  0  0
    2.0836   -7.8889    7.3176 C   0  0  0  0  0  0  0  0  0  0  0  0
    1.2071   -7.0187    6.7764 C   0  0  0  0  0  0  0  0  0  0  0  0
    0.4398   -6.1273    7.6041 C   0  0  0  0  0  0  0  0  0  0  0  0
    0.5597   -6.1816    8.9411 C   0  0  0  0  0  0  0  0  0  0  0  0
   -0.1813   -5.3145    9.8828 C   0  0  0  0  0  0  0  0  0  0  0  0
   -0.0838   -5.5173   11.2760 C   0  0  0  0  0  0  0  0  0  0  0  0
   -0.7574   -4.7523   12.1579 N   0  0  0  0  0  0  0  0  0  0  0  0
   -1.5076   -3.7737   11.6601 C   0  0  0  0  0  0  0  0  0  0  0  0
   -1.6733   -3.4801   10.3698 N   0  0  0  0  0  0  0  0  0  0  0  0
   -1.0208   -4.2559    9.4781 C   0  0  0  0  0  0  0  0  0  0  0  0
    1.4271   -7.0788    9.5207 O   0  0  0  0  0  0  0  0  0  0  0  0
    2.2097   -7.9582    8.8071 C   0  0  0  0  0  0  0  0  0  0  0  0
    2.9559   -8.7380    9.3980 O   0  0  0  0  0  0  0  0  0  0  0  0
    1.0052   -6.9287    5.4224 O   0  0  0  0  0  0  0  0  0  0  0  0
    1.3139   -8.0484    4.5888 C   0  0  2  0  0  0  0  0  0  0  0  0
    0.1626   -9.0543    4.8822 C   0  0  0  0  0  0  0  0  0  0  0  0
    1.1589   -7.5643    3.1040 C   0  0  1  0  0  0  0  0  0  0  0  0
    0.1386   -6.5879    2.9669 O   0  0  0  0  0  0  0  0  0  0  0  0
    3.1880   -3.2305    1.1677 H   0  0  0  0  0  0  0  0  0  0  0  0
    4.8805   -3.3172    0.7064 H   0  0  0  0  0  0  0  0  0  0  0  0
    4.4808   -3.1267    2.3618 H   0  0  0  0  0  0  0  0  0  0  0  0
    3.3623   -6.3829   -0.1377 H   0  0  0  0  0  0  0  0  0  0  0  0
    5.0846   -6.0304   -0.2362 H   0  0  0  0  0  0  0  0  0  0  0  0
    3.8900   -4.8330   -0.6010 H   0  0  0  0  0  0  0  0  0  0  0  0
    6.6463   -6.4001    3.3569 H   0  0  0  0  0  0  0  0  0  0  0  0
    6.3946   -7.2390    0.9808 H   0  0  0  0  0  0  0  0  0  0  0  0
    7.7916   -8.1163    2.3460 H   0  0  0  0  0  0  0  0  0  0  0  0
    4.3409   -8.1471    0.4733 H   0  0  0  0  0  0  0  0  0  0  0  0
    4.9925   -9.4923    1.2172 H   0  0  0  0  0  0  0  0  0  0  0  0
    1.8985  -10.0722    2.6873 H   0  0  0  0  0  0  0  0  0  0  0  0
    3.3994  -10.6487    2.0889 H   0  0  0  0  0  0  0  0  0  0  0  0
    2.3564   -9.7251    1.0400 H   0  0  0  0  0  0  0  0  0  0  0  0
    2.1075   -7.2986    1.2696 H   0  0  0  0  0  0  0  0  0  0  0  0
    2.0797   -5.1484    2.0385 H   0  0  0  0  0  0  0  0  0  0  0  0
    3.5738   -4.1746    3.8371 H   0  0  0  0  0  0  0  0  0  0  0  0
    1.4112   -5.5134    4.7287 H   0  0  0  0  0  0  0  0  0  0  0  0
    4.8100   -5.2437    5.1654 H   0  0  0  0  0  0  0  0  0  0  0  0
    3.5413   -6.2491    5.7065 H   0  0  0  0  0  0  0  0  0  0  0  0
    5.5307   -7.3711    4.9021 H   0  0  0  0  0  0  0  0  0  0  0  0
    5.7620   -9.4819    4.8001 H   0  0  0  0  0  0  0  0  0  0  0  0
    5.3070  -10.1498    3.2684 H   0  0  0  0  0  0  0  0  0  0  0  0
    4.4046  -10.5476    4.6601 H   0  0  0  0  0  0  0  0  0  0  0  0
    2.4821   -9.7468    4.7249 H   0  0  0  0  0  0  0  0  0  0  0  0
    2.7244   -9.8123    6.7976 H   0  0  0  0  0  0  0  0  0  0  0  0
    4.6440   -7.8001    6.5118 H   0  0  0  0  0  0  0  0  0  0  0  0
   -0.2279   -5.4333    7.1159 H   0  0  0  0  0  0  0  0  0  0  0  0
    0.5254   -6.3068   11.6922 H   0  0  0  0  0  0  0  0  0  0  0  0
   -2.0394   -3.1674   12.3771 H   0  0  0  0  0  0  0  0  0  0  0  0
   -1.1746   -3.9975    8.4396 H   0  0  0  0  0  0  0  0  0  0  0  0
    0.2000   -9.9316    4.2349 H   0  0  0  0  0  0  0  0  0  0  0  0
   -0.8151   -8.5952    4.7297 H   0  0  0  0  0  0  0  0  0  0  0  0
    0.1781   -9.4287    5.9061 H   0  0  0  0  0  0  0  0  0  0  0  0
    0.6784   -8.3722    2.5563 H   0  0  0  0  0  0  0  0  0  0  0  0
   -0.6083   -6.9040    3.4545 H   0  0  0  0  0  0  0  0  0  0  0  0
  1  2  1  0
  1 40  1  0
  1 41  1  0
  1 42  1  0
  2 12  1  0
  2  3  1  0
  2  4  1  0
  3 43  1  0
  3 44  1  0
  3 45  1  0
  4  5  1  0
  5 16  1  0
  5  6  1  0
  5 46  1  1
  6  7  1  0
  6  8  1  0
  6 47  1  6
  7 48  1  0
  8  9  1  0
  8 49  1  0
  8 50  1  0
  9 17  1  0
  9 10  1  6
  9 11  1  0
 10 51  1  0
 10 52  1  0
 10 53  1  0
 11 38  1  0
 11 12  1  0
 11 54  1  6
 12 13  1  0
 12 55  1  6
 13 14  1  0
 13 15  1  0
 13 56  1  6
 14 57  1  0
 15 16  1  0
 15 58  1  0
 15 59  1  0
 16 17  1  0
 16 60  1  1
 17 18  1  6
 17 19  1  0
 18 61  1  0
 18 62  1  0
 18 63  1  0
 19 36  1  0
 19 20  1  0
 19 64  1  6
 20 21  1  0
 20 22  1  0
 20 65  1  1
 21 66  1  0
 22 33  1  0
 22 23  2  0
 23 24  1  0
 23 35  1  0
 24 25  2  0
 24 67  1  0
 25 26  1  0
 25 32  1  0
 26 31  1  0
 26 27  2  0
 27 28  1  0
 27 68  1  0
 28 29  2  0
 29 30  1  0
 29 69  1  0
 30 31  2  0
 31 70  1  0
 32 33  1  0
 33 34  2  0
 35 36  1  0
 36 37  1  1
 36 38  1  0
 37 71  1  0
 37 72  1  0
 37 73  1  0
 38 39  1  0
 38 74  1  6
 39 75  1  0
M  END
>  <i_m_ct_stereo_status>  (246) 
1

>  <s_m_source_file>  (246) 
/var/tmp/pbs.5076255.sched01/tmp_gsyjirk/108c9vsds16.sdf

>  <i_m_source_file_index>  (246) 
1

>  <i_lp_mmshare_version>  (246) 
48012

>  <i_f3d_flags>  (246) 
0

>  <s_epik_input>  (246) 
W0NIM11bQ0BdMTJbQ0BASF0zW0NAQEhdNEMoW0NIM10pKFtDSDNdKU9bQ0BIXShbQ0BASF0oW09IXSlbQ0gyXTEpW0NAQEhdKFtDSDJdW0NAQEhdNFtPSF0pW0NAQF0yKFtDSDNdKVtDQEBIXTVbQ0BdKFtDSDNdKShbQ0BIXTNbT0hdKU9jNmMoW0NAQEhdNVtPSF0pYyg9TylvYyhbY0hdNiktYzdbY0hdbltjSF1uW2NIXTc=

>  <s_epik_cmdline>  (246) 
J2VwaWtfcHl0aG9uJywgJy1waHQnLCAnMi4wJywgJy1waCcsICc3LjAnLCAnLXRuJywgJzgnLCAnLW1hJywgJzIwMCcsICctaW1hZScsICc8aW5maWxlLm1hZT4nLCAnLW9tYWUnLCAnPG91dGZpbGUubWFlPic=

>  <r_lp_tautomer_probability>  (246) 
1

>  <r_epik_Ionization_Penalty>  (246) 
1.51877e-06

>  <r_epik_Ionization_Penalty_Charging>  (246) 
0

>  <r_epik_Ionization_Penalty_Neutral>  (246) 
1.51877e-06

>  <r_epik_State_Penalty>  (246) 
-0

>  <r_epik_Charging_Adjusted_Penalty>  (246) 
0

>  <i_epik_Tot_Q>  (246) 
0

>  <i_epik_Tot_abs_Q>  (246) 
0

>  <s_lp_Force_Field>  (246) 
OPLS3e

>  <r_lp_Energy>  (246) 
125.9

>  <b_lp_Chiralities_Consistent>  (246) 
1

>  <s_lp_Variant>  (246) 
88:0-1

>  <s_i_glide_gridfile>  (246) 
pfpi4k_grid

>  <i_i_glide_lignum>  (246) 
1

>  <i_i_glide_rotatable_bonds>  (246) 
5

>  <r_i_docking_score>  (246) 
-2.54947

>  <r_i_glide_ligand_efficiency>  (246) 
-0.065371

>  <r_i_glide_ligand_efficiency_sa>  (246) 
-0.221687

>  <r_i_glide_ligand_efficiency_ln>  (246) 
-0.546678

>  <r_i_glide_gscore>  (246) 
-2.54947

>  <r_i_glide_lipo>  (246) 
-0.105898

>  <r_i_glide_hbond>  (246) 
-0.0494887

>  <r_i_glide_metal>  (246) 
-0

>  <r_i_glide_rewards>  (246) 
-0.5

>  <r_i_glide_evdw>  (246) 
-28.9336

>  <r_i_glide_ecoul>  (246) 
-3.30717

>  <r_i_glide_erotb>  (246) 
0.0707451

>  <r_i_glide_esite>  (246) 
-0.0220696

>  <r_i_glide_emodel>  (246) 
-44.2579

>  <r_i_glide_energy>  (246) 
-32.2408

>  <r_i_glide_einternal>  (246) 
0.822235

>  <r_i_glide_intrahb_reward>  (246) 
-0.5

>  <i_i_glide_confnum>  (246) 
1

>  <i_i_glide_posenum>  (246) 
3

>  <r_i_glide_eff_state_penalty>  (246) 
0

>  <ligand_id>  (246) 
88

>  <original_smiles>  (246) 
CC1(C)OC2C(O)CC3(C)C4C1C(O)CC2C3(C)C1C(O)c2c(cc(-c3cncnc3)oc2=O)OC1(C)C4O

>  <smiles>  (246) 
[H]OC1([H])c2c(c([H])c(-c3c([H])nc([H])nc3[H])oc2=O)OC2(C([H])([H])[H])C([H])(O[H])C3([H])C4([H])C([H])(O[H])C([H])([H])C5([H])C([H])(OC4(C([H])([H])[H])C([H])([H])[H])C([H])(O[H])C([H])([H])C3(C([H])([H])[H])C5(C([H])([H])[H])C12[H]

$$$$
88:0:2
     RDKit          3D

 75 81  0  0  1  0  0  0  0  0999 V2000
    5.6721   -7.0388    1.3185 C   0  0  0  0  0  0  0  0  0  0  0  0
    4.6897   -8.0266    2.0155 C   0  0  0  0  0  0  0  0  0  0  0  0
    4.6955   -9.2487    1.0621 C   0  0  0  0  0  0  0  0  0  0  0  0
    5.3763   -8.2388    3.2559 O   0  0  0  0  0  0  0  0  0  0  0  0
    4.7449   -8.8049    4.4162 C   0  0  2  0  0  0  0  0  0  0  0  0
    4.5287  -10.2967    4.1701 C   0  0  1  0  0  0  0  0  0  0  0  0
    4.7070  -11.0110    5.3771 O   0  0  0  0  0  0  0  0  0  0  0  0
    3.1675  -10.5829    3.5151 C   0  0  0  0  0  0  0  0  0  0  0  0
    2.0445   -9.4892    3.6640 C   0  0  2  0  0  0  0  0  0  0  0  0
    0.7615  -10.3804    3.5263 C   0  0  0  0  0  0  0  0  0  0  0  0
    2.0263   -8.3576    2.5420 C   0  0  2  0  0  0  0  0  0  0  0  0
    3.2781   -7.3907    2.2754 C   0  0  1  0  0  0  0  0  0  0  0  0
    3.4809   -6.1901    3.2463 C   0  0  1  0  0  0  0  0  0  0  0  0
    2.7133   -5.0471    2.9461 O   0  0  0  0  0  0  0  0  0  0  0  0
    3.5476   -6.5345    4.7395 C   0  0  0  0  0  0  0  0  0  0  0  0
    3.5357   -8.0377    5.0846 C   0  0  1  0  0  0  0  0  0  0  0  0
    2.1229   -8.7687    5.0501 C   0  0  2  0  0  0  0  0  0  0  0  0
    2.0656   -9.8388    6.2050 C   0  0  0  0  0  0  0  0  0  0  0  0
    0.8236   -7.8488    5.2707 C   0  0  1  0  0  0  0  0  0  0  0  0
    0.6705   -7.0616    6.6247 C   0  0  1  0  0  0  0  0  0  0  0  0
    1.7688   -7.2327    7.5035 O   0  0  0  0  0  0  0  0  0  0  0  0
    0.3630   -5.5781    6.4521 C   0  0  0  0  0  0  0  0  0  0  0  0
    0.3120   -4.9782    5.2513 C   0  0  0  0  0  0  0  0  0  0  0  0
    0.1090   -3.5558    5.1351 C   0  0  0  0  0  0  0  0  0  0  0  0
   -0.0593   -2.8113    6.2375 C   0  0  0  0  0  0  0  0  0  0  0  0
   -0.3347   -1.3651    6.2109 C   0  0  0  0  0  0  0  0  0  0  0  0
    0.1869   -0.5359    7.2231 C   0  0  0  0  0  0  0  0  0  0  0  0
   -0.0828    0.7838    7.2676 N   0  0  0  0  0  0  0  0  0  0  0  0
   -0.8212    1.2845    6.2788 C   0  0  0  0  0  0  0  0  0  0  0  0
   -1.3605    0.6020    5.2715 N   0  0  0  0  0  0  0  0  0  0  0  0
   -1.1020   -0.7218    5.2119 C   0  0  0  0  0  0  0  0  0  0  0  0
   -0.0784   -3.4052    7.4788 O   0  0  0  0  0  0  0  0  0  0  0  0
    0.1237   -4.7597    7.6826 C   0  0  0  0  0  0  0  0  0  0  0  0
    0.0753   -5.2310    8.8180 O   0  0  0  0  0  0  0  0  0  0  0  0
    0.4438   -5.6728    4.0731 O   0  0  0  0  0  0  0  0  0  0  0  0
    0.1979   -7.0795    4.0422 C   0  0  2  0  0  0  0  0  0  0  0  0
   -1.3545   -7.1780    4.0847 C   0  0  0  0  0  0  0  0  0  0  0  0
    0.6653   -7.5947    2.6341 C   0  0  1  0  0  0  0  0  0  0  0  0
    0.4633   -6.6368    1.6025 O   0  0  0  0  0  0  0  0  0  0  0  0
    5.2262   -6.5691    0.4410 H   0  0  0  0  0  0  0  0  0  0  0  0
    6.5741   -7.5568    0.9880 H   0  0  0  0  0  0  0  0  0  0  0  0
    6.0560   -6.2532    1.9646 H   0  0  0  0  0  0  0  0  0  0  0  0
    3.7113   -9.6226    0.7973 H   0  0  0  0  0  0  0  0  0  0  0  0
    5.2838  -10.0790    1.4505 H   0  0  0  0  0  0  0  0  0  0  0  0
    5.1370   -9.0139    0.0943 H   0  0  0  0  0  0  0  0  0  0  0  0
    5.5630   -8.7334    5.1339 H   0  0  0  0  0  0  0  0  0  0  0  0
    5.3276  -10.6840    3.5356 H   0  0  0  0  0  0  0  0  0  0  0  0
    4.3898  -11.8937    5.2456 H   0  0  0  0  0  0  0  0  0  0  0  0
    3.2977  -10.8303    2.4686 H   0  0  0  0  0  0  0  0  0  0  0  0
    2.8401  -11.5529    3.9027 H   0  0  0  0  0  0  0  0  0  0  0  0
   -0.1846   -9.8763    3.6971 H   0  0  0  0  0  0  0  0  0  0  0  0
    0.7474  -11.2092    4.2338 H   0  0  0  0  0  0  0  0  0  0  0  0
    0.7037  -10.8215    2.5286 H   0  0  0  0  0  0  0  0  0  0  0  0
    1.9228   -8.9079    1.6080 H   0  0  0  0  0  0  0  0  0  0  0  0
    3.0423   -6.9407    1.3119 H   0  0  0  0  0  0  0  0  0  0  0  0
    4.4476   -5.7388    3.0651 H   0  0  0  0  0  0  0  0  0  0  0  0
    2.9432   -4.7477    2.0793 H   0  0  0  0  0  0  0  0  0  0  0  0
    4.4794   -6.1154    5.1263 H   0  0  0  0  0  0  0  0  0  0  0  0
    2.7853   -5.9990    5.2914 H   0  0  0  0  0  0  0  0  0  0  0  0
    3.8128   -8.0141    6.1378 H   0  0  0  0  0  0  0  0  0  0  0  0
    2.7555   -9.6343    7.0249 H   0  0  0  0  0  0  0  0  0  0  0  0
    2.2878  -10.8552    5.8969 H   0  0  0  0  0  0  0  0  0  0  0  0
    1.0816   -9.9378    6.6608 H   0  0  0  0  0  0  0  0  0  0  0  0
    0.0638   -8.6151    5.4173 H   0  0  0  0  0  0  0  0  0  0  0  0
   -0.1893   -7.4823    7.1530 H   0  0  0  0  0  0  0  0  0  0  0  0
    1.9238   -8.1632    7.6053 H   0  0  0  0  0  0  0  0  0  0  0  0
    0.0958   -3.1113    4.1499 H   0  0  0  0  0  0  0  0  0  0  0  0
    0.7714   -0.9497    8.0331 H   0  0  0  0  0  0  0  0  0  0  0  0
   -1.0071    2.3459    6.3165 H   0  0  0  0  0  0  0  0  0  0  0  0
   -1.5619   -1.2633    4.3963 H   0  0  0  0  0  0  0  0  0  0  0  0
   -1.7194   -8.1985    3.9749 H   0  0  0  0  0  0  0  0  0  0  0  0
   -1.7936   -6.6084    3.2702 H   0  0  0  0  0  0  0  0  0  0  0  0
   -1.7684   -6.7840    5.0112 H   0  0  0  0  0  0  0  0  0  0  0  0
   -0.0766   -8.3179    2.3042 H   0  0  0  0  0  0  0  0  0  0  0  0
    0.6815   -7.0598    0.7845 H   0  0  0  0  0  0  0  0  0  0  0  0
  1  2  1  0
  1 40  1  0
  1 41  1  0
  1 42  1  0
  2 12  1  0
  2  3  1  0
  2  4  1  0
  3 43  1  0
  3 44  1  0
  3 45  1  0
  4  5  1  0
  5 16  1  0
  5  6  1  0
  5 46  1  1
  6  7  1  0
  6  8  1  0
  6 47  1  6
  7 48  1  0
  8  9  1  0
  8 49  1  0
  8 50  1  0
  9 17  1  0
  9 10  1  1
  9 11  1  0
 10 51  1  0
 10 52  1  0
 10 53  1  0
 11 38  1  0
 11 12  1  0
 11 54  1  6
 12 13  1  0
 12 55  1  6
 13 14  1  0
 13 15  1  0
 13 56  1  6
 14 57  1  0
 15 16  1  0
 15 58  1  0
 15 59  1  0
 16 17  1  0
 16 60  1  1
 17 18  1  1
 17 19  1  0
 18 61  1  0
 18 62  1  0
 18 63  1  0
 19 36  1  0
 19 20  1  0
 19 64  1  1
 20 21  1  0
 20 22  1  0
 20 65  1  1
 21 66  1  0
 22 33  1  0
 22 23  2  0
 23 24  1  0
 23 35  1  0
 24 25  2  0
 24 67  1  0
 25 26  1  0
 25 32  1  0
 26 31  1  0
 26 27  2  0
 27 28  1  0
 27 68  1  0
 28 29  2  0
 29 30  1  0
 29 69  1  0
 30 31  2  0
 31 70  1  0
 32 33  1  0
 33 34  2  0
 35 36  1  0
 36 37  1  6
 36 38  1  0
 37 71  1  0
 37 72  1  0
 37 73  1  0
 38 39  1  0
 38 74  1  6
 39 75  1  0
M  END
>  <i_m_ct_stereo_status>  (247) 
1

>  <s_m_source_file>  (247) 
/var/tmp/pbs.5076255.sched01/tmp_gsyjirk/108c9vsds16.sdf

>  <i_m_source_file_index>  (247) 
1

>  <i_lp_mmshare_version>  (247) 
48012

>  <i_f3d_flags>  (247) 
0

>  <s_epik_input>  (247) 
W0NIM11bQ0BdMTJbQ0BASF0zW0NAQEhdNEMoW0NIM10pKFtDSDNdKU9bQ0BIXShbQ0BASF0oW09IXSlbQ0gyXTEpW0NAQEhdKFtDSDJdW0NAQEhdNFtPSF0pW0NAQF0yKFtDSDNdKVtDQEBIXTVbQ0BdKFtDSDNdKShbQ0BIXTNbT0hdKU9jNmMoW0NAQEhdNVtPSF0pYyg9TylvYyhbY0hdNiktYzdbY0hdbltjSF1uW2NIXTc=

>  <s_epik_cmdline>  (247) 
J2VwaWtfcHl0aG9uJywgJy1waHQnLCAnMi4wJywgJy1waCcsICc3LjAnLCAnLXRuJywgJzgnLCAnLW1hJywgJzIwMCcsICctaW1hZScsICc8aW5maWxlLm1hZT4nLCAnLW9tYWUnLCAnPG91dGZpbGUubWFlPic=

>  <r_lp_tautomer_probability>  (247) 
1

>  <r_epik_Ionization_Penalty>  (247) 
1.51877e-06

>  <r_epik_Ionization_Penalty_Charging>  (247) 
0

>  <r_epik_Ionization_Penalty_Neutral>  (247) 
1.51877e-06

>  <r_epik_State_Penalty>  (247) 
-0

>  <r_epik_Charging_Adjusted_Penalty>  (247) 
0

>  <i_epik_Tot_Q>  (247) 
0

>  <i_epik_Tot_abs_Q>  (247) 
0

>  <s_lp_Force_Field>  (247) 
OPLS3e

>  <r_lp_Energy>  (247) 
125.9

>  <b_lp_Chiralities_Consistent>  (247) 
1

>  <s_lp_Variant>  (247) 
88:0-1

>  <s_i_glide_gridfile>  (247) 
pfpi4k_grid

>  <i_i_glide_lignum>  (247) 
1

>  <i_i_glide_rotatable_bonds>  (247) 
5

>  <r_i_docking_score>  (247) 
-2.41804

>  <r_i_glide_ligand_efficiency>  (247) 
-0.0620011

>  <r_i_glide_ligand_efficiency_sa>  (247) 
-0.210259

>  <r_i_glide_ligand_efficiency_ln>  (247) 
-0.518497

>  <r_i_glide_gscore>  (247) 
-2.41804

>  <r_i_glide_lipo>  (247) 
-0.126047

>  <r_i_glide_hbond>  (247) 
0

>  <r_i_glide_metal>  (247) 
-0

>  <r_i_glide_rewards>  (247) 
0

>  <r_i_glide_evdw>  (247) 
-34.6347

>  <r_i_glide_ecoul>  (247) 
-4.06369

>  <r_i_glide_erotb>  (247) 
0.0707451

>  <r_i_glide_esite>  (247) 
-0.0214523

>  <r_i_glide_emodel>  (247) 
-44.0577

>  <r_i_glide_energy>  (247) 
-38.6983

>  <r_i_glide_einternal>  (247) 
3.17636

>  <r_i_glide_intrahb_reward>  (247) 
-0

>  <i_i_glide_confnum>  (247) 
3

>  <i_i_glide_posenum>  (247) 
30

>  <r_i_glide_eff_state_penalty>  (247) 
0

>  <ligand_id>  (247) 
88

>  <original_smiles>  (247) 
CC1(C)OC2C(O)CC3(C)C4C1C(O)CC2C3(C)C1C(O)c2c(cc(-c3cncnc3)oc2=O)OC1(C)C4O

>  <smiles>  (247) 
[H]OC1([H])c2c(c([H])c(-c3c([H])nc([H])nc3[H])oc2=O)OC2(C([H])([H])[H])C([H])(O[H])C3([H])C4([H])C([H])(O[H])C([H])([H])C5([H])C([H])(OC4(C([H])([H])[H])C([H])([H])[H])C([H])(O[H])C([H])([H])C3(C([H])([H])[H])C5(C([H])([H])[H])C12[H]

$$$$
89:0:0
     RDKit          3D

 55 59  0  0  1  0  0  0  0  0999 V2000
    2.1328   -5.4030    5.1588 C   0  0  0  0  0  0  0  0  0  0  0  0
    2.8399   -4.6897    4.2525 C   0  0  0  0  0  0  0  0  0  0  0  0
    2.2233   -4.4482    2.8573 C   0  0  0  0  0  0  0  0  0  0  0  0
    3.3447   -3.9858    1.9420 C   0  0  2  0  0  0  0  0  0  0  0  0
    3.3766   -3.4548    0.4490 C   0  0  2  0  0  0  0  0  0  0  0  0
    2.6579   -4.3889   -0.5425 C   0  0  1  0  0  0  0  0  0  0  0  0
    1.7854   -5.3332    0.0740 O   0  0  0  0  0  0  0  0  0  0  0  0
    1.8073   -3.7187   -1.6243 C   0  0  0  0  0  0  0  0  0  0  0  0
    2.5955   -3.0617   -2.7407 C   0  0  0  0  0  0  0  0  0  0  0  0
    2.4383   -3.4058   -3.9270 O   0  0  0  0  0  0  0  0  0  0  0  0
    3.6058   -1.9984   -2.3841 C   0  0  1  0  0  0  0  0  0  0  0  0
    3.9270   -1.1705   -3.6756 C   0  0  0  0  0  0  0  0  0  0  0  0
    3.0337   -1.0727   -1.4564 O   0  0  0  0  0  0  0  0  0  0  0  0
    4.8365   -2.7077   -1.6965 C   0  0  1  0  0  0  0  0  0  0  0  0
    5.9231   -1.8981   -2.0409 O   0  0  0  0  0  0  0  0  0  0  0  0
    4.8669   -3.0169   -0.1301 C   0  0  1  0  0  0  0  0  0  0  0  0
    5.0301   -1.7371    0.4697 O   0  0  0  0  0  0  0  0  0  0  0  0
    6.2476   -3.9115    0.1862 C   0  0  1  0  0  0  0  0  0  0  0  0
    7.4286   -3.2924   -0.3067 O   0  0  0  0  0  0  0  0  0  0  0  0
    6.7256   -4.2163    1.6830 C   0  0  2  0  0  0  0  0  0  0  0  0
    6.8179   -5.6210    2.3334 C   0  0  0  0  0  0  0  0  0  0  0  0
    5.4489   -5.6058    3.0787 C   0  0  1  0  0  0  0  0  0  0  0  0
    5.4482   -4.3932    3.8256 N   0  0  2  0  0  0  0  0  0  0  0  0
    4.1980   -4.0476    4.6365 C   0  0  0  0  0  0  0  0  0  0  0  0
    5.5667   -3.8644    2.4509 C   0  0  2  0  0  0  0  0  0  0  0  0
    4.5144   -4.9093    2.0711 C   0  0  2  0  0  0  0  0  0  0  0  0
    4.4702   -5.8340    1.0016 O   0  0  0  0  0  0  0  0  0  0  0  0
    2.4826   -5.5509    6.1750 H   0  0  0  0  0  0  0  0  0  0  0  0
    1.1543   -5.7803    4.9005 H   0  0  0  0  0  0  0  0  0  0  0  0
    1.7690   -5.3873    2.5358 H   0  0  0  0  0  0  0  0  0  0  0  0
    1.4564   -3.6752    2.9167 H   0  0  0  0  0  0  0  0  0  0  0  0
    3.4518   -3.0158    2.4254 H   0  0  0  0  0  0  0  0  0  0  0  0
    2.7550   -2.5684    0.5049 H   0  0  0  0  0  0  0  0  0  0  0  0
    3.4648   -4.9569   -1.0135 H   0  0  0  0  0  0  0  0  0  0  0  0
    2.3186   -5.9627    0.5369 H   0  0  0  0  0  0  0  0  0  0  0  0
    1.1330   -4.4366   -2.0707 H   0  0  0  0  0  0  0  0  0  0  0  0
    1.1488   -3.0273   -1.1472 H   0  0  0  0  0  0  0  0  0  0  0  0
    4.4612   -1.7632   -4.4183 H   0  0  0  0  0  0  0  0  0  0  0  0
    4.5193   -0.2835   -3.4555 H   0  0  0  0  0  0  0  0  0  0  0  0
    3.0111   -0.8141   -4.1505 H   0  0  0  0  0  0  0  0  0  0  0  0
    2.0636   -1.1559   -1.3994 H   0  0  0  0  0  0  0  0  0  0  0  0
    5.0142   -3.6465   -2.2111 H   0  0  0  0  0  0  0  0  0  0  0  0
    5.6130   -1.0148   -1.9319 H   0  0  0  0  0  0  0  0  0  0  0  0
    4.3443   -1.1844    0.1110 H   0  0  0  0  0  0  0  0  0  0  0  0
    6.1975   -4.8605   -0.3590 H   0  0  0  0  0  0  0  0  0  0  0  0
    8.1503   -3.8934   -0.2193 H   0  0  0  0  0  0  0  0  0  0  0  0
    7.5602   -3.5875    1.9454 H   0  0  0  0  0  0  0  0  0  0  0  0
    6.9232   -6.4409    1.6197 H   0  0  0  0  0  0  0  0  0  0  0  0
    7.6602   -5.6456    3.0304 H   0  0  0  0  0  0  0  0  0  0  0  0
    5.1100   -6.4917    3.6208 H   0  0  0  0  0  0  0  0  0  0  0  0
    4.0829   -2.9629    4.6997 H   0  0  0  0  0  0  0  0  0  0  0  0
    4.4161   -4.4001    5.6378 H   0  0  0  0  0  0  0  0  0  0  0  0
    5.3961   -2.7954    2.5490 H   0  0  0  0  0  0  0  0  0  0  0  0
    4.1918   -6.6506    1.3863 H   0  0  0  0  0  0  0  0  0  0  0  0
    6.2993   -4.2385    4.3402 H   0  0  0  0  0  0  0  0  0  0  0  0
  1  2  2  0
  1 28  1  0
  1 29  1  0
  2 24  1  0
  2  3  1  0
  3  4  1  0
  3 30  1  0
  3 31  1  0
  4 26  1  0
  4  5  1  0
  4 32  1  1
  5 16  1  0
  5  6  1  0
  5 33  1  1
  6  7  1  0
  6  8  1  0
  6 34  1  6
  7 35  1  0
  8  9  1  0
  8 36  1  0
  8 37  1  0
  9 10  2  0
  9 11  1  0
 11 12  1  0
 11 13  1  1
 11 14  1  0
 12 38  1  0
 12 39  1  0
 12 40  1  0
 13 41  1  0
 14 15  1  0
 14 16  1  0
 14 42  1  6
 15 43  1  0
 16 17  1  1
 16 18  1  0
 17 44  1  0
 18 19  1  0
 18 20  1  0
 18 45  1  6
 19 46  1  0
 20 25  1  0
 20 21  1  0
 20 47  1  1
 21 22  1  0
 21 48  1  0
 21 49  1  0
 22 26  1  0
 22 23  1  0
 22 50  1  1
 23 24  1  0
 23 25  1  0
 23 55  1  1
 24 51  1  0
 24 52  1  0
 25 26  1  0
 25 53  1  1
 26 27  1  6
 27 54  1  0
M  CHG  1  23   1
M  END
>  <i_m_ct_stereo_status>  (248) 
1

>  <s_m_source_file>  (248) 
/var/tmp/pbs.5076255.sched01/tmp_gsyjirk/108c9vsds16.sdf

>  <i_m_source_file_index>  (248) 
2

>  <i_lp_mmshare_version>  (248) 
48012

>  <i_f3d_flags>  (248) 
0

>  <s_epik_input>  (248) 
W09IXVtDQEhdMVtDQEhdKFtDSDJdMilbQ0BASF0zTihbQ0gyXUMoPVtDSDJdKVtDSDJdNClbQ0BIXTJbQ0BAXTMoW09IXSlbQ0BIXTRbQ0BASF0oW0NAQF0xNVtPSF0pW0NAQEhdKFtPSF0pW0NIMl1DKD1PKVtDQEBdKFtDSDNdKShbT0hdKVtDQEhdNVtPSF0=

>  <s_epik_cmdline>  (248) 
J2VwaWtfcHl0aG9uJywgJy1waHQnLCAnMi4wJywgJy1waCcsICc3LjAnLCAnLXRuJywgJzgnLCAnLW1hJywgJzIwMCcsICctaW1hZScsICc8aW5maWxlLm1hZT4nLCAnLW9tYWUnLCAnPG91dGZpbGUubWFlPic=

>  <r_lp_tautomer_probability>  (248) 
0.99995

>  <r_epik_Ionization_Penalty>  (248) 
0.00266574

>  <r_epik_Ionization_Penalty_Charging>  (248) 
0.00266544

>  <r_epik_Ionization_Penalty_Neutral>  (248) 
3.02553e-07

>  <r_epik_State_Penalty>  (248) 
0.00185652

>  <r_epik_Charging_Adjusted_Penalty>  (248) 
0.00452195

>  <i_epik_Tot_Q>  (248) 
1

>  <i_epik_Tot_abs_Q>  (248) 
1

>  <s_lp_Force_Field>  (248) 
OPLS3e

>  <r_lp_Energy>  (248) 
176.437

>  <b_lp_Chiralities_Consistent>  (248) 
1

>  <s_lp_Variant>  (248) 
89:0-1

>  <s_i_glide_gridfile>  (248) 
pfpi4k_grid

>  <i_i_glide_lignum>  (248) 
2

>  <i_i_glide_rotatable_bonds>  (248) 
6

>  <r_i_docking_score>  (248) 
-4.22837

>  <r_i_glide_ligand_efficiency>  (248) 
-0.156606

>  <r_i_glide_ligand_efficiency_sa>  (248) 
-0.469819

>  <r_i_glide_ligand_efficiency_ln>  (248) 
-0.984296

>  <r_i_glide_gscore>  (248) 
-4.22837

>  <r_i_glide_lipo>  (248) 
-0.472088

>  <r_i_glide_hbond>  (248) 
0

>  <r_i_glide_metal>  (248) 
-0

>  <r_i_glide_rewards>  (248) 
-1.35365

>  <r_i_glide_evdw>  (248) 
-10.4229

>  <r_i_glide_ecoul>  (248) 
-12.5433

>  <r_i_glide_erotb>  (248) 
0

>  <r_i_glide_esite>  (248) 
0

>  <r_i_glide_emodel>  (248) 
-35.3594

>  <r_i_glide_energy>  (248) 
-22.9662

>  <r_i_glide_einternal>  (248) 
5.61637

>  <r_i_glide_intrahb_reward>  (248) 
-0.5

>  <i_i_glide_confnum>  (248) 
2

>  <i_i_glide_posenum>  (248) 
1

>  <r_i_glide_eff_state_penalty>  (248) 
0

>  <ligand_id>  (248) 
89

>  <original_smiles>  (248) 
C=C1CC2C3C(O)CC(=O)C(C)(O)C(O)C3(O)C(O)C3CC4N(C1)C3C24O

>  <smiles>  (248) 
[H]OC1([H])C([H])([H])C(=O)C(O[H])(C([H])([H])[H])C([H])(O[H])C2(O[H])C([H])(O[H])C3([H])C([H])([H])C4([H])C5(O[H])C([H])(C([H])([H])C(=C([H])[H])C([H])([H])[N+]4([H])C35[H])C12[H]

$$$$
89:0:1
     RDKit          3D

 55 59  0  0  1  0  0  0  0  0999 V2000
   -0.7956   -8.4309    4.8225 C   0  0  0  0  0  0  0  0  0  0  0  0
    0.5433   -8.5722    4.8782 C   0  0  0  0  0  0  0  0  0  0  0  0
    1.4120   -7.5843    4.0720 C   0  0  0  0  0  0  0  0  0  0  0  0
    2.8116   -8.1605    3.9590 C   0  0  2  0  0  0  0  0  0  0  0  0
    4.1882   -7.5955    3.3648 C   0  0  2  0  0  0  0  0  0  0  0  0
    4.0728   -6.9880    1.9203 C   0  0  1  0  0  0  0  0  0  0  0  0
    2.7374   -6.6850    1.5796 O   0  0  0  0  0  0  0  0  0  0  0  0
    4.8157   -5.6580    1.7259 C   0  0  0  0  0  0  0  0  0  0  0  0
    6.3103   -5.8615    1.5651 C   0  0  0  0  0  0  0  0  0  0  0  0
    6.8621   -5.5637    0.5046 O   0  0  0  0  0  0  0  0  0  0  0  0
    7.0901   -6.4513    2.7484 C   0  0  1  0  0  0  0  0  0  0  0  0
    8.5862   -6.0702    2.5783 C   0  0  0  0  0  0  0  0  0  0  0  0
    6.6986   -5.8065    3.9406 O   0  0  0  0  0  0  0  0  0  0  0  0
    6.8166   -8.0043    2.8430 C   0  0  1  0  0  0  0  0  0  0  0  0
    8.0294   -8.5806    3.3134 O   0  0  0  0  0  0  0  0  0  0  0  0
    5.5152   -8.5797    3.5904 C   0  0  1  0  0  0  0  0  0  0  0  0
    5.8427   -8.3702    4.9590 O   0  0  0  0  0  0  0  0  0  0  0  0
    5.4049  -10.2404    3.3692 C   0  0  1  0  0  0  0  0  0  0  0  0
    6.6189  -10.9114    3.6333 O   0  0  0  0  0  0  0  0  0  0  0  0
    4.3740  -11.1712    4.1934 C   0  0  2  0  0  0  0  0  0  0  0  0
    3.2023  -11.9511    3.5451 C   0  0  0  0  0  0  0  0  0  0  0  0
    2.0519  -10.9440    3.8315 C   0  0  1  0  0  0  0  0  0  0  0  0
    2.1491  -10.6709    5.2217 N   0  0  2  0  0  0  0  0  0  0  0  0
    1.1920   -9.6446    5.8048 C   0  0  0  0  0  0  0  0  0  0  0  0
    3.4684  -10.2051    4.7554 C   0  0  2  0  0  0  0  0  0  0  0  0
    2.7213   -9.5932    3.5572 C   0  0  2  0  0  0  0  0  0  0  0  0
    2.9906   -9.6068    2.1699 O   0  0  0  0  0  0  0  0  0  0  0  0
   -1.4484   -9.0638    5.3957 H   0  0  0  0  0  0  0  0  0  0  0  0
   -1.2523   -7.6580    4.2160 H   0  0  0  0  0  0  0  0  0  0  0  0
    0.9322   -7.4633    3.1017 H   0  0  0  0  0  0  0  0  0  0  0  0
    1.4355   -6.6095    4.5643 H   0  0  0  0  0  0  0  0  0  0  0  0
    3.0359   -7.9953    5.0091 H   0  0  0  0  0  0  0  0  0  0  0  0
    4.3461   -6.7163    3.9889 H   0  0  0  0  0  0  0  0  0  0  0  0
    4.4204   -7.7057    1.1749 H   0  0  0  0  0  0  0  0  0  0  0  0
    2.2670   -7.5078    1.5730 H   0  0  0  0  0  0  0  0  0  0  0  0
    4.4636   -5.1692    0.8181 H   0  0  0  0  0  0  0  0  0  0  0  0
    4.6242   -4.9631    2.5434 H   0  0  0  0  0  0  0  0  0  0  0  0
    9.0098   -6.5694    1.7090 H   0  0  0  0  0  0  0  0  0  0  0  0
    9.1880   -6.3263    3.4517 H   0  0  0  0  0  0  0  0  0  0  0  0
    8.7190   -4.9988    2.4292 H   0  0  0  0  0  0  0  0  0  0  0  0
    7.1736   -6.2220    4.6449 H   0  0  0  0  0  0  0  0  0  0  0  0
    6.7520   -8.3694    1.8172 H   0  0  0  0  0  0  0  0  0  0  0  0
    8.7384   -8.3150    2.7436 H   0  0  0  0  0  0  0  0  0  0  0  0
    5.2068   -8.7943    5.5061 H   0  0  0  0  0  0  0  0  0  0  0  0
    5.2720  -10.4254    2.3012 H   0  0  0  0  0  0  0  0  0  0  0  0
    6.5279  -11.8115    3.3659 H   0  0  0  0  0  0  0  0  0  0  0  0
    4.8449  -11.7531    4.9924 H   0  0  0  0  0  0  0  0  0  0  0  0
    3.3424  -12.1741    2.4848 H   0  0  0  0  0  0  0  0  0  0  0  0
    3.0457  -12.8885    4.0789 H   0  0  0  0  0  0  0  0  0  0  0  0
    1.0566  -11.1307    3.4273 H   0  0  0  0  0  0  0  0  0  0  0  0
    1.6556   -9.1598    6.6627 H   0  0  0  0  0  0  0  0  0  0  0  0
    0.3706  -10.2269    6.2233 H   0  0  0  0  0  0  0  0  0  0  0  0
    3.8929   -9.6531    5.5853 H   0  0  0  0  0  0  0  0  0  0  0  0
    3.2097  -10.4992    1.9180 H   0  0  0  0  0  0  0  0  0  0  0  0
    2.1951  -11.4951    5.8084 H   0  0  0  0  0  0  0  0  0  0  0  0
  1  2  2  0
  1 28  1  0
  1 29  1  0
  2 24  1  0
  2  3  1  0
  3  4  1  0
  3 30  1  0
  3 31  1  0
  4 26  1  0
  4  5  1  0
  4 32  1  1
  5 16  1  0
  5  6  1  0
  5 33  1  1
  6  7  1  0
  6  8  1  0
  6 34  1  6
  7 35  1  0
  8  9  1  0
  8 36  1  0
  8 37  1  0
  9 10  2  0
  9 11  1  0
 11 12  1  0
 11 13  1  1
 11 14  1  0
 12 38  1  0
 12 39  1  0
 12 40  1  0
 13 41  1  0
 14 15  1  0
 14 16  1  0
 14 42  1  6
 15 43  1  0
 16 17  1  1
 16 18  1  0
 17 44  1  0
 18 19  1  0
 18 20  1  0
 18 45  1  6
 19 46  1  0
 20 25  1  0
 20 21  1  0
 20 47  1  1
 21 22  1  0
 21 48  1  0
 21 49  1  0
 22 26  1  0
 22 23  1  0
 22 50  1  6
 23 24  1  0
 23 25  1  0
 23 55  1  1
 24 51  1  0
 24 52  1  0
 25 26  1  0
 25 53  1  1
 26 27  1  6
 27 54  1  0
M  CHG  1  23   1
M  END
>  <i_m_ct_stereo_status>  (249) 
1

>  <s_m_source_file>  (249) 
/var/tmp/pbs.5076255.sched01/tmp_gsyjirk/108c9vsds16.sdf

>  <i_m_source_file_index>  (249) 
2

>  <i_lp_mmshare_version>  (249) 
48012

>  <i_f3d_flags>  (249) 
0

>  <s_epik_input>  (249) 
W09IXVtDQEhdMVtDQEhdKFtDSDJdMilbQ0BASF0zTihbQ0gyXUMoPVtDSDJdKVtDSDJdNClbQ0BIXTJbQ0BAXTMoW09IXSlbQ0BIXTRbQ0BASF0oW0NAQF0xNVtPSF0pW0NAQEhdKFtPSF0pW0NIMl1DKD1PKVtDQEBdKFtDSDNdKShbT0hdKVtDQEhdNVtPSF0=

>  <s_epik_cmdline>  (249) 
J2VwaWtfcHl0aG9uJywgJy1waHQnLCAnMi4wJywgJy1waCcsICc3LjAnLCAnLXRuJywgJzgnLCAnLW1hJywgJzIwMCcsICctaW1hZScsICc8aW5maWxlLm1hZT4nLCAnLW9tYWUnLCAnPG91dGZpbGUubWFlPic=

>  <r_lp_tautomer_probability>  (249) 
0.99995

>  <r_epik_Ionization_Penalty>  (249) 
0.00266574

>  <r_epik_Ionization_Penalty_Charging>  (249) 
0.00266544

>  <r_epik_Ionization_Penalty_Neutral>  (249) 
3.02553e-07

>  <r_epik_State_Penalty>  (249) 
0.00185652

>  <r_epik_Charging_Adjusted_Penalty>  (249) 
0.00452195

>  <i_epik_Tot_Q>  (249) 
1

>  <i_epik_Tot_abs_Q>  (249) 
1

>  <s_lp_Force_Field>  (249) 
OPLS3e

>  <r_lp_Energy>  (249) 
176.437

>  <b_lp_Chiralities_Consistent>  (249) 
1

>  <s_lp_Variant>  (249) 
89:0-1

>  <s_i_glide_gridfile>  (249) 
pfpi4k_grid

>  <i_i_glide_lignum>  (249) 
2

>  <i_i_glide_rotatable_bonds>  (249) 
6

>  <r_i_docking_score>  (249) 
-4.04665

>  <r_i_glide_ligand_efficiency>  (249) 
-0.149876

>  <r_i_glide_ligand_efficiency_sa>  (249) 
-0.449627

>  <r_i_glide_ligand_efficiency_ln>  (249) 
-0.941993

>  <r_i_glide_gscore>  (249) 
-4.04665

>  <r_i_glide_lipo>  (249) 
-0.136544

>  <r_i_glide_hbond>  (249) 
-0.0971995

>  <r_i_glide_metal>  (249) 
-0

>  <r_i_glide_rewards>  (249) 
-1.40979

>  <r_i_glide_evdw>  (249) 
-21.7466

>  <r_i_glide_ecoul>  (249) 
-8.31503

>  <r_i_glide_erotb>  (249) 
0

>  <r_i_glide_esite>  (249) 
-0.0685291

>  <r_i_glide_emodel>  (249) 
-46.1865

>  <r_i_glide_energy>  (249) 
-30.0616

>  <r_i_glide_einternal>  (249) 
1.2045

>  <r_i_glide_intrahb_reward>  (249) 
-0.5

>  <i_i_glide_confnum>  (249) 
1

>  <i_i_glide_posenum>  (249) 
38

>  <r_i_glide_eff_state_penalty>  (249) 
0

>  <ligand_id>  (249) 
89

>  <original_smiles>  (249) 
C=C1CC2C3C(O)CC(=O)C(C)(O)C(O)C3(O)C(O)C3CC4N(C1)C3C24O

>  <smiles>  (249) 
[H]OC1([H])C([H])([H])C(=O)C(O[H])(C([H])([H])[H])C([H])(O[H])C2(O[H])C([H])(O[H])C3([H])C([H])([H])C4([H])C5(O[H])C([H])(C([H])([H])C(=C([H])[H])C([H])([H])[N+]4([H])C35[H])C12[H]

$$$$
89:0:2
     RDKit          3D

 55 59  0  0  1  0  0  0  0  0999 V2000
    2.6946   -6.9780    5.3821 C   0  0  0  0  0  0  0  0  0  0  0  0
    3.4772   -6.1863    4.6081 C   0  0  0  0  0  0  0  0  0  0  0  0
    2.8419   -5.5200    3.3663 C   0  0  0  0  0  0  0  0  0  0  0  0
    3.9656   -5.0311    2.4684 C   0  0  2  0  0  0  0  0  0  0  0  0
    4.0067   -4.1713    1.1173 C   0  0  2  0  0  0  0  0  0  0  0  0
    3.0267   -4.6794    0.0117 C   0  0  1  0  0  0  0  0  0  0  0  0
    2.0085   -5.5207    0.5103 O   0  0  0  0  0  0  0  0  0  0  0  0
    2.2588   -3.5797   -0.7239 C   0  0  0  0  0  0  0  0  0  0  0  0
    3.1059   -2.8607   -1.7488 C   0  0  0  0  0  0  0  0  0  0  0  0
    2.8354   -2.9363   -2.9505 O   0  0  0  0  0  0  0  0  0  0  0  0
    4.3113   -2.0585   -1.2389 C   0  0  1  0  0  0  0  0  0  0  0  0
    4.6474   -1.0003   -2.3217 C   0  0  0  0  0  0  0  0  0  0  0  0
    3.9755   -1.3058   -0.0896 O   0  0  0  0  0  0  0  0  0  0  0  0
    5.4809   -3.0507   -0.8721 C   0  0  1  0  0  0  0  0  0  0  0  0
    6.6785   -2.3617   -1.2208 O   0  0  0  0  0  0  0  0  0  0  0  0
    5.5326   -3.7891    0.5615 C   0  0  1  0  0  0  0  0  0  0  0  0
    5.9225   -2.7562    1.4495 O   0  0  0  0  0  0  0  0  0  0  0  0
    6.7756   -4.9123    0.5904 C   0  0  1  0  0  0  0  0  0  0  0  0
    7.9912   -4.4003    0.0791 O   0  0  0  0  0  0  0  0  0  0  0  0
    7.2829   -5.6491    1.9373 C   0  0  2  0  0  0  0  0  0  0  0  0
    7.1584   -7.1798    2.2032 C   0  0  0  0  0  0  0  0  0  0  0  0
    5.8417   -7.1560    3.0372 C   0  0  1  0  0  0  0  0  0  0  0  0
    6.0757   -6.1829    4.0476 N   0  0  2  0  0  0  0  0  0  0  0  0
    4.9437   -5.8760    5.0199 C   0  0  0  0  0  0  0  0  0  0  0  0
    6.2036   -5.3587    2.8376 C   0  0  2  0  0  0  0  0  0  0  0  0
    4.9768   -6.1174    2.3130 C   0  0  2  0  0  0  0  0  0  0  0  0
    4.7156   -6.7099    1.0620 O   0  0  0  0  0  0  0  0  0  0  0  0
    3.0584   -7.4345    6.2946 H   0  0  0  0  0  0  0  0  0  0  0  0
    1.6563   -7.1507    5.1221 H   0  0  0  0  0  0  0  0  0  0  0  0
    2.2194   -6.2713    2.8808 H   0  0  0  0  0  0  0  0  0  0  0  0
    2.2046   -4.6853    3.6616 H   0  0  0  0  0  0  0  0  0  0  0  0
    4.2546   -4.2319    3.1435 H   0  0  0  0  0  0  0  0  0  0  0  0
    3.5423   -3.2432    1.4449 H   0  0  0  0  0  0  0  0  0  0  0  0
    3.5879   -5.2686   -0.7159 H   0  0  0  0  0  0  0  0  0  0  0  0
    2.4376   -6.3168    0.7949 H   0  0  0  0  0  0  0  0  0  0  0  0
    1.4144   -4.0071   -1.2643 H   0  0  0  0  0  0  0  0  0  0  0  0
    1.8587   -2.8479   -0.0220 H   0  0  0  0  0  0  0  0  0  0  0  0
    4.9997   -1.4725   -3.2396 H   0  0  0  0  0  0  0  0  0  0  0  0
    5.4098   -0.3012   -1.9810 H   0  0  0  0  0  0  0  0  0  0  0  0
    3.7832   -0.3929   -2.5951 H   0  0  0  0  0  0  0  0  0  0  0  0
    4.6512   -0.6539    0.0238 H   0  0  0  0  0  0  0  0  0  0  0  0
    5.4370   -3.8560   -1.6053 H   0  0  0  0  0  0  0  0  0  0  0  0
    7.0913   -2.8359   -1.9304 H   0  0  0  0  0  0  0  0  0  0  0  0
    5.2884   -2.0599    1.3549 H   0  0  0  0  0  0  0  0  0  0  0  0
    6.5189   -5.6805   -0.1376 H   0  0  0  0  0  0  0  0  0  0  0  0
    8.5902   -5.1239   -0.0088 H   0  0  0  0  0  0  0  0  0  0  0  0
    8.2217   -5.2447    2.3288 H   0  0  0  0  0  0  0  0  0  0  0  0
    7.0916   -7.7768    1.2930 H   0  0  0  0  0  0  0  0  0  0  0  0
    8.0093   -7.5457    2.7863 H   0  0  0  0  0  0  0  0  0  0  0  0
    5.3868   -8.0918    3.3590 H   0  0  0  0  0  0  0  0  0  0  0  0
    5.0161   -4.8462    5.3656 H   0  0  0  0  0  0  0  0  0  0  0  0
    5.1418   -6.4865    5.8944 H   0  0  0  0  0  0  0  0  0  0  0  0
    6.2025   -4.3342    3.1821 H   0  0  0  0  0  0  0  0  0  0  0  0
    5.2381   -7.4984    1.0107 H   0  0  0  0  0  0  0  0  0  0  0  0
    6.9567   -6.2995    4.5168 H   0  0  0  0  0  0  0  0  0  0  0  0
  1  2  2  0
  1 28  1  0
  1 29  1  0
  2 24  1  0
  2  3  1  0
  3  4  1  0
  3 30  1  0
  3 31  1  0
  4 26  1  0
  4  5  1  0
  4 32  1  1
  5 16  1  0
  5  6  1  0
  5 33  1  1
  6  7  1  0
  6  8  1  0
  6 34  1  6
  7 35  1  0
  8  9  1  0
  8 36  1  0
  8 37  1  0
  9 10  2  0
  9 11  1  0
 11 12  1  0
 11 13  1  1
 11 14  1  0
 12 38  1  0
 12 39  1  0
 12 40  1  0
 13 41  1  0
 14 15  1  0
 14 16  1  0
 14 42  1  6
 15 43  1  0
 16 17  1  1
 16 18  1  0
 17 44  1  0
 18 19  1  0
 18 20  1  0
 18 45  1  6
 19 46  1  0
 20 25  1  0
 20 21  1  0
 20 47  1  1
 21 22  1  0
 21 48  1  0
 21 49  1  0
 22 26  1  0
 22 23  1  0
 22 50  1  1
 23 24  1  0
 23 25  1  0
 23 55  1  1
 24 51  1  0
 24 52  1  0
 25 26  1  0
 25 53  1  1
 26 27  1  6
 27 54  1  0
M  CHG  1  23   1
M  END
>  <i_m_ct_stereo_status>  (250) 
1

>  <s_m_source_file>  (250) 
/var/tmp/pbs.5076255.sched01/tmp_gsyjirk/108c9vsds16.sdf

>  <i_m_source_file_index>  (250) 
2

>  <i_lp_mmshare_version>  (250) 
48012

>  <i_f3d_flags>  (250) 
0

>  <s_epik_input>  (250) 
W09IXVtDQEhdMVtDQEhdKFtDSDJdMilbQ0BASF0zTihbQ0gyXUMoPVtDSDJdKVtDSDJdNClbQ0BIXTJbQ0BAXTMoW09IXSlbQ0BIXTRbQ0BASF0oW0NAQF0xNVtPSF0pW0NAQEhdKFtPSF0pW0NIMl1DKD1PKVtDQEBdKFtDSDNdKShbT0hdKVtDQEhdNVtPSF0=

>  <s_epik_cmdline>  (250) 
J2VwaWtfcHl0aG9uJywgJy1waHQnLCAnMi4wJywgJy1waCcsICc3LjAnLCAnLXRuJywgJzgnLCAnLW1hJywgJzIwMCcsICctaW1hZScsICc8aW5maWxlLm1hZT4nLCAnLW9tYWUnLCAnPG91dGZpbGUubWFlPic=

>  <r_lp_tautomer_probability>  (250) 
0.99995

>  <r_epik_Ionization_Penalty>  (250) 
0.00266574

>  <r_epik_Ionization_Penalty_Charging>  (250) 
0.00266544

>  <r_epik_Ionization_Penalty_Neutral>  (250) 
3.02553e-07

>  <r_epik_State_Penalty>  (250) 
0.00185652

>  <r_epik_Charging_Adjusted_Penalty>  (250) 
0.00452195

>  <i_epik_Tot_Q>  (250) 
1

>  <i_epik_Tot_abs_Q>  (250) 
1

>  <s_lp_Force_Field>  (250) 
OPLS3e

>  <r_lp_Energy>  (250) 
176.437

>  <b_lp_Chiralities_Consistent>  (250) 
1

>  <s_lp_Variant>  (250) 
89:0-1

>  <s_i_glide_gridfile>  (250) 
pfpi4k_grid

>  <i_i_glide_lignum>  (250) 
2

>  <i_i_glide_rotatable_bonds>  (250) 
6

>  <r_i_docking_score>  (250) 
-3.72377

>  <r_i_glide_ligand_efficiency>  (250) 
-0.137918

>  <r_i_glide_ligand_efficiency_sa>  (250) 
-0.413753

>  <r_i_glide_ligand_efficiency_ln>  (250) 
-0.866833

>  <r_i_glide_gscore>  (250) 
-3.72377

>  <r_i_glide_lipo>  (250) 
-0.335866

>  <r_i_glide_hbond>  (250) 
0

>  <r_i_glide_metal>  (250) 
-0

>  <r_i_glide_rewards>  (250) 
-1.30163

>  <r_i_glide_evdw>  (250) 
-26.4241

>  <r_i_glide_ecoul>  (250) 
-4.9862

>  <r_i_glide_erotb>  (250) 
0

>  <r_i_glide_esite>  (250) 
-0.0171467

>  <r_i_glide_emodel>  (250) 
-46.0316

>  <r_i_glide_energy>  (250) 
-31.4103

>  <r_i_glide_einternal>  (250) 
2.34106

>  <r_i_glide_intrahb_reward>  (250) 
-0.5

>  <i_i_glide_confnum>  (250) 
1

>  <i_i_glide_posenum>  (250) 
5

>  <r_i_glide_eff_state_penalty>  (250) 
0

>  <ligand_id>  (250) 
89

>  <original_smiles>  (250) 
C=C1CC2C3C(O)CC(=O)C(C)(O)C(O)C3(O)C(O)C3CC4N(C1)C3C24O

>  <smiles>  (250) 
[H]OC1([H])C([H])([H])C(=O)C(O[H])(C([H])([H])[H])C([H])(O[H])C2(O[H])C([H])(O[H])C3([H])C([H])([H])C4([H])C5(O[H])C([H])(C([H])([H])C(=C([H])[H])C([H])([H])[N+]4([H])C35[H])C12[H]

$$$$
90:0:0
     RDKit          3D

 54 59  0  0  1  0  0  0  0  0999 V2000
   -2.5983    3.3453    4.5870 C   0  0  0  0  0  0  0  0  0  0  0  0
   -1.2012    2.6486    4.5535 C   0  0  0  0  0  0  0  0  0  0  0  0
   -1.5965    1.2497    3.9697 C   0  0  0  0  0  0  0  0  0  0  0  0
    0.0221    3.1654    3.7607 C   0  0  1  0  0  0  0  0  0  0  0  0
   -0.2346    4.7307    3.7209 C   0  0  1  0  0  0  0  0  0  0  0  0
   -1.3171    5.0993    2.8920 O   0  0  0  0  0  0  0  0  0  0  0  0
   -0.3863    5.2052    5.0672 O   0  0  0  0  0  0  0  0  0  0  0  0
    0.4017    4.4018    5.9598 C   0  0  2  0  0  0  0  0  0  0  0  0
    0.6170    4.9522    7.4133 C   0  0  0  0  0  0  0  0  0  0  0  0
    1.5996    4.7455    8.3734 C   0  0  0  0  0  0  0  0  0  0  0  0
    2.8178    3.7840    8.5289 C   0  0  0  0  0  0  0  0  0  0  0  0
    3.8064    4.2005    9.1299 O   0  0  0  0  0  0  0  0  0  0  0  0
    2.7690    2.2969    7.9960 C   0  0  1  0  0  0  0  0  0  0  0  0
    1.5652    2.4234    7.4082 O   0  0  0  0  0  0  0  0  0  0  0  0
    2.2096    2.6020    6.1061 C   0  0  2  0  0  0  0  0  0  0  0  0
    1.3910    2.4617    4.4987 C   0  0  2  0  0  0  0  0  0  0  0  0
    2.6605    2.2928    4.0802 C   0  0  1  0  0  0  0  0  0  0  0  0
    2.9016    1.7558    2.7954 O   0  0  0  0  0  0  0  0  0  0  0  0
    2.7511    3.9629    4.0656 C   0  0  0  0  0  0  0  0  0  0  0  0
    1.8417    4.9340    5.1306 C   0  0  0  0  0  0  0  0  0  0  0  0
    2.6675    1.0797    5.3476 C   0  0  2  0  0  0  0  0  0  0  0  0
    1.1881    0.3376    5.8603 C   0  0  0  0  0  0  0  0  0  0  0  0
   -0.1822    1.2148    6.3504 C   0  0  0  0  0  0  0  0  0  0  0  0
   -0.5508    2.8438    5.9486 C   0  0  2  0  0  0  0  0  0  0  0  0
    3.3161    1.7664    6.5424 C   0  0  2  0  0  0  0  0  0  0  0  0
    4.8071    2.0239    6.2653 C   0  0  0  0  0  0  0  0  0  0  0  0
   -3.0742    3.3851    3.6065 H   0  0  0  0  0  0  0  0  0  0  0  0
   -2.5749    4.3460    5.0039 H   0  0  0  0  0  0  0  0  0  0  0  0
   -3.2802    2.8088    5.2451 H   0  0  0  0  0  0  0  0  0  0  0  0
   -0.7928    0.5226    3.8912 H   0  0  0  0  0  0  0  0  0  0  0  0
   -1.9598    1.3731    2.9492 H   0  0  0  0  0  0  0  0  0  0  0  0
   -2.4111    0.7771    4.5202 H   0  0  0  0  0  0  0  0  0  0  0  0
   -0.0244    2.8296    2.7248 H   0  0  0  0  0  0  0  0  0  0  0  0
    0.5648    5.2163    3.1670 H   0  0  0  0  0  0  0  0  0  0  0  0
   -1.0273    4.8941    1.9929 H   0  0  0  0  0  0  0  0  0  0  0  0
   -0.1111    5.7116    7.6596 H   0  0  0  0  0  0  0  0  0  0  0  0
    1.4820    5.3691    9.2456 H   0  0  0  0  0  0  0  0  0  0  0  0
    2.7634    1.5268    8.7683 H   0  0  0  0  0  0  0  0  0  0  0  0
    2.9599    3.3867    6.1800 H   0  0  0  0  0  0  0  0  0  0  0  0
    1.0272    1.5474    4.0342 H   0  0  0  0  0  0  0  0  0  0  0  0
    3.7278    2.1116    2.4816 H   0  0  0  0  0  0  0  0  0  0  0  0
    3.8008    4.2410    4.1805 H   0  0  0  0  0  0  0  0  0  0  0  0
    2.5275    4.2907    3.0481 H   0  0  0  0  0  0  0  0  0  0  0  0
    1.7239    5.9264    4.6933 H   0  0  0  0  0  0  0  0  0  0  0  0
    2.5426    5.2875    5.8874 H   0  0  0  0  0  0  0  0  0  0  0  0
    3.3130    0.2679    5.0125 H   0  0  0  0  0  0  0  0  0  0  0  0
    0.8726   -0.3479    5.0720 H   0  0  0  0  0  0  0  0  0  0  0  0
    1.4362   -0.3336    6.6848 H   0  0  0  0  0  0  0  0  0  0  0  0
   -1.0467    0.5760    6.2079 H   0  0  0  0  0  0  0  0  0  0  0  0
   -0.2246    1.1542    7.4392 H   0  0  0  0  0  0  0  0  0  0  0  0
   -1.3540    3.0618    6.6556 H   0  0  0  0  0  0  0  0  0  0  0  0
    5.0543    1.9402    5.2116 H   0  0  0  0  0  0  0  0  0  0  0  0
    5.4210    1.3056    6.8020 H   0  0  0  0  0  0  0  0  0  0  0  0
    5.1152    3.0149    6.5963 H   0  0  0  0  0  0  0  0  0  0  0  0
  1  2  1  0
  1 27  1  0
  1 28  1  0
  1 29  1  0
  2 24  1  0
  2  3  1  0
  2  4  1  0
  3 30  1  0
  3 31  1  0
  3 32  1  0
  4 16  1  0
  4  5  1  0
  4 33  1  6
  5  6  1  0
  5  7  1  0
  5 34  1  6
  6 35  1  0
  8  7  1  6
  8 20  1  0
  8 24  1  0
  8  9  1  0
  9 10  2  3
  9 36  1  0
 10 11  1  0
 10 37  1  0
 11 12  2  0
 11 13  1  0
 13 25  1  0
 13 14  1  0
 13 38  1  1
 14 15  1  0
 15 25  1  0
 15 16  1  0
 15 39  1  1
 16 17  1  0
 16 40  1  1
 17 18  1  6
 17 19  1  0
 17 21  1  0
 18 41  1  0
 19 20  1  0
 19 42  1  0
 19 43  1  0
 20 44  1  0
 20 45  1  0
 21 22  1  0
 21 25  1  0
 21 46  1  6
 22 23  1  0
 22 47  1  0
 22 48  1  0
 23 24  1  0
 23 49  1  0
 23 50  1  0
 24 51  1  1
 25 26  1  6
 26 52  1  0
 26 53  1  0
 26 54  1  0
M  END
>  <i_m_ct_stereo_status>  (251) 
1

>  <s_m_source_file>  (251) 
/var/tmp/pbs.5076255.sched01/tmp_gsyjirk/108c9vsds16.sdf

>  <i_m_source_file_index>  (251) 
3

>  <i_lp_mmshare_version>  (251) 
48012

>  <i_f3d_flags>  (251) 
0

>  <s_epik_input>  (251) 
W0NAXTEyM1tDQEhdNEMoW0NIM10pKFtDSDNdKVtDQEBIXShbQ0BIXShPMSlbT0hdKVtDQEBIXTVbQ0hdNltDQEBdKFtDSDNdKShbQ0hdKE82KUMoPU8pL1tDSF09W0NIXVwyKVtDQEBIXShbQ0gyXVtDSDJdNClbQ0BdNShbT0hdKVtDSDJdW0NIMl0z

>  <s_epik_cmdline>  (251) 
J2VwaWtfcHl0aG9uJywgJy1waHQnLCAnMi4wJywgJy1waCcsICc3LjAnLCAnLXRuJywgJzgnLCAnLW1hJywgJzIwMCcsICctaW1hZScsICc8aW5maWxlLm1hZT4nLCAnLW9tYWUnLCAnPG91dGZpbGUubWFlPic=

>  <r_lp_tautomer_probability>  (251) 
1

>  <r_epik_Ionization_Penalty>  (251) 
9.90824e-08

>  <r_epik_Ionization_Penalty_Charging>  (251) 
0

>  <r_epik_Ionization_Penalty_Neutral>  (251) 
9.90824e-08

>  <r_epik_State_Penalty>  (251) 
-0

>  <r_epik_Charging_Adjusted_Penalty>  (251) 
0

>  <i_epik_Tot_Q>  (251) 
0

>  <i_epik_Tot_abs_Q>  (251) 
0

>  <s_epik_Chemistry_Notes>  (251) 
This compound contains an acetal/aminal-like group ( X-CH(R)-Y where X, Y are N, S, or O) that may be acid/base labile, releasing an aldehyde.

>  <s_lp_Force_Field>  (251) 
OPLS3e

>  <r_lp_Energy>  (251) 
601.041

>  <b_lp_Chiralities_Consistent>  (251) 
1

>  <s_lp_Variant>  (251) 
90:0-1

>  <s_i_glide_gridfile>  (251) 
pfpi4k_grid

>  <i_i_glide_lignum>  (251) 
3

>  <i_i_glide_rotatable_bonds>  (251) 
2

>  <r_i_docking_score>  (251) 
-3.5715

>  <r_i_glide_ligand_efficiency>  (251) 
-0.137366

>  <r_i_glide_ligand_efficiency_sa>  (251) 
-0.406945

>  <r_i_glide_ligand_efficiency_ln>  (251) 
-0.838756

>  <r_i_glide_gscore>  (251) 
-3.5715

>  <r_i_glide_lipo>  (251) 
-0.00498805

>  <r_i_glide_hbond>  (251) 
-0.304

>  <r_i_glide_metal>  (251) 
-0

>  <r_i_glide_rewards>  (251) 
-0.951518

>  <r_i_glide_evdw>  (251) 
-11.1636

>  <r_i_glide_ecoul>  (251) 
-11.0188

>  <r_i_glide_erotb>  (251) 
0

>  <r_i_glide_esite>  (251) 
-0.1

>  <r_i_glide_emodel>  (251) 
-27.009

>  <r_i_glide_energy>  (251) 
-22.1824

>  <r_i_glide_einternal>  (251) 
2.26744

>  <r_i_glide_intrahb_reward>  (251) 
-0

>  <i_i_glide_confnum>  (251) 
1

>  <i_i_glide_posenum>  (251) 
10

>  <r_i_glide_eff_state_penalty>  (251) 
0

>  <ligand_id>  (251) 
90

>  <original_smiles>  (251) 
CC1(C)C2C(O)OC34C=CC(=O)C5OC6C2C(O)(CC3)C(CCC41)C56C

>  <smiles>  (251) 
[H]OC1([H])OC23C([H])=C([H])C(=O)C4([H])OC5([H])C6([H])C1([H])C(C([H])([H])[H])(C([H])([H])[H])C2([H])C([H])([H])C([H])([H])C([H])(C6(O[H])C([H])([H])C3([H])[H])C45C([H])([H])[H]

$$$$
90:0:1
     RDKit          3D

 54 59  0  0  1  0  0  0  0  0999 V2000
   -1.7823    2.8092    7.1857 C   0  0  0  0  0  0  0  0  0  0  0  0
   -1.1398    2.7267    5.7601 C   0  0  0  0  0  0  0  0  0  0  0  0
   -2.2206    3.4803    4.9138 C   0  0  0  0  0  0  0  0  0  0  0  0
    0.2462    3.3047    5.3702 C   0  0  1  0  0  0  0  0  0  0  0  0
    1.0401    3.2345    6.7345 C   0  0  1  0  0  0  0  0  0  0  0  0
    0.5633    4.1582    7.6867 O   0  0  0  0  0  0  0  0  0  0  0  0
    1.0002    1.8838    7.2208 O   0  0  0  0  0  0  0  0  0  0  0  0
    0.9609    0.9673    6.1139 C   0  0  2  0  0  0  0  0  0  0  0  0
    1.2381   -0.5378    6.4244 C   0  0  0  0  0  0  0  0  0  0  0  0
    1.7132   -1.5942    5.6571 C   0  0  0  0  0  0  0  0  0  0  0  0
    2.0186   -1.8232    4.1499 C   0  0  0  0  0  0  0  0  0  0  0  0
    2.9254   -2.5938    3.8533 O   0  0  0  0  0  0  0  0  0  0  0  0
    1.1455   -1.1548    3.0248 C   0  0  1  0  0  0  0  0  0  0  0  0
    0.3845   -0.4372    3.8754 O   0  0  0  0  0  0  0  0  0  0  0  0
    1.1954    0.7538    3.5869 C   0  0  2  0  0  0  0  0  0  0  0  0
    0.7470    2.4624    3.9680 C   0  0  2  0  0  0  0  0  0  0  0  0
    1.6903    2.7228    3.0373 C   0  0  1  0  0  0  0  0  0  0  0  0
    1.8159    4.0106    2.4793 O   0  0  0  0  0  0  0  0  0  0  0  0
    2.7920    2.5655    4.2811 C   0  0  0  0  0  0  0  0  0  0  0  0
    2.5257    1.5486    5.6175 C   0  0  0  0  0  0  0  0  0  0  0  0
    0.7191    1.5860    2.1125 C   0  0  2  0  0  0  0  0  0  0  0  0
   -0.9528    1.3375    2.4744 C   0  0  0  0  0  0  0  0  0  0  0  0
   -1.5335    0.9569    4.0244 C   0  0  0  0  0  0  0  0  0  0  0  0
   -0.7348    1.2512    5.5121 C   0  0  2  0  0  0  0  0  0  0  0  0
    1.4522    0.2532    2.2479 C   0  0  2  0  0  0  0  0  0  0  0  0
    2.8010    0.3146    1.5101 C   0  0  0  0  0  0  0  0  0  0  0  0
   -1.9795    3.8305    7.5125 H   0  0  0  0  0  0  0  0  0  0  0  0
   -1.2214    2.2940    7.9638 H   0  0  0  0  0  0  0  0  0  0  0  0
   -2.7528    2.3104    7.1860 H   0  0  0  0  0  0  0  0  0  0  0  0
   -2.0481    3.5158    3.8440 H   0  0  0  0  0  0  0  0  0  0  0  0
   -2.2506    4.5233    5.2173 H   0  0  0  0  0  0  0  0  0  0  0  0
   -3.2288    3.0868    5.0668 H   0  0  0  0  0  0  0  0  0  0  0  0
    0.1654    4.3593    5.1257 H   0  0  0  0  0  0  0  0  0  0  0  0
    2.0387    3.6417    6.6125 H   0  0  0  0  0  0  0  0  0  0  0  0
   -0.3523    3.9853    7.8054 H   0  0  0  0  0  0  0  0  0  0  0  0
    1.1235   -0.7570    7.4755 H   0  0  0  0  0  0  0  0  0  0  0  0
    1.8732   -2.4971    6.2197 H   0  0  0  0  0  0  0  0  0  0  0  0
    0.5551   -1.8426    2.4336 H   0  0  0  0  0  0  0  0  0  0  0  0
    2.2523    0.5173    3.7191 H   0  0  0  0  0  0  0  0  0  0  0  0
   -0.0209    3.0565    3.4754 H   0  0  0  0  0  0  0  0  0  0  0  0
    1.1266    4.1402    1.8083 H   0  0  0  0  0  0  0  0  0  0  0  0
    3.7493    2.2994    3.8348 H   0  0  0  0  0  0  0  0  0  0  0  0
    2.9900    3.5626    4.6608 H   0  0  0  0  0  0  0  0  0  0  0  0
    3.1262    1.9047    6.4549 H   0  0  0  0  0  0  0  0  0  0  0  0
    3.1684    0.6844    5.4529 H   0  0  0  0  0  0  0  0  0  0  0  0
    0.7369    1.9074    1.0691 H   0  0  0  0  0  0  0  0  0  0  0  0
   -1.5026    2.2122    2.1308 H   0  0  0  0  0  0  0  0  0  0  0  0
   -1.3173    0.5636    1.8012 H   0  0  0  0  0  0  0  0  0  0  0  0
   -2.5676    1.2720    4.0775 H   0  0  0  0  0  0  0  0  0  0  0  0
   -1.7787   -0.1039    4.0116 H   0  0  0  0  0  0  0  0  0  0  0  0
   -1.3182    0.6363    6.1907 H   0  0  0  0  0  0  0  0  0  0  0  0
    3.1228    1.3334    1.2863 H   0  0  0  0  0  0  0  0  0  0  0  0
    2.7464   -0.2293    0.5668 H   0  0  0  0  0  0  0  0  0  0  0  0
    3.6028   -0.1469    2.0852 H   0  0  0  0  0  0  0  0  0  0  0  0
  1  2  1  0
  1 27  1  0
  1 28  1  0
  1 29  1  0
  2 24  1  0
  2  3  1  0
  2  4  1  0
  3 30  1  0
  3 31  1  0
  3 32  1  0
  4 16  1  0
  4  5  1  0
  4 33  1  6
  5  6  1  0
  5  7  1  0
  5 34  1  6
  6 35  1  0
  8  7  1  1
  8 20  1  0
  8 24  1  0
  8  9  1  0
  9 10  2  3
  9 36  1  0
 10 11  1  0
 10 37  1  0
 11 12  2  0
 11 13  1  0
 13 25  1  0
 13 14  1  0
 13 38  1  6
 14 15  1  0
 15 25  1  0
 15 16  1  0
 15 39  1  1
 16 17  1  0
 16 40  1  6
 17 18  1  6
 17 19  1  0
 17 21  1  0
 18 41  1  0
 19 20  1  0
 19 42  1  0
 19 43  1  0
 20 44  1  0
 20 45  1  0
 21 22  1  0
 21 25  1  0
 21 46  1  6
 22 23  1  0
 22 47  1  0
 22 48  1  0
 23 24  1  0
 23 49  1  0
 23 50  1  0
 24 51  1  1
 25 26  1  6
 26 52  1  0
 26 53  1  0
 26 54  1  0
M  END
>  <i_m_ct_stereo_status>  (252) 
1

>  <s_m_source_file>  (252) 
/var/tmp/pbs.5076255.sched01/tmp_gsyjirk/108c9vsds16.sdf

>  <i_m_source_file_index>  (252) 
3

>  <i_lp_mmshare_version>  (252) 
48012

>  <i_f3d_flags>  (252) 
0

>  <s_epik_input>  (252) 
W0NAXTEyM1tDQEhdNEMoW0NIM10pKFtDSDNdKVtDQEBIXShbQ0BIXShPMSlbT0hdKVtDQEBIXTVbQ0hdNltDQEBdKFtDSDNdKShbQ0hdKE82KUMoPU8pL1tDSF09W0NIXVwyKVtDQEBIXShbQ0gyXVtDSDJdNClbQ0BdNShbT0hdKVtDSDJdW0NIMl0z

>  <s_epik_cmdline>  (252) 
J2VwaWtfcHl0aG9uJywgJy1waHQnLCAnMi4wJywgJy1waCcsICc3LjAnLCAnLXRuJywgJzgnLCAnLW1hJywgJzIwMCcsICctaW1hZScsICc8aW5maWxlLm1hZT4nLCAnLW9tYWUnLCAnPG91dGZpbGUubWFlPic=

>  <r_lp_tautomer_probability>  (252) 
1

>  <r_epik_Ionization_Penalty>  (252) 
9.90824e-08

>  <r_epik_Ionization_Penalty_Charging>  (252) 
0

>  <r_epik_Ionization_Penalty_Neutral>  (252) 
9.90824e-08

>  <r_epik_State_Penalty>  (252) 
-0

>  <r_epik_Charging_Adjusted_Penalty>  (252) 
0

>  <i_epik_Tot_Q>  (252) 
0

>  <i_epik_Tot_abs_Q>  (252) 
0

>  <s_epik_Chemistry_Notes>  (252) 
This compound contains an acetal/aminal-like group ( X-CH(R)-Y where X, Y are N, S, or O) that may be acid/base labile, releasing an aldehyde.

>  <s_lp_Force_Field>  (252) 
OPLS3e

>  <r_lp_Energy>  (252) 
601.041

>  <b_lp_Chiralities_Consistent>  (252) 
1

>  <s_lp_Variant>  (252) 
90:0-1

>  <s_i_glide_gridfile>  (252) 
pfpi4k_grid

>  <i_i_glide_lignum>  (252) 
3

>  <i_i_glide_rotatable_bonds>  (252) 
2

>  <r_i_docking_score>  (252) 
-2.91361

>  <r_i_glide_ligand_efficiency>  (252) 
-0.112062

>  <r_i_glide_ligand_efficiency_sa>  (252) 
-0.331983

>  <r_i_glide_ligand_efficiency_ln>  (252) 
-0.684252

>  <r_i_glide_gscore>  (252) 
-2.91361

>  <r_i_glide_lipo>  (252) 
-0.0459243

>  <r_i_glide_hbond>  (252) 
-0.137913

>  <r_i_glide_metal>  (252) 
-0

>  <r_i_glide_rewards>  (252) 
-0.952101

>  <r_i_glide_evdw>  (252) 
-14.7098

>  <r_i_glide_ecoul>  (252) 
-6.94787

>  <r_i_glide_erotb>  (252) 
0

>  <r_i_glide_esite>  (252) 
0

>  <r_i_glide_emodel>  (252) 
-26.3421

>  <r_i_glide_energy>  (252) 
-21.6577

>  <r_i_glide_einternal>  (252) 
0.235141

>  <r_i_glide_intrahb_reward>  (252) 
-0

>  <i_i_glide_confnum>  (252) 
1

>  <i_i_glide_posenum>  (252) 
28

>  <r_i_glide_eff_state_penalty>  (252) 
0

>  <ligand_id>  (252) 
90

>  <original_smiles>  (252) 
CC1(C)C2C(O)OC34C=CC(=O)C5OC6C2C(O)(CC3)C(CCC41)C56C

>  <smiles>  (252) 
[H]OC1([H])OC23C([H])=C([H])C(=O)C4([H])OC5([H])C6([H])C1([H])C(C([H])([H])[H])(C([H])([H])[H])C2([H])C([H])([H])C([H])([H])C([H])(C6(O[H])C([H])([H])C3([H])[H])C45C([H])([H])[H]

$$$$
90:0:2
     RDKit          3D

 54 59  0  0  1  0  0  0  0  0999 V2000
   -2.3401    2.8488    5.2133 C   0  0  0  0  0  0  0  0  0  0  0  0
   -0.9283    2.5953    4.5863 C   0  0  0  0  0  0  0  0  0  0  0  0
   -0.8648    3.7806    3.5633 C   0  0  0  0  0  0  0  0  0  0  0  0
    0.4064    2.5720    5.3711 C   0  0  1  0  0  0  0  0  0  0  0  0
   -0.0566    2.1027    6.8125 C   0  0  1  0  0  0  0  0  0  0  0  0
   -0.8130    3.0793    7.4895 O   0  0  0  0  0  0  0  0  0  0  0  0
   -0.7590    0.8554    6.6799 O   0  0  0  0  0  0  0  0  0  0  0  0
   -0.2322    0.1125    5.5737 C   0  0  2  0  0  0  0  0  0  0  0  0
   -0.6436   -1.3963    5.4681 C   0  0  0  0  0  0  0  0  0  0  0  0
   -0.0425   -2.5035    4.8759 C   0  0  0  0  0  0  0  0  0  0  0  0
    1.1709   -2.7370    3.9260 C   0  0  0  0  0  0  0  0  0  0  0  0
    1.7840   -3.7977    4.0337 O   0  0  0  0  0  0  0  0  0  0  0  0
    1.5561   -1.6969    2.7993 C   0  0  1  0  0  0  0  0  0  0  0  0
    0.6378   -0.7862    3.1717 O   0  0  0  0  0  0  0  0  0  0  0  0
    1.6702   -0.0231    3.8711 C   0  0  2  0  0  0  0  0  0  0  0  0
    1.5118    1.6924    4.4194 C   0  0  2  0  0  0  0  0  0  0  0  0
    2.8556    1.6225    4.4354 C   0  0  1  0  0  0  0  0  0  0  0  0
    3.5702    2.8456    4.5061 O   0  0  0  0  0  0  0  0  0  0  0  0
    2.6785    0.9436    5.9560 C   0  0  0  0  0  0  0  0  0  0  0  0
    1.3057    0.0304    6.3961 C   0  0  0  0  0  0  0  0  0  0  0  0
    2.6009    1.0256    2.8035 C   0  0  2  0  0  0  0  0  0  0  0  0
    1.1749    1.4576    1.9210 C   0  0  0  0  0  0  0  0  0  0  0  0
   -0.3984    1.2512    2.5229 C   0  0  0  0  0  0  0  0  0  0  0  0
   -0.8577    1.0997    4.1705 C   0  0  2  0  0  0  0  0  0  0  0  0
    2.6618   -0.4932    2.9228 C   0  0  2  0  0  0  0  0  0  0  0  0
    4.0950   -0.9452    3.2662 C   0  0  0  0  0  0  0  0  0  0  0  0
   -2.4447    3.8401    5.6534 H   0  0  0  0  0  0  0  0  0  0  0  0
   -2.6359    2.1056    5.9510 H   0  0  0  0  0  0  0  0  0  0  0  0
   -3.1029    2.7845    4.4342 H   0  0  0  0  0  0  0  0  0  0  0  0
    0.0195    3.8027    2.9309 H   0  0  0  0  0  0  0  0  0  0  0  0
   -0.8533    4.7338    4.0927 H   0  0  0  0  0  0  0  0  0  0  0  0
   -1.7306    3.8116    2.8985 H   0  0  0  0  0  0  0  0  0  0  0  0
    0.7917    3.5859    5.4989 H   0  0  0  0  0  0  0  0  0  0  0  0
    0.7992    2.0600    7.4819 H   0  0  0  0  0  0  0  0  0  0  0  0
   -1.5066    3.3392    6.9010 H   0  0  0  0  0  0  0  0  0  0  0  0
   -1.5239   -1.6145    6.0513 H   0  0  0  0  0  0  0  0  0  0  0  0
   -0.5599   -3.4274    5.0766 H   0  0  0  0  0  0  0  0  0  0  0  0
    1.4001   -2.0354    1.7739 H   0  0  0  0  0  0  0  0  0  0  0  0
    2.2086   -0.6802    4.5467 H   0  0  0  0  0  0  0  0  0  0  0  0
    1.4731    2.5745    3.7833 H   0  0  0  0  0  0  0  0  0  0  0  0
    3.7757    3.1303    3.6275 H   0  0  0  0  0  0  0  0  0  0  0  0
    3.5587    0.3261    6.1503 H   0  0  0  0  0  0  0  0  0  0  0  0
    2.7874    1.7504    6.6834 H   0  0  0  0  0  0  0  0  0  0  0  0
    1.1956    0.0565    7.4821 H   0  0  0  0  0  0  0  0  0  0  0  0
    1.6236   -1.0135    6.3957 H   0  0  0  0  0  0  0  0  0  0  0  0
    3.4321    1.3580    2.1892 H   0  0  0  0  0  0  0  0  0  0  0  0
    1.2802    2.5050    1.6348 H   0  0  0  0  0  0  0  0  0  0  0  0
    1.2099    0.9298    0.9645 H   0  0  0  0  0  0  0  0  0  0  0  0
   -1.0369    1.9599    2.0044 H   0  0  0  0  0  0  0  0  0  0  0  0
   -0.8153    0.3893    2.0037 H   0  0  0  0  0  0  0  0  0  0  0  0
   -1.8855    0.7410    4.0739 H   0  0  0  0  0  0  0  0  0  0  0  0
    4.7192   -0.1356    3.6357 H   0  0  0  0  0  0  0  0  0  0  0  0
    4.5800   -1.3556    2.3849 H   0  0  0  0  0  0  0  0  0  0  0  0
    4.1003   -1.7300    4.0228 H   0  0  0  0  0  0  0  0  0  0  0  0
  1  2  1  0
  1 27  1  0
  1 28  1  0
  1 29  1  0
  2 24  1  0
  2  3  1  0
  2  4  1  0
  3 30  1  0
  3 31  1  0
  3 32  1  0
  4 16  1  0
  4  5  1  0
  4 33  1  1
  5  6  1  0
  5  7  1  0
  5 34  1  1
  6 35  1  0
  8  7  1  1
  8 20  1  0
  8 24  1  0
  8  9  1  0
  9 10  2  3
  9 36  1  0
 10 11  1  0
 10 37  1  0
 11 12  2  0
 11 13  1  0
 13 25  1  0
 13 14  1  0
 13 38  1  6
 14 15  1  0
 15 25  1  0
 15 16  1  0
 15 39  1  1
 16 17  1  0
 16 40  1  6
 17 18  1  6
 17 19  1  0
 17 21  1  0
 18 41  1  0
 19 20  1  0
 19 42  1  0
 19 43  1  0
 20 44  1  0
 20 45  1  0
 21 22  1  0
 21 25  1  0
 21 46  1  6
 22 23  1  0
 22 47  1  0
 22 48  1  0
 23 24  1  0
 23 49  1  0
 23 50  1  0
 24 51  1  6
 25 26  1  1
 26 52  1  0
 26 53  1  0
 26 54  1  0
M  END
>  <i_m_ct_stereo_status>  (253) 
1

>  <s_m_source_file>  (253) 
/var/tmp/pbs.5076255.sched01/tmp_gsyjirk/108c9vsds16.sdf

>  <i_m_source_file_index>  (253) 
3

>  <i_lp_mmshare_version>  (253) 
48012

>  <i_f3d_flags>  (253) 
0

>  <s_epik_input>  (253) 
W0NAXTEyM1tDQEhdNEMoW0NIM10pKFtDSDNdKVtDQEBIXShbQ0BIXShPMSlbT0hdKVtDQEBIXTVbQ0hdNltDQEBdKFtDSDNdKShbQ0hdKE82KUMoPU8pL1tDSF09W0NIXVwyKVtDQEBIXShbQ0gyXVtDSDJdNClbQ0BdNShbT0hdKVtDSDJdW0NIMl0z

>  <s_epik_cmdline>  (253) 
J2VwaWtfcHl0aG9uJywgJy1waHQnLCAnMi4wJywgJy1waCcsICc3LjAnLCAnLXRuJywgJzgnLCAnLW1hJywgJzIwMCcsICctaW1hZScsICc8aW5maWxlLm1hZT4nLCAnLW9tYWUnLCAnPG91dGZpbGUubWFlPic=

>  <r_lp_tautomer_probability>  (253) 
1

>  <r_epik_Ionization_Penalty>  (253) 
9.90824e-08

>  <r_epik_Ionization_Penalty_Charging>  (253) 
0

>  <r_epik_Ionization_Penalty_Neutral>  (253) 
9.90824e-08

>  <r_epik_State_Penalty>  (253) 
-0

>  <r_epik_Charging_Adjusted_Penalty>  (253) 
0

>  <i_epik_Tot_Q>  (253) 
0

>  <i_epik_Tot_abs_Q>  (253) 
0

>  <s_epik_Chemistry_Notes>  (253) 
This compound contains an acetal/aminal-like group ( X-CH(R)-Y where X, Y are N, S, or O) that may be acid/base labile, releasing an aldehyde.

>  <s_lp_Force_Field>  (253) 
OPLS3e

>  <r_lp_Energy>  (253) 
601.041

>  <b_lp_Chiralities_Consistent>  (253) 
1

>  <s_lp_Variant>  (253) 
90:0-1

>  <s_i_glide_gridfile>  (253) 
pfpi4k_grid

>  <i_i_glide_lignum>  (253) 
3

>  <i_i_glide_rotatable_bonds>  (253) 
2

>  <r_i_docking_score>  (253) 
-2.36068

>  <r_i_glide_ligand_efficiency>  (253) 
-0.0907955

>  <r_i_glide_ligand_efficiency_sa>  (253) 
-0.268981

>  <r_i_glide_ligand_efficiency_ln>  (253) 
-0.554399

>  <r_i_glide_gscore>  (253) 
-2.36068

>  <r_i_glide_lipo>  (253) 
-0.0238825

>  <r_i_glide_hbond>  (253) 
-0.0479406

>  <r_i_glide_metal>  (253) 
-0

>  <r_i_glide_rewards>  (253) 
-0.997891

>  <r_i_glide_evdw>  (253) 
-18.644

>  <r_i_glide_ecoul>  (253) 
-2.38168

>  <r_i_glide_erotb>  (253) 
0

>  <r_i_glide_esite>  (253) 
-0.00151671

>  <r_i_glide_emodel>  (253) 
-24.7445

>  <r_i_glide_energy>  (253) 
-21.0257

>  <r_i_glide_einternal>  (253) 
0.340483

>  <r_i_glide_intrahb_reward>  (253) 
-0

>  <i_i_glide_confnum>  (253) 
1

>  <i_i_glide_posenum>  (253) 
5

>  <r_i_glide_eff_state_penalty>  (253) 
0

>  <ligand_id>  (253) 
90

>  <original_smiles>  (253) 
CC1(C)C2C(O)OC34C=CC(=O)C5OC6C2C(O)(CC3)C(CCC41)C56C

>  <smiles>  (253) 
[H]OC1([H])OC23C([H])=C([H])C(=O)C4([H])OC5([H])C6([H])C1([H])C(C([H])([H])[H])(C([H])([H])[H])C2([H])C([H])([H])C([H])([H])C([H])(C6(O[H])C([H])([H])C3([H])[H])C45C([H])([H])[H]

$$$$
90:1:0
     RDKit          3D

 54 59  0  0  1  0  0  0  0  0999 V2000
    3.8566   -1.7915   -2.4860 C   0  0  0  0  0  0  0  0  0  0  0  0
    3.7846   -2.8366   -1.3258 C   0  0  0  0  0  0  0  0  0  0  0  0
    2.3523   -3.4283   -1.5865 C   0  0  0  0  0  0  0  0  0  0  0  0
    4.8175   -3.9587   -1.1550 C   0  0  1  0  0  0  0  0  0  0  0  0
    6.1935   -3.2445   -1.6435 C   0  0  1  0  0  0  0  0  0  0  0  0
    6.2174   -3.0823   -3.0540 O   0  0  0  0  0  0  0  0  0  0  0  0
    6.3971   -2.0098   -0.9432 O   0  0  0  0  0  0  0  0  0  0  0  0
    5.9185   -2.2722    0.3570 C   0  0  1  0  0  0  0  0  0  0  0  0
    7.0233   -3.4206    0.8983 C   0  0  0  0  0  0  0  0  0  0  0  0
    7.2279   -4.7756    0.6528 C   0  0  0  0  0  0  0  0  0  0  0  0
    7.1266   -5.8449    1.7146 C   0  0  0  0  0  0  0  0  0  0  0  0
    8.0956   -6.0580    2.4398 O   0  0  0  0  0  0  0  0  0  0  0  0
    5.7227   -6.6460    1.8376 C   0  0  2  0  0  0  0  0  0  0  0  0
    5.4111   -6.9870    0.4955 O   0  0  0  0  0  0  0  0  0  0  0  0
    4.3215   -6.0494    0.5348 C   0  0  2  0  0  0  0  0  0  0  0  0
    4.6096   -4.5966    0.4075 C   0  0  1  0  0  0  0  0  0  0  0  0
    4.7481   -3.8810    2.0756 C   0  0  1  0  0  0  0  0  0  0  0  0
    5.5076   -4.3345    3.2035 O   0  0  0  0  0  0  0  0  0  0  0  0
    5.1130   -2.3335    2.5788 C   0  0  0  0  0  0  0  0  0  0  0  0
    5.8486   -1.3821    1.5662 C   0  0  0  0  0  0  0  0  0  0  0  0
    3.6333   -4.6533    2.5747 C   0  0  1  0  0  0  0  0  0  0  0  0
    2.5065   -3.7043    1.9284 C   0  0  0  0  0  0  0  0  0  0  0  0
    2.8964   -2.3596    1.0512 C   0  0  0  0  0  0  0  0  0  0  0  0
    4.1823   -2.1742    0.0181 C   0  0  2  0  0  0  0  0  0  0  0  0
    4.1437   -6.1240    2.0119 C   0  0  2  0  0  0  0  0  0  0  0  0
    3.1937   -7.1993    2.5354 C   0  0  0  0  0  0  0  0  0  0  0  0
    3.8118   -2.2662   -3.4673 H   0  0  0  0  0  0  0  0  0  0  0  0
    4.7362   -1.1509   -2.4619 H   0  0  0  0  0  0  0  0  0  0  0  0
    3.0169   -1.0977   -2.4345 H   0  0  0  0  0  0  0  0  0  0  0  0
    1.9451   -4.1263   -0.8598 H   0  0  0  0  0  0  0  0  0  0  0  0
    2.3271   -3.9318   -2.5500 H   0  0  0  0  0  0  0  0  0  0  0  0
    1.6078   -2.6683   -1.7128 H   0  0  0  0  0  0  0  0  0  0  0  0
    4.6200   -4.7544   -1.8681 H   0  0  0  0  0  0  0  0  0  0  0  0
    7.0832   -3.8493   -1.5686 H   0  0  0  0  0  0  0  0  0  0  0  0
    7.1222   -3.0545   -3.3387 H   0  0  0  0  0  0  0  0  0  0  0  0
    7.3746   -3.1887    1.8814 H   0  0  0  0  0  0  0  0  0  0  0  0
    6.8705   -5.2436   -0.2400 H   0  0  0  0  0  0  0  0  0  0  0  0
    5.8412   -7.5443    2.4435 H   0  0  0  0  0  0  0  0  0  0  0  0
    3.4641   -6.4361   -0.0073 H   0  0  0  0  0  0  0  0  0  0  0  0
    3.5901   -4.5297    0.1739 H   0  0  0  0  0  0  0  0  0  0  0  0
    5.1627   -3.9366    3.9825 H   0  0  0  0  0  0  0  0  0  0  0  0
    4.2654   -1.8361    3.0454 H   0  0  0  0  0  0  0  0  0  0  0  0
    5.7639   -2.2711    3.4566 H   0  0  0  0  0  0  0  0  0  0  0  0
    6.8376   -1.0901    1.9214 H   0  0  0  0  0  0  0  0  0  0  0  0
    5.3036   -0.4504    1.4082 H   0  0  0  0  0  0  0  0  0  0  0  0
    3.4287   -4.6769    3.6553 H   0  0  0  0  0  0  0  0  0  0  0  0
    1.8334   -4.3365    1.3551 H   0  0  0  0  0  0  0  0  0  0  0  0
    1.8880   -3.3343    2.7478 H   0  0  0  0  0  0  0  0  0  0  0  0
    2.0020   -2.1452    0.4880 H   0  0  0  0  0  0  0  0  0  0  0  0
    2.8512   -1.4776    1.6862 H   0  0  0  0  0  0  0  0  0  0  0  0
    4.0652   -1.1184   -0.2084 H   0  0  0  0  0  0  0  0  0  0  0  0
    2.1524   -6.9931    2.2861 H   0  0  0  0  0  0  0  0  0  0  0  0
    3.2706   -7.3048    3.6173 H   0  0  0  0  0  0  0  0  0  0  0  0
    3.4339   -8.1748    2.1112 H   0  0  0  0  0  0  0  0  0  0  0  0
  1  2  1  0
  1 27  1  0
  1 28  1  0
  1 29  1  0
  2 24  1  0
  2  3  1  0
  2  4  1  0
  3 30  1  0
  3 31  1  0
  3 32  1  0
  4 16  1  0
  4  5  1  0
  4 33  1  6
  5  6  1  0
  5  7  1  0
  5 34  1  6
  6 35  1  0
  8  7  1  6
  8 20  1  0
  8 24  1  0
  8  9  1  0
  9 10  2  3
  9 36  1  0
 10 11  1  0
 10 37  1  0
 11 12  2  0
 11 13  1  0
 13 25  1  0
 13 14  1  0
 13 38  1  1
 14 15  1  0
 15 25  1  0
 15 16  1  0
 15 39  1  6
 16 17  1  0
 16 40  1  6
 17 18  1  1
 17 19  1  0
 17 21  1  0
 18 41  1  0
 19 20  1  0
 19 42  1  0
 19 43  1  0
 20 44  1  0
 20 45  1  0
 21 22  1  0
 21 25  1  0
 21 46  1  1
 22 23  1  0
 22 47  1  0
 22 48  1  0
 23 24  1  0
 23 49  1  0
 23 50  1  0
 24 51  1  6
 25 26  1  6
 26 52  1  0
 26 53  1  0
 26 54  1  0
M  END
>  <i_m_ct_stereo_status>  (254) 
1

>  <s_m_source_file>  (254) 
/var/tmp/pbs.5076255.sched01/tmp_gsyjirk/108c9vsds16.sdf

>  <i_m_source_file_index>  (254) 
4

>  <i_lp_mmshare_version>  (254) 
48012

>  <i_f3d_flags>  (254) 
2

>  <s_epik_input>  (254) 
W0NAXTEyM1tDQEhdNEMoW0NIM10pKFtDSDNdKVtDQEBIXShbQ0BIXShPMSlbT0hdKVtDQEBIXTVbQ0hdNltDQEBdKFtDSDNdKShbQ0hdKE82KUMoPU8pL1tDSF09W0NIXVwyKVtDQEBIXShbQ0gyXVtDSDJdNClbQ0BdNShbT0hdKVtDSDJdW0NIMl0z

>  <s_epik_cmdline>  (254) 
J2VwaWtfcHl0aG9uJywgJy1waHQnLCAnMi4wJywgJy1waCcsICc3LjAnLCAnLXRuJywgJzgnLCAnLW1hJywgJzIwMCcsICctaW1hZScsICc8aW5maWxlLm1hZT4nLCAnLW9tYWUnLCAnPG91dGZpbGUubWFlPic=

>  <r_lp_tautomer_probability>  (254) 
1

>  <r_epik_Ionization_Penalty>  (254) 
9.90824e-08

>  <r_epik_Ionization_Penalty_Charging>  (254) 
0

>  <r_epik_Ionization_Penalty_Neutral>  (254) 
9.90824e-08

>  <r_epik_State_Penalty>  (254) 
-0

>  <r_epik_Charging_Adjusted_Penalty>  (254) 
0

>  <i_epik_Tot_Q>  (254) 
0

>  <i_epik_Tot_abs_Q>  (254) 
0

>  <s_epik_Chemistry_Notes>  (254) 
This compound contains an acetal/aminal-like group ( X-CH(R)-Y where X, Y are N, S, or O) that may be acid/base labile, releasing an aldehyde.

>  <s_lp_Force_Field>  (254) 
OPLS3e

>  <r_lp_Energy>  (254) 
472.927

>  <b_lp_Chiralities_Consistent>  (254) 
0

>  <s_lp_Variant>  (254) 
90:0-2

>  <s_i_glide_gridfile>  (254) 
pfpi4k_grid

>  <i_i_glide_lignum>  (254) 
4

>  <i_i_glide_rotatable_bonds>  (254) 
2

>  <r_i_docking_score>  (254) 
-3.98479

>  <r_i_glide_ligand_efficiency>  (254) 
-0.153261

>  <r_i_glide_ligand_efficiency_sa>  (254) 
-0.454035

>  <r_i_glide_ligand_efficiency_ln>  (254) 
-0.935814

>  <r_i_glide_gscore>  (254) 
-3.98479

>  <r_i_glide_lipo>  (254) 
-0.896695

>  <r_i_glide_hbond>  (254) 
-0.137702

>  <r_i_glide_metal>  (254) 
-0

>  <r_i_glide_rewards>  (254) 
-1.23708

>  <r_i_glide_evdw>  (254) 
-16.0379

>  <r_i_glide_ecoul>  (254) 
-6.0761

>  <r_i_glide_erotb>  (254) 
0

>  <r_i_glide_esite>  (254) 
0

>  <r_i_glide_emodel>  (254) 
-26.3517

>  <r_i_glide_energy>  (254) 
-22.114

>  <r_i_glide_einternal>  (254) 
0.603006

>  <r_i_glide_intrahb_reward>  (254) 
-0

>  <i_i_glide_confnum>  (254) 
1

>  <i_i_glide_posenum>  (254) 
27

>  <r_i_glide_eff_state_penalty>  (254) 
0

>  <ligand_id>  (254) 
90

>  <original_smiles>  (254) 
CC1(C)C2C(O)OC34C=CC(=O)C5OC6C2C(O)(CC3)C(CCC41)C56C

>  <smiles>  (254) 
[H]OC1([H])OC23C([H])=C([H])C(=O)C4([H])OC5([H])C6([H])C1([H])C(C([H])([H])[H])(C([H])([H])[H])C2([H])C([H])([H])C([H])([H])C([H])(C6(O[H])C([H])([H])C3([H])[H])C45C([H])([H])[H]

$$$$
90:1:1
     RDKit          3D

 54 59  0  0  1  0  0  0  0  0999 V2000
    2.2567   -3.4155   -2.8565 C   0  0  0  0  0  0  0  0  0  0  0  0
    3.0071   -3.6447   -1.4832 C   0  0  0  0  0  0  0  0  0  0  0  0
    1.9593   -4.4860   -0.6951 C   0  0  0  0  0  0  0  0  0  0  0  0
    4.4114   -4.2545   -1.3436 C   0  0  1  0  0  0  0  0  0  0  0  0
    5.1324   -3.7476   -2.7257 C   0  0  1  0  0  0  0  0  0  0  0  0
    4.6093   -4.4024   -3.8635 O   0  0  0  0  0  0  0  0  0  0  0  0
    5.0229   -2.3267   -2.8432 O   0  0  0  0  0  0  0  0  0  0  0  0
    5.1180   -1.8639   -1.5205 C   0  0  1  0  0  0  0  0  0  0  0  0
    6.7188   -2.2251   -1.1289 C   0  0  0  0  0  0  0  0  0  0  0  0
    7.3580   -3.3886   -0.7982 C   0  0  0  0  0  0  0  0  0  0  0  0
    8.0705   -3.7064    0.4919 C   0  0  0  0  0  0  0  0  0  0  0  0
    9.2525   -3.3844    0.6362 O   0  0  0  0  0  0  0  0  0  0  0  0
    7.2299   -4.4921    1.6314 C   0  0  2  0  0  0  0  0  0  0  0  0
    6.6714   -5.6019    0.9072 O   0  0  0  0  0  0  0  0  0  0  0  0
    5.3596   -5.0213    1.0941 C   0  0  2  0  0  0  0  0  0  0  0  0
    4.9636   -3.8807    0.2200 C   0  0  1  0  0  0  0  0  0  0  0  0
    5.3225   -2.3223    1.0651 C   0  0  1  0  0  0  0  0  0  0  0  0
    6.5240   -1.8844    1.6742 O   0  0  0  0  0  0  0  0  0  0  0  0
    5.1563   -0.7409    0.5535 C   0  0  0  0  0  0  0  0  0  0  0  0
    5.0618   -0.5043   -0.9901 C   0  0  0  0  0  0  0  0  0  0  0  0
    4.8511   -2.8221    2.3274 C   0  0  1  0  0  0  0  0  0  0  0  0
    3.2885   -2.6294    1.9869 C   0  0  0  0  0  0  0  0  0  0  0  0
    2.7970   -2.0208    0.5361 C   0  0  0  0  0  0  0  0  0  0  0  0
    3.4844   -2.2720   -0.9594 C   0  0  2  0  0  0  0  0  0  0  0  0
    5.7165   -4.2354    2.3093 C   0  0  2  0  0  0  0  0  0  0  0  0
    5.4970   -4.9305    3.6574 C   0  0  0  0  0  0  0  0  0  0  0  0
    2.0468   -4.2975   -3.4418 H   0  0  0  0  0  0  0  0  0  0  0  0
    2.7582   -2.7398   -3.5485 H   0  0  0  0  0  0  0  0  0  0  0  0
    1.2680   -2.9787   -2.6958 H   0  0  0  0  0  0  0  0  0  0  0  0
    2.0963   -4.6484    0.3739 H   0  0  0  0  0  0  0  0  0  0  0  0
    1.7974   -5.4693   -1.1192 H   0  0  0  0  0  0  0  0  0  0  0  0
    1.0099   -3.9822   -0.8355 H   0  0  0  0  0  0  0  0  0  0  0  0
    4.4397   -5.3380   -1.3237 H   0  0  0  0  0  0  0  0  0  0  0  0
    6.1609   -4.0425   -2.8429 H   0  0  0  0  0  0  0  0  0  0  0  0
    3.9598   -5.0034   -3.5479 H   0  0  0  0  0  0  0  0  0  0  0  0
    7.2424   -1.3994   -0.6541 H   0  0  0  0  0  0  0  0  0  0  0  0
    6.8463   -4.2624   -1.0700 H   0  0  0  0  0  0  0  0  0  0  0  0
    7.8775   -4.8656    2.4224 H   0  0  0  0  0  0  0  0  0  0  0  0
    4.6085   -5.7814    1.2883 H   0  0  0  0  0  0  0  0  0  0  0  0
    3.9965   -4.1368    0.5156 H   0  0  0  0  0  0  0  0  0  0  0  0
    6.3543   -1.0613    2.1141 H   0  0  0  0  0  0  0  0  0  0  0  0
    4.3828   -0.1932    1.0932 H   0  0  0  0  0  0  0  0  0  0  0  0
    5.9649   -0.0530    0.8143 H   0  0  0  0  0  0  0  0  0  0  0  0
    5.8627    0.0552   -1.3874 H   0  0  0  0  0  0  0  0  0  0  0  0
    4.2147    0.0597   -1.3011 H   0  0  0  0  0  0  0  0  0  0  0  0
    5.0512   -2.2252    3.2277 H   0  0  0  0  0  0  0  0  0  0  0  0
    2.7438   -3.5549    2.1931 H   0  0  0  0  0  0  0  0  0  0  0  0
    2.8821   -1.9317    2.7213 H   0  0  0  0  0  0  0  0  0  0  0  0
    1.7659   -2.3281    0.5143 H   0  0  0  0  0  0  0  0  0  0  0  0
    2.6166   -0.9536    0.6207 H   0  0  0  0  0  0  0  0  0  0  0  0
    2.8891   -1.5820   -1.5484 H   0  0  0  0  0  0  0  0  0  0  0  0
    4.4377   -5.0713    3.8851 H   0  0  0  0  0  0  0  0  0  0  0  0
    5.9359   -4.3582    4.4737 H   0  0  0  0  0  0  0  0  0  0  0  0
    5.9598   -5.9133    3.6708 H   0  0  0  0  0  0  0  0  0  0  0  0
  1  2  1  0
  1 27  1  0
  1 28  1  0
  1 29  1  0
  2 24  1  0
  2  3  1  0
  2  4  1  0
  3 30  1  0
  3 31  1  0
  3 32  1  0
  4 16  1  0
  4  5  1  0
  4 33  1  6
  5  6  1  0
  5  7  1  0
  5 34  1  1
  6 35  1  0
  8  7  1  6
  8 20  1  0
  8 24  1  0
  8  9  1  0
  9 10  2  3
  9 36  1  0
 10 11  1  0
 10 37  1  0
 11 12  2  0
 11 13  1  0
 13 25  1  0
 13 14  1  0
 13 38  1  1
 14 15  1  0
 15 25  1  0
 15 16  1  0
 15 39  1  1
 16 17  1  0
 16 40  1  1
 17 18  1  1
 17 19  1  0
 17 21  1  0
 18 41  1  0
 19 20  1  0
 19 42  1  0
 19 43  1  0
 20 44  1  0
 20 45  1  0
 21 22  1  0
 21 25  1  0
 21 46  1  1
 22 23  1  0
 22 47  1  0
 22 48  1  0
 23 24  1  0
 23 49  1  0
 23 50  1  0
 24 51  1  6
 25 26  1  1
 26 52  1  0
 26 53  1  0
 26 54  1  0
M  END
>  <i_m_ct_stereo_status>  (255) 
1

>  <s_m_source_file>  (255) 
/var/tmp/pbs.5076255.sched01/tmp_gsyjirk/108c9vsds16.sdf

>  <i_m_source_file_index>  (255) 
4

>  <i_lp_mmshare_version>  (255) 
48012

>  <i_f3d_flags>  (255) 
2

>  <s_epik_input>  (255) 
W0NAXTEyM1tDQEhdNEMoW0NIM10pKFtDSDNdKVtDQEBIXShbQ0BIXShPMSlbT0hdKVtDQEBIXTVbQ0hdNltDQEBdKFtDSDNdKShbQ0hdKE82KUMoPU8pL1tDSF09W0NIXVwyKVtDQEBIXShbQ0gyXVtDSDJdNClbQ0BdNShbT0hdKVtDSDJdW0NIMl0z

>  <s_epik_cmdline>  (255) 
J2VwaWtfcHl0aG9uJywgJy1waHQnLCAnMi4wJywgJy1waCcsICc3LjAnLCAnLXRuJywgJzgnLCAnLW1hJywgJzIwMCcsICctaW1hZScsICc8aW5maWxlLm1hZT4nLCAnLW9tYWUnLCAnPG91dGZpbGUubWFlPic=

>  <r_lp_tautomer_probability>  (255) 
1

>  <r_epik_Ionization_Penalty>  (255) 
9.90824e-08

>  <r_epik_Ionization_Penalty_Charging>  (255) 
0

>  <r_epik_Ionization_Penalty_Neutral>  (255) 
9.90824e-08

>  <r_epik_State_Penalty>  (255) 
-0

>  <r_epik_Charging_Adjusted_Penalty>  (255) 
0

>  <i_epik_Tot_Q>  (255) 
0

>  <i_epik_Tot_abs_Q>  (255) 
0

>  <s_epik_Chemistry_Notes>  (255) 
This compound contains an acetal/aminal-like group ( X-CH(R)-Y where X, Y are N, S, or O) that may be acid/base labile, releasing an aldehyde.

>  <s_lp_Force_Field>  (255) 
OPLS3e

>  <r_lp_Energy>  (255) 
472.927

>  <b_lp_Chiralities_Consistent>  (255) 
0

>  <s_lp_Variant>  (255) 
90:0-2

>  <s_i_glide_gridfile>  (255) 
pfpi4k_grid

>  <i_i_glide_lignum>  (255) 
4

>  <i_i_glide_rotatable_bonds>  (255) 
2

>  <r_i_docking_score>  (255) 
-3.8741

>  <r_i_glide_ligand_efficiency>  (255) 
-0.149004

>  <r_i_glide_ligand_efficiency_sa>  (255) 
-0.441423

>  <r_i_glide_ligand_efficiency_ln>  (255) 
-0.90982

>  <r_i_glide_gscore>  (255) 
-3.8741

>  <r_i_glide_lipo>  (255) 
-0.901157

>  <r_i_glide_hbond>  (255) 
-0.0571288

>  <r_i_glide_metal>  (255) 
-0

>  <r_i_glide_rewards>  (255) 
-1.32872

>  <r_i_glide_evdw>  (255) 
-9.0198

>  <r_i_glide_ecoul>  (255) 
-7.57405

>  <r_i_glide_erotb>  (255) 
0

>  <r_i_glide_esite>  (255) 
0

>  <r_i_glide_emodel>  (255) 
-19.2064

>  <r_i_glide_energy>  (255) 
-16.5939

>  <r_i_glide_einternal>  (255) 
1.85815

>  <r_i_glide_intrahb_reward>  (255) 
-0

>  <i_i_glide_confnum>  (255) 
2

>  <i_i_glide_posenum>  (255) 
1

>  <r_i_glide_eff_state_penalty>  (255) 
0

>  <ligand_id>  (255) 
90

>  <original_smiles>  (255) 
CC1(C)C2C(O)OC34C=CC(=O)C5OC6C2C(O)(CC3)C(CCC41)C56C

>  <smiles>  (255) 
[H]OC1([H])OC23C([H])=C([H])C(=O)C4([H])OC5([H])C6([H])C1([H])C(C([H])([H])[H])(C([H])([H])[H])C2([H])C([H])([H])C([H])([H])C([H])(C6(O[H])C([H])([H])C3([H])[H])C45C([H])([H])[H]

$$$$
90:1:2
     RDKit          3D

 54 59  0  0  1  0  0  0  0  0999 V2000
    1.5399   -7.1228    3.0606 C   0  0  0  0  0  0  0  0  0  0  0  0
    2.2259   -5.9936    2.2201 C   0  0  0  0  0  0  0  0  0  0  0  0
    1.4721   -6.1883    0.8566 C   0  0  0  0  0  0  0  0  0  0  0  0
    2.2264   -4.5180    2.6629 C   0  0  1  0  0  0  0  0  0  0  0  0
    2.3436   -4.6374    4.2833 C   0  0  1  0  0  0  0  0  0  0  0  0
    1.1333   -5.0808    4.8677 O   0  0  0  0  0  0  0  0  0  0  0  0
    3.4576   -5.4663    4.6379 O   0  0  0  0  0  0  0  0  0  0  0  0
    4.4436   -5.1708    3.6838 C   0  0  1  0  0  0  0  0  0  0  0  0
    4.7989   -3.5599    4.0561 C   0  0  0  0  0  0  0  0  0  0  0  0
    4.1523   -2.3487    3.8438 C   0  0  0  0  0  0  0  0  0  0  0  0
    4.7250   -1.2248    3.0063 C   0  0  0  0  0  0  0  0  0  0  0  0
    5.5337   -0.4489    3.5002 O   0  0  0  0  0  0  0  0  0  0  0  0
    4.2397   -1.1252    1.4673 C   0  0  2  0  0  0  0  0  0  0  0  0
    2.8292   -1.2644    1.5679 O   0  0  0  0  0  0  0  0  0  0  0  0
    2.9379   -2.5449    0.9117 C   0  0  2  0  0  0  0  0  0  0  0  0
    3.3903   -3.7171    1.7125 C   0  0  1  0  0  0  0  0  0  0  0  0
    5.1873   -3.9258    1.5124 C   0  0  1  0  0  0  0  0  0  0  0  0
    6.2343   -2.9586    1.6522 O   0  0  0  0  0  0  0  0  0  0  0  0
    6.2536   -5.0180    2.1916 C   0  0  0  0  0  0  0  0  0  0  0  0
    5.8250   -5.7208    3.5240 C   0  0  0  0  0  0  0  0  0  0  0  0
    5.1275   -3.6288    0.1034 C   0  0  1  0  0  0  0  0  0  0  0  0
    4.6132   -5.0954   -0.3247 C   0  0  0  0  0  0  0  0  0  0  0  0
    4.3496   -6.2970    0.7843 C   0  0  0  0  0  0  0  0  0  0  0  0
    3.7687   -6.1064    2.3314 C   0  0  2  0  0  0  0  0  0  0  0  0
    4.2269   -2.2402    0.2231 C   0  0  2  0  0  0  0  0  0  0  0  0
    4.1267   -1.6184   -1.1710 C   0  0  0  0  0  0  0  0  0  0  0  0
    0.4679   -6.9579    3.1849 H   0  0  0  0  0  0  0  0  0  0  0  0
    1.9896   -7.2972    4.0371 H   0  0  0  0  0  0  0  0  0  0  0  0
    1.6402   -8.0878    2.5570 H   0  0  0  0  0  0  0  0  0  0  0  0
    1.8113   -5.6080    0.0028 H   0  0  0  0  0  0  0  0  0  0  0  0
    0.4208   -5.9450    0.9877 H   0  0  0  0  0  0  0  0  0  0  0  0
    1.4758   -7.2258    0.5246 H   0  0  0  0  0  0  0  0  0  0  0  0
    1.2588   -4.0559    2.4795 H   0  0  0  0  0  0  0  0  0  0  0  0
    2.4058   -3.7030    4.8140 H   0  0  0  0  0  0  0  0  0  0  0  0
    0.9438   -5.9217    4.4994 H   0  0  0  0  0  0  0  0  0  0  0  0
    5.8599   -3.3952    4.1209 H   0  0  0  0  0  0  0  0  0  0  0  0
    3.0902   -2.2871    3.7031 H   0  0  0  0  0  0  0  0  0  0  0  0
    4.4974   -0.1564    1.0434 H   0  0  0  0  0  0  0  0  0  0  0  0
    2.1247   -2.6977    0.2038 H   0  0  0  0  0  0  0  0  0  0  0  0
    2.9687   -4.2753    0.9283 H   0  0  0  0  0  0  0  0  0  0  0  0
    5.9547   -2.1397    1.2909 H   0  0  0  0  0  0  0  0  0  0  0  0
    6.6540   -5.7083    1.4552 H   0  0  0  0  0  0  0  0  0  0  0  0
    7.2433   -4.6428    2.4538 H   0  0  0  0  0  0  0  0  0  0  0  0
    6.4789   -5.4513    4.3506 H   0  0  0  0  0  0  0  0  0  0  0  0
    5.8813   -6.8025    3.4365 H   0  0  0  0  0  0  0  0  0  0  0  0
    6.0640   -3.4673   -0.4513 H   0  0  0  0  0  0  0  0  0  0  0  0
    3.7340   -4.9736   -0.9503 H   0  0  0  0  0  0  0  0  0  0  0  0
    5.3510   -5.5043   -1.0137 H   0  0  0  0  0  0  0  0  0  0  0  0
    3.7301   -7.0343    0.2833 H   0  0  0  0  0  0  0  0  0  0  0  0
    5.2302   -6.9318    0.8431 H   0  0  0  0  0  0  0  0  0  0  0  0
    3.9016   -7.1242    2.6880 H   0  0  0  0  0  0  0  0  0  0  0  0
    3.7354   -2.3194   -1.9075 H   0  0  0  0  0  0  0  0  0  0  0  0
    5.0931   -1.2613   -1.5249 H   0  0  0  0  0  0  0  0  0  0  0  0
    3.4541   -0.7618   -1.1681 H   0  0  0  0  0  0  0  0  0  0  0  0
  1  2  1  0
  1 27  1  0
  1 28  1  0
  1 29  1  0
  2 24  1  0
  2  3  1  0
  2  4  1  0
  3 30  1  0
  3 31  1  0
  3 32  1  0
  4 16  1  0
  4  5  1  0
  4 33  1  1
  5  6  1  0
  5  7  1  0
  5 34  1  1
  6 35  1  0
  8  7  1  1
  8 20  1  0
  8 24  1  0
  8  9  1  0
  9 10  2  3
  9 36  1  0
 10 11  1  0
 10 37  1  0
 11 12  2  0
 11 13  1  0
 13 25  1  0
 13 14  1  0
 13 38  1  6
 14 15  1  0
 15 25  1  0
 15 16  1  0
 15 39  1  6
 16 17  1  0
 16 40  1  6
 17 18  1  1
 17 19  1  0
 17 21  1  0
 18 41  1  0
 19 20  1  0
 19 42  1  0
 19 43  1  0
 20 44  1  0
 20 45  1  0
 21 22  1  0
 21 25  1  0
 21 46  1  6
 22 23  1  0
 22 47  1  0
 22 48  1  0
 23 24  1  0
 23 49  1  0
 23 50  1  0
 24 51  1  1
 25 26  1  6
 26 52  1  0
 26 53  1  0
 26 54  1  0
M  END
>  <i_m_ct_stereo_status>  (256) 
1

>  <s_m_source_file>  (256) 
/var/tmp/pbs.5076255.sched01/tmp_gsyjirk/108c9vsds16.sdf

>  <i_m_source_file_index>  (256) 
4

>  <i_lp_mmshare_version>  (256) 
48012

>  <i_f3d_flags>  (256) 
2

>  <s_epik_input>  (256) 
W0NAXTEyM1tDQEhdNEMoW0NIM10pKFtDSDNdKVtDQEBIXShbQ0BIXShPMSlbT0hdKVtDQEBIXTVbQ0hdNltDQEBdKFtDSDNdKShbQ0hdKE82KUMoPU8pL1tDSF09W0NIXVwyKVtDQEBIXShbQ0gyXVtDSDJdNClbQ0BdNShbT0hdKVtDSDJdW0NIMl0z

>  <s_epik_cmdline>  (256) 
J2VwaWtfcHl0aG9uJywgJy1waHQnLCAnMi4wJywgJy1waCcsICc3LjAnLCAnLXRuJywgJzgnLCAnLW1hJywgJzIwMCcsICctaW1hZScsICc8aW5maWxlLm1hZT4nLCAnLW9tYWUnLCAnPG91dGZpbGUubWFlPic=

>  <r_lp_tautomer_probability>  (256) 
1

>  <r_epik_Ionization_Penalty>  (256) 
9.90824e-08

>  <r_epik_Ionization_Penalty_Charging>  (256) 
0

>  <r_epik_Ionization_Penalty_Neutral>  (256) 
9.90824e-08

>  <r_epik_State_Penalty>  (256) 
-0

>  <r_epik_Charging_Adjusted_Penalty>  (256) 
0

>  <i_epik_Tot_Q>  (256) 
0

>  <i_epik_Tot_abs_Q>  (256) 
0

>  <s_epik_Chemistry_Notes>  (256) 
This compound contains an acetal/aminal-like group ( X-CH(R)-Y where X, Y are N, S, or O) that may be acid/base labile, releasing an aldehyde.

>  <s_lp_Force_Field>  (256) 
OPLS3e

>  <r_lp_Energy>  (256) 
472.927

>  <b_lp_Chiralities_Consistent>  (256) 
0

>  <s_lp_Variant>  (256) 
90:0-2

>  <s_i_glide_gridfile>  (256) 
pfpi4k_grid

>  <i_i_glide_lignum>  (256) 
4

>  <i_i_glide_rotatable_bonds>  (256) 
2

>  <r_i_docking_score>  (256) 
-2.17512

>  <r_i_glide_ligand_efficiency>  (256) 
-0.0836585

>  <r_i_glide_ligand_efficiency_sa>  (256) 
-0.247838

>  <r_i_glide_ligand_efficiency_ln>  (256) 
-0.51082

>  <r_i_glide_gscore>  (256) 
-2.17512

>  <r_i_glide_lipo>  (256) 
-0.292008

>  <r_i_glide_hbond>  (256) 
0

>  <r_i_glide_metal>  (256) 
-0

>  <r_i_glide_rewards>  (256) 
-1.04094

>  <r_i_glide_evdw>  (256) 
-16.276

>  <r_i_glide_ecoul>  (256) 
-0.189135

>  <r_i_glide_erotb>  (256) 
0

>  <r_i_glide_esite>  (256) 
0

>  <r_i_glide_emodel>  (256) 
-18.8926

>  <r_i_glide_energy>  (256) 
-16.4652

>  <r_i_glide_einternal>  (256) 
0.190033

>  <r_i_glide_intrahb_reward>  (256) 
-0

>  <i_i_glide_confnum>  (256) 
1

>  <i_i_glide_posenum>  (256) 
2

>  <r_i_glide_eff_state_penalty>  (256) 
0

>  <ligand_id>  (256) 
90

>  <original_smiles>  (256) 
CC1(C)C2C(O)OC34C=CC(=O)C5OC6C2C(O)(CC3)C(CCC41)C56C

>  <smiles>  (256) 
[H]OC1([H])OC23C([H])=C([H])C(=O)C4([H])OC5([H])C6([H])C1([H])C(C([H])([H])[H])(C([H])([H])[H])C2([H])C([H])([H])C([H])([H])C([H])(C6(O[H])C([H])([H])C3([H])[H])C45C([H])([H])[H]

$$$$
91:0:0
     RDKit          3D

 38 40  0  0  1  0  0  0  0  0999 V2000
   -1.6267    2.3888   10.5109 C   0  0  0  0  0  0  0  0  0  0  0  0
   -0.7728    1.6443    9.4697 C   0  0  0  0  0  0  0  0  0  0  0  0
   -1.1407    1.9320    8.0093 C   0  0  0  0  0  0  0  0  0  0  0  0
   -2.2223    2.7946    7.7034 C   0  0  0  0  0  0  0  0  0  0  0  0
   -2.5571    3.0773    6.3745 C   0  0  0  0  0  0  0  0  0  0  0  0
   -1.8292    2.5168    5.3202 C   0  0  0  0  0  0  0  0  0  0  0  0
   -0.7396    1.6580    5.5898 C   0  0  0  0  0  0  0  0  0  0  0  0
   -0.3999    1.3641    6.9299 C   0  0  0  0  0  0  0  0  0  0  0  0
    0.7855    0.4354    7.1371 C   0  0  0  0  0  0  0  0  0  0  0  0
    1.9270    0.7116    6.1164 C   0  0  0  0  0  0  0  0  0  0  0  0
    2.5317    2.1091    6.3829 C   0  0  0  0  0  0  0  0  0  0  0  0
    2.9983   -0.3681    6.4456 C   0  0  0  0  0  0  0  0  0  0  0  0
    1.4123    0.6678    4.6967 N   0  0  0  0  0  0  0  0  0  0  0  0
    0.0600    1.0811    4.4586 C   0  0  0  0  0  0  0  0  0  0  0  0
   -0.5034    1.0059    3.2942 N   0  0  0  0  0  0  0  0  0  0  0  0
    0.2395    0.5469    2.2209 C   0  0  0  0  0  0  0  0  0  0  0  0
    1.5381    0.2085    2.3281 C   0  0  0  0  0  0  0  0  0  0  0  0
    2.2134   -0.2710    1.2795 O   0  0  0  0  0  0  0  0  0  0  0  0
    2.2207    0.3363    3.6238 C   0  0  0  0  0  0  0  0  0  0  0  0
    3.4334    0.1495    3.7095 O   0  0  0  0  0  0  0  0  0  0  0  0
   -1.3439    2.1568   11.5410 H   0  0  0  0  0  0  0  0  0  0  0  0
   -2.6819    2.1380   10.4137 H   0  0  0  0  0  0  0  0  0  0  0  0
   -1.5296    3.4669   10.3856 H   0  0  0  0  0  0  0  0  0  0  0  0
    0.2696    1.9180    9.6435 H   0  0  0  0  0  0  0  0  0  0  0  0
   -0.8482    0.5704    9.6481 H   0  0  0  0  0  0  0  0  0  0  0  0
   -2.8171    3.2848    8.4629 H   0  0  0  0  0  0  0  0  0  0  0  0
   -3.3778    3.7396    6.1847 H   0  0  0  0  0  0  0  0  0  0  0  0
   -2.1156    2.7614    4.3095 H   0  0  0  0  0  0  0  0  0  0  0  0
    1.1668    0.4805    8.1564 H   0  0  0  0  0  0  0  0  0  0  0  0
    0.4239   -0.5844    6.9980 H   0  0  0  0  0  0  0  0  0  0  0  0
    2.9105    2.1876    7.4029 H   0  0  0  0  0  0  0  0  0  0  0  0
    1.7931    2.9023    6.2501 H   0  0  0  0  0  0  0  0  0  0  0  0
    3.3583    2.3206    5.7008 H   0  0  0  0  0  0  0  0  0  0  0  0
    3.1753   -0.4357    7.5204 H   0  0  0  0  0  0  0  0  0  0  0  0
    3.9752   -0.1399    6.0158 H   0  0  0  0  0  0  0  0  0  0  0  0
    2.6934   -1.3608    6.1013 H   0  0  0  0  0  0  0  0  0  0  0  0
   -0.3007    0.4837    1.2890 H   0  0  0  0  0  0  0  0  0  0  0  0
    1.5952   -0.3816    0.5569 H   0  0  0  0  0  0  0  0  0  0  0  0
  1  2  1  0
  1 21  1  0
  1 22  1  0
  1 23  1  0
  2  3  1  0
  2 24  1  0
  2 25  1  0
  3  8  2  0
  3  4  1  0
  4  5  2  0
  4 26  1  0
  5  6  1  0
  5 27  1  0
  6  7  2  0
  6 28  1  0
  7 14  1  0
  7  8  1  0
  8  9  1  0
  9 10  1  0
  9 29  1  0
  9 30  1  0
 10 11  1  0
 10 12  1  0
 10 13  1  0
 11 31  1  0
 11 32  1  0
 11 33  1  0
 12 34  1  0
 12 35  1  0
 12 36  1  0
 13 19  1  0
 13 14  1  0
 14 15  2  0
 15 16  1  0
 16 17  2  0
 16 37  1  0
 17 18  1  0
 17 19  1  0
 18 38  1  0
 19 20  2  0
M  END
>  <i_m_ct_stereo_status>  (257) 
1

>  <s_m_source_file>  (257) 
/var/tmp/pbs.5076255.sched01/tmp_gsyjirk/108c9vsds16.sdf

>  <i_m_source_file_index>  (257) 
5

>  <i_lp_mmshare_version>  (257) 
48012

>  <i_f3d_flags>  (257) 
0

>  <s_epik_input>  (257) 
W2NIXTFbY0hdW2NIXWMoW0NIMl1bQ0gzXSljKGMxMilbQ0gyXUMoW0NIM10pKFtDSDNdKW4zYzJuW2NIXWMoW09IXSljMz1P

>  <s_epik_cmdline>  (257) 
J2VwaWtfcHl0aG9uJywgJy1waHQnLCAnMi4wJywgJy1waCcsICc3LjAnLCAnLXRuJywgJzgnLCAnLW1hJywgJzIwMCcsICctaW1hZScsICc8aW5maWxlLm1hZT4nLCAnLW9tYWUnLCAnPG91dGZpbGUubWFlPic=

>  <r_lp_tautomer_probability>  (257) 
0.811048

>  <r_epik_Ionization_Penalty>  (257) 
0.0458298

>  <r_epik_Ionization_Penalty_Charging>  (257) 
2.96382e-08

>  <r_epik_Ionization_Penalty_Neutral>  (257) 
0.0458298

>  <r_epik_State_Penalty>  (257) 
0.240056

>  <r_epik_Charging_Adjusted_Penalty>  (257) 
0.240056

>  <i_epik_Tot_Q>  (257) 
0

>  <i_epik_Tot_abs_Q>  (257) 
0

>  <s_lp_Force_Field>  (257) 
OPLS3e

>  <r_lp_Energy>  (257) 
50.9608

>  <b_lp_Chiralities_Consistent>  (257) 
1

>  <s_lp_Variant>  (257) 
91:0-1

>  <s_i_glide_gridfile>  (257) 
pfpi4k_grid

>  <i_i_glide_lignum>  (257) 
5

>  <i_i_glide_rotatable_bonds>  (257) 
2

>  <r_i_docking_score>  (257) 
-3.19457

>  <r_i_glide_ligand_efficiency>  (257) 
-0.159728

>  <r_i_glide_ligand_efficiency_sa>  (257) 
-0.43357

>  <r_i_glide_ligand_efficiency_ln>  (257) 
-0.799495

>  <r_i_glide_gscore>  (257) 
-3.19457

>  <r_i_glide_lipo>  (257) 
-0.230184

>  <r_i_glide_hbond>  (257) 
0

>  <r_i_glide_metal>  (257) 
-0

>  <r_i_glide_rewards>  (257) 
-1.56596

>  <r_i_glide_evdw>  (257) 
-17.1029

>  <r_i_glide_ecoul>  (257) 
-3.53416

>  <r_i_glide_erotb>  (257) 
0

>  <r_i_glide_esite>  (257) 
-0.0131618

>  <r_i_glide_emodel>  (257) 
-23.8466

>  <r_i_glide_energy>  (257) 
-20.637

>  <r_i_glide_einternal>  (257) 
2.88617

>  <r_i_glide_intrahb_reward>  (257) 
-0

>  <i_i_glide_confnum>  (257) 
1

>  <i_i_glide_posenum>  (257) 
17

>  <r_i_glide_eff_state_penalty>  (257) 
0

>  <ligand_id>  (257) 
91

>  <original_smiles>  (257) 
CCc1cccc2c1CC(C)(C)n1c-2ncc(O)c1=O

>  <smiles>  (257) 
[H]Oc1c([H])nc2n(c1=O)C(C([H])([H])[H])(C([H])([H])[H])C([H])([H])c1c-2c([H])c([H])c([H])c1C([H])([H])C([H])([H])[H]

$$$$
91:0:1
     RDKit          3D

 38 40  0  0  1  0  0  0  0  0999 V2000
    0.5935    2.3753   10.0995 C   0  0  0  0  0  0  0  0  0  0  0  0
   -0.5275    1.4318    9.6351 C   0  0  0  0  0  0  0  0  0  0  0  0
   -0.9747    1.7056    8.2065 C   0  0  0  0  0  0  0  0  0  0  0  0
   -2.1387    2.4797    8.0056 C   0  0  0  0  0  0  0  0  0  0  0  0
   -2.5856    2.7617    6.7026 C   0  0  0  0  0  0  0  0  0  0  0  0
   -1.8655    2.2906    5.5904 C   0  0  0  0  0  0  0  0  0  0  0  0
   -0.6905    1.5254    5.7691 C   0  0  0  0  0  0  0  0  0  0  0  0
   -0.2544    1.2251    7.0780 C   0  0  0  0  0  0  0  0  0  0  0  0
    1.0108    0.3971    7.2014 C   0  0  0  0  0  0  0  0  0  0  0  0
    2.0723    0.7970    6.1393 C   0  0  0  0  0  0  0  0  0  0  0  0
    2.5629    2.2396    6.4104 C   0  0  0  0  0  0  0  0  0  0  0  0
    3.2491   -0.1892    6.4001 C   0  0  0  0  0  0  0  0  0  0  0  0
    1.4954    0.7345    4.7463 N   0  0  0  0  0  0  0  0  0  0  0  0
    0.1027    1.0359    4.5863 C   0  0  0  0  0  0  0  0  0  0  0  0
   -0.5059    0.9271    3.4467 N   0  0  0  0  0  0  0  0  0  0  0  0
    0.2140    0.5448    2.3227 C   0  0  0  0  0  0  0  0  0  0  0  0
    1.5401    0.3189    2.3684 C   0  0  0  0  0  0  0  0  0  0  0  0
    2.2121   -0.0850    1.2801 O   0  0  0  0  0  0  0  0  0  0  0  0
    2.2707    0.4874    3.6306 C   0  0  0  0  0  0  0  0  0  0  0  0
    3.4990    0.4014    3.6633 O   0  0  0  0  0  0  0  0  0  0  0  0
    0.8805    2.1544   11.1282 H   0  0  0  0  0  0  0  0  0  0  0  0
    0.2730    3.4175   10.0603 H   0  0  0  0  0  0  0  0  0  0  0  0
    1.4880    2.2874    9.4827 H   0  0  0  0  0  0  0  0  0  0  0  0
   -0.2163    0.3902    9.7370 H   0  0  0  0  0  0  0  0  0  0  0  0
   -1.3803    1.5549   10.3053 H   0  0  0  0  0  0  0  0  0  0  0  0
   -2.6861    2.8622    8.8574 H   0  0  0  0  0  0  0  0  0  0  0  0
   -3.4824    3.3395    6.5581 H   0  0  0  0  0  0  0  0  0  0  0  0
   -2.2260    2.5216    4.5975 H   0  0  0  0  0  0  0  0  0  0  0  0
    1.4401    0.4489    8.1994 H   0  0  0  0  0  0  0  0  0  0  0  0
    0.7290   -0.6457    7.0510 H   0  0  0  0  0  0  0  0  0  0  0  0
    2.9823    2.3381    7.4109 H   0  0  0  0  0  0  0  0  0  0  0  0
    1.7541    2.9674    6.3319 H   0  0  0  0  0  0  0  0  0  0  0  0
    3.3330    2.5425    5.6994 H   0  0  0  0  0  0  0  0  0  0  0  0
    3.4820   -0.2612    7.4623 H   0  0  0  0  0  0  0  0  0  0  0  0
    4.1826    0.1240    5.9332 H   0  0  0  0  0  0  0  0  0  0  0  0
    3.0158   -1.1980    6.0538 H   0  0  0  0  0  0  0  0  0  0  0  0
   -0.3653    0.4495    1.4115 H   0  0  0  0  0  0  0  0  0  0  0  0
    1.5736   -0.2462    0.5846 H   0  0  0  0  0  0  0  0  0  0  0  0
  1  2  1  0
  1 21  1  0
  1 22  1  0
  1 23  1  0
  2  3  1  0
  2 24  1  0
  2 25  1  0
  3  8  2  0
  3  4  1  0
  4  5  2  0
  4 26  1  0
  5  6  1  0
  5 27  1  0
  6  7  2  0
  6 28  1  0
  7 14  1  0
  7  8  1  0
  8  9  1  0
  9 10  1  0
  9 29  1  0
  9 30  1  0
 10 11  1  0
 10 12  1  0
 10 13  1  0
 11 31  1  0
 11 32  1  0
 11 33  1  0
 12 34  1  0
 12 35  1  0
 12 36  1  0
 13 19  1  0
 13 14  1  0
 14 15  2  0
 15 16  1  0
 16 17  2  0
 16 37  1  0
 17 18  1  0
 17 19  1  0
 18 38  1  0
 19 20  2  0
M  END
>  <i_m_ct_stereo_status>  (258) 
1

>  <s_m_source_file>  (258) 
/var/tmp/pbs.5076255.sched01/tmp_gsyjirk/108c9vsds16.sdf

>  <i_m_source_file_index>  (258) 
5

>  <i_lp_mmshare_version>  (258) 
48012

>  <i_f3d_flags>  (258) 
0

>  <s_epik_input>  (258) 
W2NIXTFbY0hdW2NIXWMoW0NIMl1bQ0gzXSljKGMxMilbQ0gyXUMoW0NIM10pKFtDSDNdKW4zYzJuW2NIXWMoW09IXSljMz1P

>  <s_epik_cmdline>  (258) 
J2VwaWtfcHl0aG9uJywgJy1waHQnLCAnMi4wJywgJy1waCcsICc3LjAnLCAnLXRuJywgJzgnLCAnLW1hJywgJzIwMCcsICctaW1hZScsICc8aW5maWxlLm1hZT4nLCAnLW9tYWUnLCAnPG91dGZpbGUubWFlPic=

>  <r_lp_tautomer_probability>  (258) 
0.811048

>  <r_epik_Ionization_Penalty>  (258) 
0.0458298

>  <r_epik_Ionization_Penalty_Charging>  (258) 
2.96382e-08

>  <r_epik_Ionization_Penalty_Neutral>  (258) 
0.0458298

>  <r_epik_State_Penalty>  (258) 
0.240056

>  <r_epik_Charging_Adjusted_Penalty>  (258) 
0.240056

>  <i_epik_Tot_Q>  (258) 
0

>  <i_epik_Tot_abs_Q>  (258) 
0

>  <s_lp_Force_Field>  (258) 
OPLS3e

>  <r_lp_Energy>  (258) 
50.9608

>  <b_lp_Chiralities_Consistent>  (258) 
1

>  <s_lp_Variant>  (258) 
91:0-1

>  <s_i_glide_gridfile>  (258) 
pfpi4k_grid

>  <i_i_glide_lignum>  (258) 
5

>  <i_i_glide_rotatable_bonds>  (258) 
2

>  <r_i_docking_score>  (258) 
-3.06139

>  <r_i_glide_ligand_efficiency>  (258) 
-0.15307

>  <r_i_glide_ligand_efficiency_sa>  (258) 
-0.415495

>  <r_i_glide_ligand_efficiency_ln>  (258) 
-0.766165

>  <r_i_glide_gscore>  (258) 
-3.06139

>  <r_i_glide_lipo>  (258) 
-0.171874

>  <r_i_glide_hbond>  (258) 
0

>  <r_i_glide_metal>  (258) 
-0

>  <r_i_glide_rewards>  (258) 
-1.56596

>  <r_i_glide_evdw>  (258) 
-16.3618

>  <r_i_glide_ecoul>  (258) 
-3.29093

>  <r_i_glide_erotb>  (258) 
0

>  <r_i_glide_esite>  (258) 
-0.0118322

>  <r_i_glide_emodel>  (258) 
-24.1246

>  <r_i_glide_energy>  (258) 
-19.6527

>  <r_i_glide_einternal>  (258) 
0.13885

>  <r_i_glide_intrahb_reward>  (258) 
-0

>  <i_i_glide_confnum>  (258) 
1

>  <i_i_glide_posenum>  (258) 
22

>  <r_i_glide_eff_state_penalty>  (258) 
0

>  <ligand_id>  (258) 
91

>  <original_smiles>  (258) 
CCc1cccc2c1CC(C)(C)n1c-2ncc(O)c1=O

>  <smiles>  (258) 
[H]Oc1c([H])nc2n(c1=O)C(C([H])([H])[H])(C([H])([H])[H])C([H])([H])c1c-2c([H])c([H])c([H])c1C([H])([H])C([H])([H])[H]

$$$$
91:0:2
     RDKit          3D

 38 40  0  0  1  0  0  0  0  0999 V2000
   -2.0820    1.4892    7.6153 C   0  0  0  0  0  0  0  0  0  0  0  0
   -1.5858    2.7213    6.8494 C   0  0  0  0  0  0  0  0  0  0  0  0
   -1.2695    2.4096    5.3926 C   0  0  0  0  0  0  0  0  0  0  0  0
   -2.1879    2.8218    4.4049 C   0  0  0  0  0  0  0  0  0  0  0  0
   -1.9355    2.5623    3.0469 C   0  0  0  0  0  0  0  0  0  0  0  0
   -0.7611    1.8909    2.6642 C   0  0  0  0  0  0  0  0  0  0  0  0
    0.1806    1.4819    3.6383 C   0  0  0  0  0  0  0  0  0  0  0  0
   -0.0844    1.7309    5.0025 C   0  0  0  0  0  0  0  0  0  0  0  0
    0.9547    1.2540    5.9962 C   0  0  0  0  0  0  0  0  0  0  0  0
    2.3993    1.4743    5.4780 C   0  0  0  0  0  0  0  0  0  0  0  0
    2.6847    2.9930    5.3626 C   0  0  0  0  0  0  0  0  0  0  0  0
    3.2966    0.8810    6.6060 C   0  0  0  0  0  0  0  0  0  0  0  0
    2.5904    0.8396    4.1217 N   0  0  0  0  0  0  0  0  0  0  0  0
    1.4594    0.7980    3.2423 C   0  0  0  0  0  0  0  0  0  0  0  0
    1.4980    0.2001    2.0930 N   0  0  0  0  0  0  0  0  0  0  0  0
    2.6756   -0.3993    1.6769 C   0  0  0  0  0  0  0  0  0  0  0  0
    3.8099   -0.3319    2.3990 C   0  0  0  0  0  0  0  0  0  0  0  0
    4.9378   -0.9074    1.9631 O   0  0  0  0  0  0  0  0  0  0  0  0
    3.8154    0.3817    3.6826 C   0  0  0  0  0  0  0  0  0  0  0  0
    4.8677    0.5435    4.3048 O   0  0  0  0  0  0  0  0  0  0  0  0
   -2.3144    1.7429    8.6512 H   0  0  0  0  0  0  0  0  0  0  0  0
   -1.3262    0.7039    7.6259 H   0  0  0  0  0  0  0  0  0  0  0  0
   -2.9840    1.0869    7.1525 H   0  0  0  0  0  0  0  0  0  0  0  0
   -2.3488    3.4981    6.8958 H   0  0  0  0  0  0  0  0  0  0  0  0
   -0.7139    3.1552    7.3400 H   0  0  0  0  0  0  0  0  0  0  0  0
   -3.0944    3.3401    4.6863 H   0  0  0  0  0  0  0  0  0  0  0  0
   -2.6409    2.8810    2.2949 H   0  0  0  0  0  0  0  0  0  0  0  0
   -0.5786    1.7156    1.6132 H   0  0  0  0  0  0  0  0  0  0  0  0
    0.8379    1.7169    6.9732 H   0  0  0  0  0  0  0  0  0  0  0  0
    0.7873    0.1876    6.1495 H   0  0  0  0  0  0  0  0  0  0  0  0
    2.5480    3.4970    6.3199 H   0  0  0  0  0  0  0  0  0  0  0  0
    2.0177    3.4782    4.6476 H   0  0  0  0  0  0  0  0  0  0  0  0
    3.7052    3.1848    5.0277 H   0  0  0  0  0  0  0  0  0  0  0  0
    2.9697    1.2136    7.5916 H   0  0  0  0  0  0  0  0  0  0  0  0
    4.3363    1.1981    6.5360 H   0  0  0  0  0  0  0  0  0  0  0  0
    3.2692   -0.2104    6.6090 H   0  0  0  0  0  0  0  0  0  0  0  0
    2.6224   -0.9040    0.7225 H   0  0  0  0  0  0  0  0  0  0  0  0
    4.7371   -1.3234    1.1391 H   0  0  0  0  0  0  0  0  0  0  0  0
  1  2  1  0
  1 21  1  0
  1 22  1  0
  1 23  1  0
  2  3  1  0
  2 24  1  0
  2 25  1  0
  3  8  2  0
  3  4  1  0
  4  5  2  0
  4 26  1  0
  5  6  1  0
  5 27  1  0
  6  7  2  0
  6 28  1  0
  7 14  1  0
  7  8  1  0
  8  9  1  0
  9 10  1  0
  9 29  1  0
  9 30  1  0
 10 11  1  0
 10 12  1  0
 10 13  1  0
 11 31  1  0
 11 32  1  0
 11 33  1  0
 12 34  1  0
 12 35  1  0
 12 36  1  0
 13 19  1  0
 13 14  1  0
 14 15  2  0
 15 16  1  0
 16 17  2  0
 16 37  1  0
 17 18  1  0
 17 19  1  0
 18 38  1  0
 19 20  2  0
M  END
>  <i_m_ct_stereo_status>  (259) 
1

>  <s_m_source_file>  (259) 
/var/tmp/pbs.5076255.sched01/tmp_gsyjirk/108c9vsds16.sdf

>  <i_m_source_file_index>  (259) 
5

>  <i_lp_mmshare_version>  (259) 
48012

>  <i_f3d_flags>  (259) 
0

>  <s_epik_input>  (259) 
W2NIXTFbY0hdW2NIXWMoW0NIMl1bQ0gzXSljKGMxMilbQ0gyXUMoW0NIM10pKFtDSDNdKW4zYzJuW2NIXWMoW09IXSljMz1P

>  <s_epik_cmdline>  (259) 
J2VwaWtfcHl0aG9uJywgJy1waHQnLCAnMi4wJywgJy1waCcsICc3LjAnLCAnLXRuJywgJzgnLCAnLW1hJywgJzIwMCcsICctaW1hZScsICc8aW5maWxlLm1hZT4nLCAnLW9tYWUnLCAnPG91dGZpbGUubWFlPic=

>  <r_lp_tautomer_probability>  (259) 
0.811048

>  <r_epik_Ionization_Penalty>  (259) 
0.0458298

>  <r_epik_Ionization_Penalty_Charging>  (259) 
2.96382e-08

>  <r_epik_Ionization_Penalty_Neutral>  (259) 
0.0458298

>  <r_epik_State_Penalty>  (259) 
0.240056

>  <r_epik_Charging_Adjusted_Penalty>  (259) 
0.240056

>  <i_epik_Tot_Q>  (259) 
0

>  <i_epik_Tot_abs_Q>  (259) 
0

>  <s_lp_Force_Field>  (259) 
OPLS3e

>  <r_lp_Energy>  (259) 
50.9608

>  <b_lp_Chiralities_Consistent>  (259) 
1

>  <s_lp_Variant>  (259) 
91:0-1

>  <s_i_glide_gridfile>  (259) 
pfpi4k_grid

>  <i_i_glide_lignum>  (259) 
5

>  <i_i_glide_rotatable_bonds>  (259) 
2

>  <r_i_docking_score>  (259) 
-2.64148

>  <r_i_glide_ligand_efficiency>  (259) 
-0.132074

>  <r_i_glide_ligand_efficiency_sa>  (259) 
-0.358503

>  <r_i_glide_ligand_efficiency_ln>  (259) 
-0.661074

>  <r_i_glide_gscore>  (259) 
-2.64148

>  <r_i_glide_lipo>  (259) 
-0.0716761

>  <r_i_glide_hbond>  (259) 
0

>  <r_i_glide_metal>  (259) 
-0

>  <r_i_glide_rewards>  (259) 
-1.56596

>  <r_i_glide_evdw>  (259) 
-20.2096

>  <r_i_glide_ecoul>  (259) 
0.145395

>  <r_i_glide_erotb>  (259) 
0

>  <r_i_glide_esite>  (259) 
-0.0151723

>  <r_i_glide_emodel>  (259) 
-23.9028

>  <r_i_glide_energy>  (259) 
-20.0642

>  <r_i_glide_einternal>  (259) 
0.181563

>  <r_i_glide_intrahb_reward>  (259) 
-0

>  <i_i_glide_confnum>  (259) 
1

>  <i_i_glide_posenum>  (259) 
31

>  <r_i_glide_eff_state_penalty>  (259) 
0

>  <ligand_id>  (259) 
91

>  <original_smiles>  (259) 
CCc1cccc2c1CC(C)(C)n1c-2ncc(O)c1=O

>  <smiles>  (259) 
[H]Oc1c([H])nc2n(c1=O)C(C([H])([H])[H])(C([H])([H])[H])C([H])([H])c1c-2c([H])c([H])c([H])c1C([H])([H])C([H])([H])[H]

$$$$
91:1:0
     RDKit          3D

 37 39  0  0  1  0  0  0  0  0999 V2000
    2.0274  -11.6459    4.6442 C   0  0  0  0  0  0  0  0  0  0  0  0
    2.7294  -10.4412    4.0037 C   0  0  0  0  0  0  0  0  0  0  0  0
    1.7936   -9.2580    3.8090 C   0  0  0  0  0  0  0  0  0  0  0  0
    1.2004   -9.0746    2.5413 C   0  0  0  0  0  0  0  0  0  0  0  0
    0.3292   -7.9966    2.3089 C   0  0  0  0  0  0  0  0  0  0  0  0
    0.0334   -7.1029    3.3509 C   0  0  0  0  0  0  0  0  0  0  0  0
    0.6023   -7.2783    4.6337 C   0  0  0  0  0  0  0  0  0  0  0  0
    1.4917   -8.3487    4.8590 C   0  0  0  0  0  0  0  0  0  0  0  0
    2.0756   -8.4651    6.2538 C   0  0  0  0  0  0  0  0  0  0  0  0
    1.0312   -8.1255    7.3503 C   0  0  0  0  0  0  0  0  0  0  0  0
   -0.0912   -9.1964    7.3386 C   0  0  0  0  0  0  0  0  0  0  0  0
    1.8335   -8.2571    8.6778 C   0  0  0  0  0  0  0  0  0  0  0  0
    0.4211   -6.7587    7.1132 N   0  0  0  0  0  0  0  0  0  0  0  0
    0.2736   -6.3319    5.7586 C   0  0  0  0  0  0  0  0  0  0  0  0
   -0.1650   -5.1566    5.4436 N   0  0  0  0  0  0  0  0  0  0  0  0
   -0.5320   -4.2724    6.4411 C   0  0  0  0  0  0  0  0  0  0  0  0
   -0.5349   -4.6021    7.7854 C   0  0  0  0  0  0  0  0  0  0  0  0
   -0.8821   -3.8614    8.7369 O   0  0  0  0  0  0  0  0  0  0  0  0
   -0.0882   -5.9754    8.1347 C   0  0  0  0  0  0  0  0  0  0  0  0
   -0.1861   -6.4032    9.2853 O   0  0  0  0  0  0  0  0  0  0  0  0
    2.7210  -12.4780    4.7716 H   0  0  0  0  0  0  0  0  0  0  0  0
    1.1958  -11.9970    4.0313 H   0  0  0  0  0  0  0  0  0  0  0  0
    1.6275  -11.4036    5.6288 H   0  0  0  0  0  0  0  0  0  0  0  0
    3.5924  -10.1380    4.5965 H   0  0  0  0  0  0  0  0  0  0  0  0
    3.1248  -10.7392    3.0325 H   0  0  0  0  0  0  0  0  0  0  0  0
    1.4103   -9.7718    1.7395 H   0  0  0  0  0  0  0  0  0  0  0  0
   -0.1154   -7.8691    1.3340 H   0  0  0  0  0  0  0  0  0  0  0  0
   -0.6380   -6.2836    3.1697 H   0  0  0  0  0  0  0  0  0  0  0  0
    2.5071   -9.4481    6.4312 H   0  0  0  0  0  0  0  0  0  0  0  0
    2.9021   -7.7554    6.3148 H   0  0  0  0  0  0  0  0  0  0  0  0
    0.3092  -10.2006    7.4878 H   0  0  0  0  0  0  0  0  0  0  0  0
   -0.6268   -9.2207    6.3888 H   0  0  0  0  0  0  0  0  0  0  0  0
   -0.8315   -9.0249    8.1205 H   0  0  0  0  0  0  0  0  0  0  0  0
    2.4389   -9.1657    8.6898 H   0  0  0  0  0  0  0  0  0  0  0  0
    1.2001   -8.3379    9.5627 H   0  0  0  0  0  0  0  0  0  0  0  0
    2.5166   -7.4178    8.8221 H   0  0  0  0  0  0  0  0  0  0  0  0
   -0.8402   -3.3005    6.0825 H   0  0  0  0  0  0  0  0  0  0  0  0
  1  2  1  0
  1 21  1  0
  1 22  1  0
  1 23  1  0
  2  3  1  0
  2 24  1  0
  2 25  1  0
  3  8  2  0
  3  4  1  0
  4  5  2  0
  4 26  1  0
  5  6  1  0
  5 27  1  0
  6  7  2  0
  6 28  1  0
  7 14  1  0
  7  8  1  0
  8  9  1  0
  9 10  1  0
  9 29  1  0
  9 30  1  0
 10 11  1  0
 10 12  1  0
 10 13  1  0
 11 31  1  0
 11 32  1  0
 11 33  1  0
 12 34  1  0
 12 35  1  0
 12 36  1  0
 13 19  1  0
 13 14  1  0
 14 15  2  0
 15 16  1  0
 16 17  2  0
 16 37  1  0
 17 18  1  0
 17 19  1  0
 19 20  2  0
M  CHG  1  18  -1
M  END
>  <i_m_ct_stereo_status>  (260) 
1

>  <s_m_source_file>  (260) 
/var/tmp/pbs.5076255.sched01/tmp_gsyjirk/108c9vsds16.sdf

>  <i_m_source_file_index>  (260) 
6

>  <i_lp_mmshare_version>  (260) 
48012

>  <i_f3d_flags>  (260) 
0

>  <s_epik_input>  (260) 
W2NIXTFbY0hdW2NIXWMoW0NIMl1bQ0gzXSljKGMxMilbQ0gyXUMoW0NIM10pKFtDSDNdKW4zYzJuW2NIXWMoW09IXSljMz1P

>  <s_epik_cmdline>  (260) 
J2VwaWtfcHl0aG9uJywgJy1waHQnLCAnMi4wJywgJy1waCcsICc3LjAnLCAnLXRuJywgJzgnLCAnLW1hJywgJzIwMCcsICctaW1hZScsICc8aW5maWxlLm1hZT4nLCAnLW9tYWUnLCAnPG91dGZpbGUubWFlPic=

>  <r_lp_tautomer_probability>  (260) 
1

>  <r_epik_Ionization_Penalty>  (260) 
1.53935

>  <r_epik_Ionization_Penalty_Charging>  (260) 
1.53923

>  <r_epik_Ionization_Penalty_Neutral>  (260) 
0.000117254

>  <r_epik_State_Penalty>  (260) 
0.651765

>  <r_epik_Charging_Adjusted_Penalty>  (260) 
2.191

>  <i_epik_Tot_Q>  (260) 
-1

>  <i_epik_Tot_abs_Q>  (260) 
1

>  <s_lp_Force_Field>  (260) 
OPLS3e

>  <r_lp_Energy>  (260) 
61.172

>  <b_lp_Chiralities_Consistent>  (260) 
1

>  <s_lp_Variant>  (260) 
91:0-2

>  <s_i_glide_gridfile>  (260) 
pfpi4k_grid

>  <i_i_glide_lignum>  (260) 
6

>  <i_i_glide_rotatable_bonds>  (260) 
1

>  <r_i_docking_score>  (260) 
-3.33875

>  <r_i_glide_ligand_efficiency>  (260) 
-0.166937

>  <r_i_glide_ligand_efficiency_sa>  (260) 
-0.453138

>  <r_i_glide_ligand_efficiency_ln>  (260) 
-0.835579

>  <r_i_glide_gscore>  (260) 
-3.33875

>  <r_i_glide_lipo>  (260) 
-0.0264134

>  <r_i_glide_hbond>  (260) 
-0.386147

>  <r_i_glide_metal>  (260) 
-0

>  <r_i_glide_rewards>  (260) 
-1.57283

>  <r_i_glide_evdw>  (260) 
-17.2322

>  <r_i_glide_ecoul>  (260) 
-3.16729

>  <r_i_glide_erotb>  (260) 
0

>  <r_i_glide_esite>  (260) 
-0.0166546

>  <r_i_glide_emodel>  (260) 
-27.4717

>  <r_i_glide_energy>  (260) 
-20.3995

>  <r_i_glide_einternal>  (260) 
0.00022081

>  <r_i_glide_intrahb_reward>  (260) 
-0

>  <i_i_glide_confnum>  (260) 
1

>  <i_i_glide_posenum>  (260) 
19

>  <r_i_glide_eff_state_penalty>  (260) 
0

>  <ligand_id>  (260) 
91

>  <original_smiles>  (260) 
CCc1cccc2c1CC(C)(C)n1c-2ncc(O)c1=O

>  <smiles>  (260) 
[H]c1nc2n(c(=O)c1[O-])C(C([H])([H])[H])(C([H])([H])[H])C([H])([H])c1c-2c([H])c([H])c([H])c1C([H])([H])C([H])([H])[H]

$$$$
91:1:1
     RDKit          3D

 37 39  0  0  1  0  0  0  0  0999 V2000
    3.7732  -10.7855    4.4229 C   0  0  0  0  0  0  0  0  0  0  0  0
    2.2764  -11.0796    4.5771 C   0  0  0  0  0  0  0  0  0  0  0  0
    1.4136   -9.8734    4.2409 C   0  0  0  0  0  0  0  0  0  0  0  0
    0.7668   -9.8392    2.9860 C   0  0  0  0  0  0  0  0  0  0  0  0
   -0.0487   -8.7499    2.6345 C   0  0  0  0  0  0  0  0  0  0  0  0
   -0.2246   -7.6855    3.5337 C   0  0  0  0  0  0  0  0  0  0  0  0
    0.4098   -7.7005    4.7976 C   0  0  0  0  0  0  0  0  0  0  0  0
    1.2341   -8.7906    5.1444 C   0  0  0  0  0  0  0  0  0  0  0  0
    1.8939   -8.7380    6.5059 C   0  0  0  0  0  0  0  0  0  0  0  0
    0.9407   -8.1575    7.5849 C   0  0  0  0  0  0  0  0  0  0  0  0
   -0.2420   -9.1355    7.7919 C   0  0  0  0  0  0  0  0  0  0  0  0
    1.8048   -8.1480    8.8812 C   0  0  0  0  0  0  0  0  0  0  0  0
    0.4080   -6.8038    7.1709 N   0  0  0  0  0  0  0  0  0  0  0  0
    0.2166   -6.5739    5.7740 C   0  0  0  0  0  0  0  0  0  0  0  0
   -0.1682   -5.4341    5.3007 N   0  0  0  0  0  0  0  0  0  0  0  0
   -0.4147   -4.3873    6.1678 C   0  0  0  0  0  0  0  0  0  0  0  0
   -0.3631   -4.5068    7.5450 C   0  0  0  0  0  0  0  0  0  0  0  0
   -0.6002   -3.6099    8.3916 O   0  0  0  0  0  0  0  0  0  0  0  0
   -0.0020   -5.8462    8.0832 C   0  0  0  0  0  0  0  0  0  0  0  0
   -0.0869   -6.0964    9.2875 O   0  0  0  0  0  0  0  0  0  0  0  0
    4.3651  -11.6687    4.6588 H   0  0  0  0  0  0  0  0  0  0  0  0
    4.0928   -9.9829    5.0883 H   0  0  0  0  0  0  0  0  0  0  0  0
    4.0106  -10.4845    3.4012 H   0  0  0  0  0  0  0  0  0  0  0  0
    2.0031  -11.9084    3.9248 H   0  0  0  0  0  0  0  0  0  0  0  0
    2.0536  -11.4339    5.5844 H   0  0  0  0  0  0  0  0  0  0  0  0
    0.8842  -10.6551    2.2876 H   0  0  0  0  0  0  0  0  0  0  0  0
   -0.5465   -8.7331    1.6818 H   0  0  0  0  0  0  0  0  0  0  0  0
   -0.8586   -6.8609    3.2489 H   0  0  0  0  0  0  0  0  0  0  0  0
    2.2684   -9.7077    6.8243 H   0  0  0  0  0  0  0  0  0  0  0  0
    2.7652   -8.0915    6.4188 H   0  0  0  0  0  0  0  0  0  0  0  0
    0.1138  -10.1264    8.0747 H   0  0  0  0  0  0  0  0  0  0  0  0
   -0.8324   -9.2717    6.8838 H   0  0  0  0  0  0  0  0  0  0  0  0
   -0.9240   -8.7858    8.5692 H   0  0  0  0  0  0  0  0  0  0  0  0
    2.3479   -9.0861    9.0022 H   0  0  0  0  0  0  0  0  0  0  0  0
    1.2167   -8.0476    9.7940 H   0  0  0  0  0  0  0  0  0  0  0  0
    2.5478   -7.3481    8.8602 H   0  0  0  0  0  0  0  0  0  0  0  0
   -0.6780   -3.4606    5.6799 H   0  0  0  0  0  0  0  0  0  0  0  0
  1  2  1  0
  1 21  1  0
  1 22  1  0
  1 23  1  0
  2  3  1  0
  2 24  1  0
  2 25  1  0
  3  8  2  0
  3  4  1  0
  4  5  2  0
  4 26  1  0
  5  6  1  0
  5 27  1  0
  6  7  2  0
  6 28  1  0
  7 14  1  0
  7  8  1  0
  8  9  1  0
  9 10  1  0
  9 29  1  0
  9 30  1  0
 10 11  1  0
 10 12  1  0
 10 13  1  0
 11 31  1  0
 11 32  1  0
 11 33  1  0
 12 34  1  0
 12 35  1  0
 12 36  1  0
 13 19  1  0
 13 14  1  0
 14 15  2  0
 15 16  1  0
 16 17  2  0
 16 37  1  0
 17 18  1  0
 17 19  1  0
 19 20  2  0
M  CHG  1  18  -1
M  END
>  <i_m_ct_stereo_status>  (261) 
1

>  <s_m_source_file>  (261) 
/var/tmp/pbs.5076255.sched01/tmp_gsyjirk/108c9vsds16.sdf

>  <i_m_source_file_index>  (261) 
6

>  <i_lp_mmshare_version>  (261) 
48012

>  <i_f3d_flags>  (261) 
0

>  <s_epik_input>  (261) 
W2NIXTFbY0hdW2NIXWMoW0NIMl1bQ0gzXSljKGMxMilbQ0gyXUMoW0NIM10pKFtDSDNdKW4zYzJuW2NIXWMoW09IXSljMz1P

>  <s_epik_cmdline>  (261) 
J2VwaWtfcHl0aG9uJywgJy1waHQnLCAnMi4wJywgJy1waCcsICc3LjAnLCAnLXRuJywgJzgnLCAnLW1hJywgJzIwMCcsICctaW1hZScsICc8aW5maWxlLm1hZT4nLCAnLW9tYWUnLCAnPG91dGZpbGUubWFlPic=

>  <r_lp_tautomer_probability>  (261) 
1

>  <r_epik_Ionization_Penalty>  (261) 
1.53935

>  <r_epik_Ionization_Penalty_Charging>  (261) 
1.53923

>  <r_epik_Ionization_Penalty_Neutral>  (261) 
0.000117254

>  <r_epik_State_Penalty>  (261) 
0.651765

>  <r_epik_Charging_Adjusted_Penalty>  (261) 
2.191

>  <i_epik_Tot_Q>  (261) 
-1

>  <i_epik_Tot_abs_Q>  (261) 
1

>  <s_lp_Force_Field>  (261) 
OPLS3e

>  <r_lp_Energy>  (261) 
61.172

>  <b_lp_Chiralities_Consistent>  (261) 
1

>  <s_lp_Variant>  (261) 
91:0-2

>  <s_i_glide_gridfile>  (261) 
pfpi4k_grid

>  <i_i_glide_lignum>  (261) 
6

>  <i_i_glide_rotatable_bonds>  (261) 
1

>  <r_i_docking_score>  (261) 
-3.31222

>  <r_i_glide_ligand_efficiency>  (261) 
-0.165611

>  <r_i_glide_ligand_efficiency_sa>  (261) 
-0.449537

>  <r_i_glide_ligand_efficiency_ln>  (261) 
-0.828939

>  <r_i_glide_gscore>  (261) 
-3.31222

>  <r_i_glide_lipo>  (261) 
-0.0393489

>  <r_i_glide_hbond>  (261) 
-0.388536

>  <r_i_glide_metal>  (261) 
-0

>  <r_i_glide_rewards>  (261) 
-1.57283

>  <r_i_glide_evdw>  (261) 
-17.8467

>  <r_i_glide_ecoul>  (261) 
-2.66343

>  <r_i_glide_erotb>  (261) 
0

>  <r_i_glide_esite>  (261) 
-0.0196532

>  <r_i_glide_emodel>  (261) 
-27.4136

>  <r_i_glide_energy>  (261) 
-20.5102

>  <r_i_glide_einternal>  (261) 
0.19264

>  <r_i_glide_intrahb_reward>  (261) 
-0

>  <i_i_glide_confnum>  (261) 
1

>  <i_i_glide_posenum>  (261) 
16

>  <r_i_glide_eff_state_penalty>  (261) 
0

>  <ligand_id>  (261) 
91

>  <original_smiles>  (261) 
CCc1cccc2c1CC(C)(C)n1c-2ncc(O)c1=O

>  <smiles>  (261) 
[H]c1nc2n(c(=O)c1[O-])C(C([H])([H])[H])(C([H])([H])[H])C([H])([H])c1c-2c([H])c([H])c([H])c1C([H])([H])C([H])([H])[H]

$$$$
91:1:2
     RDKit          3D

 37 39  0  0  1  0  0  0  0  0999 V2000
    1.8796    5.6130    4.9351 C   0  0  0  0  0  0  0  0  0  0  0  0
    1.4166    5.0661    3.5794 C   0  0  0  0  0  0  0  0  0  0  0  0
    0.2063    4.1602    3.7138 C   0  0  0  0  0  0  0  0  0  0  0  0
   -1.0491    4.6533    3.2959 C   0  0  0  0  0  0  0  0  0  0  0  0
   -2.1956    3.8437    3.3689 C   0  0  0  0  0  0  0  0  0  0  0  0
   -2.0916    2.5345    3.8660 C   0  0  0  0  0  0  0  0  0  0  0  0
   -0.8430    2.0151    4.2759 C   0  0  0  0  0  0  0  0  0  0  0  0
    0.3044    2.8310    4.2095 C   0  0  0  0  0  0  0  0  0  0  0  0
    1.6077    2.2171    4.6730 C   0  0  0  0  0  0  0  0  0  0  0  0
    1.7346    0.7303    4.2470 C   0  0  0  0  0  0  0  0  0  0  0  0
    1.8357    0.6438    2.7025 C   0  0  0  0  0  0  0  0  0  0  0  0
    3.0976    0.2878    4.8638 C   0  0  0  0  0  0  0  0  0  0  0  0
    0.5360   -0.0715    4.7093 N   0  0  0  0  0  0  0  0  0  0  0  0
   -0.7207    0.6053    4.7817 C   0  0  0  0  0  0  0  0  0  0  0  0
   -1.7872    0.0465    5.2572 N   0  0  0  0  0  0  0  0  0  0  0  0
   -1.7373   -1.2641    5.6819 C   0  0  0  0  0  0  0  0  0  0  0  0
   -0.6024   -2.0488    5.5851 C   0  0  0  0  0  0  0  0  0  0  0  0
   -0.4878   -3.2387    5.9572 O   0  0  0  0  0  0  0  0  0  0  0  0
    0.6001   -1.4256    4.9779 C   0  0  0  0  0  0  0  0  0  0  0  0
    1.6068   -2.0929    4.7259 O   0  0  0  0  0  0  0  0  0  0  0  0
    2.7387    6.2715    4.8147 H   0  0  0  0  0  0  0  0  0  0  0  0
    2.1703    4.8086    5.6107 H   0  0  0  0  0  0  0  0  0  0  0  0
    1.0837    6.1784    5.4219 H   0  0  0  0  0  0  0  0  0  0  0  0
    1.1736    5.8959    2.9147 H   0  0  0  0  0  0  0  0  0  0  0  0
    2.2254    4.5338    3.0761 H   0  0  0  0  0  0  0  0  0  0  0  0
   -1.1149    5.6422    2.8670 H   0  0  0  0  0  0  0  0  0  0  0  0
   -3.1491    4.2086    3.0256 H   0  0  0  0  0  0  0  0  0  0  0  0
   -2.9781    1.9204    3.9100 H   0  0  0  0  0  0  0  0  0  0  0  0
    2.4709    2.7796    4.3292 H   0  0  0  0  0  0  0  0  0  0  0  0
    1.6182    2.2795    5.7612 H   0  0  0  0  0  0  0  0  0  0  0  0
    2.6768    1.2240    2.3221 H   0  0  0  0  0  0  0  0  0  0  0  0
    0.9403    1.0308    2.2127 H   0  0  0  0  0  0  0  0  0  0  0  0
    1.9637   -0.3847    2.3605 H   0  0  0  0  0  0  0  0  0  0  0  0
    3.8781    1.0287    4.6834 H   0  0  0  0  0  0  0  0  0  0  0  0
    3.4886   -0.6347    4.4338 H   0  0  0  0  0  0  0  0  0  0  0  0
    3.0285    0.1574    5.9461 H   0  0  0  0  0  0  0  0  0  0  0  0
   -2.6613   -1.6540    6.0759 H   0  0  0  0  0  0  0  0  0  0  0  0
  1  2  1  0
  1 21  1  0
  1 22  1  0
  1 23  1  0
  2  3  1  0
  2 24  1  0
  2 25  1  0
  3  8  2  0
  3  4  1  0
  4  5  2  0
  4 26  1  0
  5  6  1  0
  5 27  1  0
  6  7  2  0
  6 28  1  0
  7 14  1  0
  7  8  1  0
  8  9  1  0
  9 10  1  0
  9 29  1  0
  9 30  1  0
 10 11  1  0
 10 12  1  0
 10 13  1  0
 11 31  1  0
 11 32  1  0
 11 33  1  0
 12 34  1  0
 12 35  1  0
 12 36  1  0
 13 19  1  0
 13 14  1  0
 14 15  2  0
 15 16  1  0
 16 17  2  0
 16 37  1  0
 17 18  1  0
 17 19  1  0
 19 20  2  0
M  CHG  1  18  -1
M  END
>  <i_m_ct_stereo_status>  (262) 
1

>  <s_m_source_file>  (262) 
/var/tmp/pbs.5076255.sched01/tmp_gsyjirk/108c9vsds16.sdf

>  <i_m_source_file_index>  (262) 
6

>  <i_lp_mmshare_version>  (262) 
48012

>  <i_f3d_flags>  (262) 
0

>  <s_epik_input>  (262) 
W2NIXTFbY0hdW2NIXWMoW0NIMl1bQ0gzXSljKGMxMilbQ0gyXUMoW0NIM10pKFtDSDNdKW4zYzJuW2NIXWMoW09IXSljMz1P

>  <s_epik_cmdline>  (262) 
J2VwaWtfcHl0aG9uJywgJy1waHQnLCAnMi4wJywgJy1waCcsICc3LjAnLCAnLXRuJywgJzgnLCAnLW1hJywgJzIwMCcsICctaW1hZScsICc8aW5maWxlLm1hZT4nLCAnLW9tYWUnLCAnPG91dGZpbGUubWFlPic=

>  <r_lp_tautomer_probability>  (262) 
1

>  <r_epik_Ionization_Penalty>  (262) 
1.53935

>  <r_epik_Ionization_Penalty_Charging>  (262) 
1.53923

>  <r_epik_Ionization_Penalty_Neutral>  (262) 
0.000117254

>  <r_epik_State_Penalty>  (262) 
0.651765

>  <r_epik_Charging_Adjusted_Penalty>  (262) 
2.191

>  <i_epik_Tot_Q>  (262) 
-1

>  <i_epik_Tot_abs_Q>  (262) 
1

>  <s_lp_Force_Field>  (262) 
OPLS3e

>  <r_lp_Energy>  (262) 
61.172

>  <b_lp_Chiralities_Consistent>  (262) 
1

>  <s_lp_Variant>  (262) 
91:0-2

>  <s_i_glide_gridfile>  (262) 
pfpi4k_grid

>  <i_i_glide_lignum>  (262) 
6

>  <i_i_glide_rotatable_bonds>  (262) 
1

>  <r_i_docking_score>  (262) 
-2.77325

>  <r_i_glide_ligand_efficiency>  (262) 
-0.138663

>  <r_i_glide_ligand_efficiency_sa>  (262) 
-0.376388

>  <r_i_glide_ligand_efficiency_ln>  (262) 
-0.694053

>  <r_i_glide_gscore>  (262) 
-2.77325

>  <r_i_glide_lipo>  (262) 
0

>  <r_i_glide_hbond>  (262) 
0

>  <r_i_glide_metal>  (262) 
-0

>  <r_i_glide_rewards>  (262) 
-1.57283

>  <r_i_glide_evdw>  (262) 
-17.7395

>  <r_i_glide_ecoul>  (262) 
-1.91383

>  <r_i_glide_erotb>  (262) 
0

>  <r_i_glide_esite>  (262) 
-0.0263717

>  <r_i_glide_emodel>  (262) 
-25.3793

>  <r_i_glide_energy>  (262) 
-19.6533

>  <r_i_glide_einternal>  (262) 
0.184764

>  <r_i_glide_intrahb_reward>  (262) 
-0

>  <i_i_glide_confnum>  (262) 
1

>  <i_i_glide_posenum>  (262) 
12

>  <r_i_glide_eff_state_penalty>  (262) 
0

>  <ligand_id>  (262) 
91

>  <original_smiles>  (262) 
CCc1cccc2c1CC(C)(C)n1c-2ncc(O)c1=O

>  <smiles>  (262) 
[H]c1nc2n(c(=O)c1[O-])C(C([H])([H])[H])(C([H])([H])[H])C([H])([H])c1c-2c([H])c([H])c([H])c1C([H])([H])C([H])([H])[H]

$$$$
93:0:0
     RDKit          3D

 78 85  0  0  1  0  0  0  0  0999 V2000
    3.5644   -6.9497    8.5746 C   0  0  0  0  0  0  0  0  0  0  0  0
    2.4997   -7.9370    8.0629 C   0  0  2  0  0  0  0  0  0  0  0  0
    2.8500   -9.4220    8.4816 C   0  0  0  0  0  0  0  0  0  0  0  0
    4.1739  -10.0763    7.9090 C   0  0  0  0  0  0  0  0  0  0  0  0
    4.0333  -10.5946    6.4190 C   0  0  2  0  0  0  0  0  0  0  0  0
    3.8138  -11.9824    6.4489 O   0  0  0  0  0  0  0  0  0  0  0  0
    5.2279  -10.3016    5.3979 C   0  0  0  0  0  0  0  0  0  0  0  0
    4.7296   -9.6464    3.9941 C   0  0  2  0  0  0  0  0  0  0  0  0
    4.1083  -10.9259    3.3261 C   0  0  0  0  0  0  0  0  0  0  0  0
    5.8972   -9.0876    3.0487 C   0  0  2  0  0  0  0  0  0  0  0  0
    6.8971   -8.3801    3.9659 C   0  0  1  0  0  0  0  0  0  0  0  0
    8.0570   -7.9370    3.2923 O   0  0  0  0  0  0  0  0  0  0  0  0
    6.1111   -7.3030    4.7503 C   0  0  0  0  0  0  0  0  0  0  0  0
    4.6641   -7.0663    4.2117 C   0  0  1  0  0  0  0  0  0  0  0  0
    4.3186   -5.6146    4.3447 C   0  0  0  0  0  0  0  0  0  0  0  0
    4.3705   -6.2093    2.9640 C   0  0  1  0  0  0  0  0  0  0  0  0
    5.3838   -6.5458    1.8833 C   0  0  0  0  0  0  0  0  0  0  0  0
    4.8465   -5.9544    0.5425 C   0  0  0  0  0  0  0  0  0  0  0  0
    6.7261   -5.7556    1.9925 C   0  0  0  0  0  0  0  0  0  0  0  0
    5.4904   -8.1533    1.7940 C   0  0  2  0  0  0  0  0  0  0  0  0
    4.2561   -8.7557    1.0795 C   0  0  0  0  0  0  0  0  0  0  0  0
    2.8341   -8.4892    1.6837 C   0  0  0  0  0  0  0  0  0  0  0  0
    2.5663   -8.3946    3.2347 C   0  0  1  0  0  0  0  0  0  0  0  0
    1.5696   -9.3557    3.5303 O   0  0  0  0  0  0  0  0  0  0  0  0
    3.7714   -8.3826    4.2657 C   0  0  1  0  0  0  0  0  0  0  0  0
    3.2780   -8.5633    5.7226 C   0  0  2  0  0  0  0  0  0  0  0  0
    2.9553   -9.9283    5.9017 O   0  0  0  0  0  0  0  0  0  0  0  0
    2.3121   -7.7722    6.5534 C   0  0  0  0  0  0  0  0  0  0  0  0
    1.1828   -7.1343    6.2278 C   0  0  0  0  0  0  0  0  0  0  0  0
    0.4689   -6.8825    7.4495 C   0  0  0  0  0  0  0  0  0  0  0  0
    1.1271   -7.4113    8.5004 C   0  0  0  0  0  0  0  0  0  0  0  0
    0.6731   -7.2458    9.9014 C   0  0  0  0  0  0  0  0  0  0  0  0
    0.2449   -5.9903   10.3886 C   0  0  0  0  0  0  0  0  0  0  0  0
   -0.1768   -5.8870   11.7297 C   0  0  0  0  0  0  0  0  0  0  0  0
   -0.1639   -7.0424   12.5302 C   0  0  0  0  0  0  0  0  0  0  0  0
    0.2184   -8.2515   12.0708 N   0  0  0  0  0  0  0  0  0  0  0  0
    0.6391   -8.3417   10.7912 C   0  0  0  0  0  0  0  0  0  0  0  0
    3.3233   -5.9367    8.2514 H   0  0  0  0  0  0  0  0  0  0  0  0
    4.5600   -7.1743    8.1981 H   0  0  0  0  0  0  0  0  0  0  0  0
    3.6110   -6.9424    9.6639 H   0  0  0  0  0  0  0  0  0  0  0  0
    2.9852   -9.4111    9.5584 H   0  0  0  0  0  0  0  0  0  0  0  0
    2.0042  -10.0865    8.3180 H   0  0  0  0  0  0  0  0  0  0  0  0
    5.0183   -9.3998    8.0010 H   0  0  0  0  0  0  0  0  0  0  0  0
    4.4437  -10.9339    8.5247 H   0  0  0  0  0  0  0  0  0  0  0  0
    2.9599  -12.1587    6.8475 H   0  0  0  0  0  0  0  0  0  0  0  0
    5.9086   -9.6847    5.9694 H   0  0  0  0  0  0  0  0  0  0  0  0
    5.7855  -11.2231    5.2219 H   0  0  0  0  0  0  0  0  0  0  0  0
    3.5163  -10.7964    2.4354 H   0  0  0  0  0  0  0  0  0  0  0  0
    3.4321  -11.4613    3.9871 H   0  0  0  0  0  0  0  0  0  0  0  0
    4.8872  -11.6382    3.0558 H   0  0  0  0  0  0  0  0  0  0  0  0
    6.4141   -9.9510    2.6317 H   0  0  0  0  0  0  0  0  0  0  0  0
    7.3488   -9.0874    4.6588 H   0  0  0  0  0  0  0  0  0  0  0  0
    8.4755   -8.6673    2.8600 H   0  0  0  0  0  0  0  0  0  0  0  0
    6.0653   -7.5721    5.8010 H   0  0  0  0  0  0  0  0  0  0  0  0
    6.6796   -6.3781    4.8077 H   0  0  0  0  0  0  0  0  0  0  0  0
    3.3341   -5.3805    4.7419 H   0  0  0  0  0  0  0  0  0  0  0  0
    5.0914   -4.8781    4.5708 H   0  0  0  0  0  0  0  0  0  0  0  0
    3.3790   -6.0856    2.5509 H   0  0  0  0  0  0  0  0  0  0  0  0
    5.4836   -6.2252   -0.3000 H   0  0  0  0  0  0  0  0  0  0  0  0
    4.8007   -4.8645    0.5729 H   0  0  0  0  0  0  0  0  0  0  0  0
    3.8347   -6.2582    0.2891 H   0  0  0  0  0  0  0  0  0  0  0  0
    7.4717   -6.1568    1.3008 H   0  0  0  0  0  0  0  0  0  0  0  0
    7.1870   -5.7195    2.9683 H   0  0  0  0  0  0  0  0  0  0  0  0
    6.6071   -4.6992    1.7461 H   0  0  0  0  0  0  0  0  0  0  0  0
    6.3052   -8.3076    1.0891 H   0  0  0  0  0  0  0  0  0  0  0  0
    4.2275   -8.4113    0.0474 H   0  0  0  0  0  0  0  0  0  0  0  0
    4.4369   -9.8156    0.9179 H   0  0  0  0  0  0  0  0  0  0  0  0
    2.4328   -7.5755    1.2465 H   0  0  0  0  0  0  0  0  0  0  0  0
    2.1757   -9.2487    1.2522 H   0  0  0  0  0  0  0  0  0  0  0  0
    2.0067   -7.4769    3.3975 H   0  0  0  0  0  0  0  0  0  0  0  0
    1.9630  -10.2162    3.4969 H   0  0  0  0  0  0  0  0  0  0  0  0
    4.1557   -8.2574    6.2816 H   0  0  0  0  0  0  0  0  0  0  0  0
    0.7860   -7.0026    5.2354 H   0  0  0  0  0  0  0  0  0  0  0  0
   -0.4787   -6.3703    7.5084 H   0  0  0  0  0  0  0  0  0  0  0  0
    0.2376   -5.1201    9.7495 H   0  0  0  0  0  0  0  0  0  0  0  0
   -0.5015   -4.9435   12.1472 H   0  0  0  0  0  0  0  0  0  0  0  0
   -0.4647   -7.0031   13.5643 H   0  0  0  0  0  0  0  0  0  0  0  0
    0.9182   -9.3331   10.4760 H   0  0  0  0  0  0  0  0  0  0  0  0
  2  1  1  1
  1 38  1  0
  1 39  1  0
  1 40  1  0
  2 28  1  0
  2 31  1  0
  2  3  1  0
  3  4  1  0
  3 41  1  0
  3 42  1  0
  4  5  1  0
  4 43  1  0
  4 44  1  0
  5 27  1  0
  5  6  1  1
  5  7  1  0
  6 45  1  0
  7  8  1  0
  7 46  1  0
  7 47  1  0
  8 25  1  0
  8  9  1  6
  8 10  1  0
  9 48  1  0
  9 49  1  0
  9 50  1  0
 10 20  1  0
 10 11  1  0
 10 51  1  6
 11 12  1  0
 11 13  1  0
 11 52  1  1
 12 53  1  0
 13 14  1  0
 13 54  1  0
 13 55  1  0
 14 16  1  0
 25 14  1  1
 14 15  1  1
 15 16  1  0
 15 56  1  0
 15 57  1  0
 16 17  1  0
 16 58  1  6
 17 18  1  0
 17 19  1  0
 17 20  1  0
 18 59  1  0
 18 60  1  0
 18 61  1  0
 19 62  1  0
 19 63  1  0
 19 64  1  0
 20 21  1  0
 20 65  1  6
 21 22  1  0
 21 66  1  0
 21 67  1  0
 22 23  1  0
 22 68  1  0
 22 69  1  0
 23 24  1  0
 23 25  1  0
 23 70  1  6
 24 71  1  0
 25 26  1  0
 26 27  1  0
 26 28  1  0
 26 72  1  1
 28 29  2  0
 29 30  1  0
 29 73  1  0
 30 31  2  0
 30 74  1  0
 31 32  1  0
 32 37  1  0
 32 33  2  0
 33 34  1  0
 33 75  1  0
 34 35  2  0
 34 76  1  0
 35 36  1  0
 35 77  1  0
 36 37  2  0
 37 78  1  0
M  END
>  <i_m_ct_stereo_status>  (263) 
1

>  <s_m_source_file>  (263) 
/var/tmp/pbs.5076255.sched01/tmp_gsyjirk/108c9vsds16.sdf

>  <i_m_source_file_index>  (263) 
8

>  <i_lp_mmshare_version>  (263) 
48012

>  <i_f3d_flags>  (263) 
0

>  <s_epik_input>  (263) 
W2NIXTFuW2NIXVtjSF1bY0hdYzFDMj1bQ0hdW0NIXT1DKFtDQEhdM080KVtDQF0yKFtDSDNdKVtDSDJdW0NIMl1bQ0BdNChbT0hdKVtDSDJdW0NAQF0oW0NIM10pKFtDQF0zNVtDQF02NzgpW0NASF0oW0NAQEhdKFtPSF0pW0NIMl02KVtDQEhdKEMoW0NIM10pKFtDSDNdKVtDQEBIXThbQ0gyXTcpW0NIMl1bQ0gyXVtDQEhdNVtPSF0=

>  <s_epik_cmdline>  (263) 
J2VwaWtfcHl0aG9uJywgJy1waHQnLCAnMi4wJywgJy1waCcsICc3LjAnLCAnLXRuJywgJzgnLCAnLW1hJywgJzIwMCcsICctaW1hZScsICc8aW5maWxlLm1hZT4nLCAnLW9tYWUnLCAnPG91dGZpbGUubWFlPic=

>  <r_epik_Ionization_Penalty>  (263) 
0.0152592

>  <r_epik_Ionization_Penalty_Charging>  (263) 
0

>  <r_epik_Ionization_Penalty_Neutral>  (263) 
0.0152592

>  <r_epik_State_Penalty>  (263) 
0.0119806

>  <r_epik_Charging_Adjusted_Penalty>  (263) 
0.0119806

>  <i_epik_Tot_Q>  (263) 
0

>  <i_epik_Tot_abs_Q>  (263) 
0

>  <s_lp_Force_Field>  (263) 
OPLS3e

>  <r_lp_Energy>  (263) 
171.718

>  <b_lp_Chiralities_Consistent>  (263) 
1

>  <s_lp_Variant>  (263) 
93:0-1

>  <s_i_glide_gridfile>  (263) 
pfpi4k_grid

>  <i_i_glide_lignum>  (263) 
8

>  <i_i_glide_rotatable_bonds>  (263) 
4

>  <r_i_docking_score>  (263) 
-1.9302

>  <r_i_glide_ligand_efficiency>  (263) 
-0.0521676

>  <r_i_glide_ligand_efficiency_sa>  (263) 
-0.173834

>  <r_i_glide_ligand_efficiency_ln>  (263) 
-0.418616

>  <r_i_glide_gscore>  (263) 
-1.9302

>  <r_i_glide_lipo>  (263) 
-0.289342

>  <r_i_glide_hbond>  (263) 
0

>  <r_i_glide_metal>  (263) 
-0

>  <r_i_glide_rewards>  (263) 
0

>  <r_i_glide_evdw>  (263) 
-25.5713

>  <r_i_glide_ecoul>  (263) 
-2.65441

>  <r_i_glide_erotb>  (263) 
0.0805781

>  <r_i_glide_esite>  (263) 
-0.0447132

>  <r_i_glide_emodel>  (263) 
-30.8355

>  <r_i_glide_energy>  (263) 
-28.2257

>  <r_i_glide_einternal>  (263) 
1.92681

>  <r_i_glide_intrahb_reward>  (263) 
-0

>  <i_i_glide_confnum>  (263) 
1

>  <i_i_glide_posenum>  (263) 
5

>  <r_i_glide_eff_state_penalty>  (263) 
0

>  <ligand_id>  (263) 
93

>  <original_smiles>  (263) 
CC12CCC3(O)CC4(C)C5C(O)CC67CC6C(C)(C)C5CCC(O)C47C(O3)C1=CC=C2c1cccnc1

>  <smiles>  (263) 
[H]OC1([H])C([H])([H])C23C([H])([H])C2([H])C(C([H])([H])[H])(C([H])([H])[H])C2([H])C([H])([H])C([H])([H])C([H])(O[H])C34C3([H])OC(O[H])(C([H])([H])C([H])([H])C5(C([H])([H])[H])C(c6c([H])nc([H])c([H])c6[H])=C([H])C([H])=C35)C([H])([H])C4(C([H])([H])[H])C12[H]

$$$$
93:0:1
     RDKit          3D

 78 85  0  0  1  0  0  0  0  0999 V2000
    3.0414   -5.3781    8.1377 C   0  0  0  0  0  0  0  0  0  0  0  0
    2.0774   -6.5309    7.8028 C   0  0  2  0  0  0  0  0  0  0  0  0
    2.5350   -7.8825    8.4946 C   0  0  0  0  0  0  0  0  0  0  0  0
    3.9120   -8.5353    8.0985 C   0  0  0  0  0  0  0  0  0  0  0  0
    3.8615   -9.3421    6.7447 C   0  0  2  0  0  0  0  0  0  0  0  0
    3.7196  -10.7191    7.0367 O   0  0  0  0  0  0  0  0  0  0  0  0
    5.0786   -9.1518    5.7368 C   0  0  0  0  0  0  0  0  0  0  0  0
    4.6055   -8.8190    4.2220 C   0  0  2  0  0  0  0  0  0  0  0  0
    4.1110  -10.2506    3.8028 C   0  0  0  0  0  0  0  0  0  0  0  0
    5.7723   -8.3622    3.2251 C   0  0  2  0  0  0  0  0  0  0  0  0
    6.6767   -7.4144    4.0134 C   0  0  1  0  0  0  0  0  0  0  0  0
    7.8335   -7.0301    3.3057 O   0  0  0  0  0  0  0  0  0  0  0  0
    5.7745   -6.2692    4.5419 C   0  0  0  0  0  0  0  0  0  0  0  0
    4.3436   -6.2581    3.9208 C   0  0  1  0  0  0  0  0  0  0  0  0
    3.8854   -4.8398    3.7547 C   0  0  0  0  0  0  0  0  0  0  0  0
    4.0463   -5.6864    2.5214 C   0  0  1  0  0  0  0  0  0  0  0  0
    5.1292   -6.1498    1.5649 C   0  0  0  0  0  0  0  0  0  0  0  0
    4.6127   -5.8730    0.1205 C   0  0  0  0  0  0  0  0  0  0  0  0
    6.4032   -5.2517    1.5555 C   0  0  0  0  0  0  0  0  0  0  0  0
    5.3556   -7.7315    1.7964 C   0  0  2  0  0  0  0  0  0  0  0  0
    4.2045   -8.5607    1.1823 C   0  0  0  0  0  0  0  0  0  0  0  0
    2.7396   -8.2950    1.6797 C   0  0  0  0  0  0  0  0  0  0  0  0
    2.3899   -7.9106    3.1658 C   0  0  1  0  0  0  0  0  0  0  0  0
    1.4741   -8.8892    3.6268 O   0  0  0  0  0  0  0  0  0  0  0  0
    3.5466   -7.6067    4.2090 C   0  0  1  0  0  0  0  0  0  0  0  0
    2.9998   -7.5383    5.6539 C   0  0  2  0  0  0  0  0  0  0  0  0
    2.7670   -8.8610    6.0856 O   0  0  0  0  0  0  0  0  0  0  0  0
    1.9418   -6.6750    6.2842 C   0  0  0  0  0  0  0  0  0  0  0  0
    0.7838   -6.2139    5.8027 C   0  0  0  0  0  0  0  0  0  0  0  0
   -0.0029   -5.8063    6.9320 C   0  0  0  0  0  0  0  0  0  0  0  0
    0.6449   -6.0362    8.0951 C   0  0  0  0  0  0  0  0  0  0  0  0
    0.1076   -5.6161    9.4261 C   0  0  0  0  0  0  0  0  0  0  0  0
   -0.9045   -4.6215    9.5385 C   0  0  0  0  0  0  0  0  0  0  0  0
   -1.3818   -4.2500   10.8163 C   0  0  0  0  0  0  0  0  0  0  0  0
   -0.8344   -4.8899   11.9465 C   0  0  0  0  0  0  0  0  0  0  0  0
    0.1007   -5.8540   11.8598 N   0  0  0  0  0  0  0  0  0  0  0  0
    0.5524   -6.1926   10.6421 C   0  0  0  0  0  0  0  0  0  0  0  0
    2.7413   -4.4719    7.6170 H   0  0  0  0  0  0  0  0  0  0  0  0
    4.0656   -5.5910    7.8445 H   0  0  0  0  0  0  0  0  0  0  0  0
    3.0358   -5.1562    9.2059 H   0  0  0  0  0  0  0  0  0  0  0  0
    2.7545   -7.6779    9.5321 H   0  0  0  0  0  0  0  0  0  0  0  0
    1.7376   -8.6257    8.4893 H   0  0  0  0  0  0  0  0  0  0  0  0
    4.6971   -7.7847    8.0788 H   0  0  0  0  0  0  0  0  0  0  0  0
    4.2148   -9.2333    8.8837 H   0  0  0  0  0  0  0  0  0  0  0  0
    2.8286  -10.9011    7.3113 H   0  0  0  0  0  0  0  0  0  0  0  0
    5.6835   -8.3818    6.1992 H   0  0  0  0  0  0  0  0  0  0  0  0
    5.7169  -10.0381    5.7719 H   0  0  0  0  0  0  0  0  0  0  0  0
    3.5469  -10.3465    2.8920 H   0  0  0  0  0  0  0  0  0  0  0  0
    3.4358  -10.6927    4.5335 H   0  0  0  0  0  0  0  0  0  0  0  0
    4.9494  -10.9409    3.7131 H   0  0  0  0  0  0  0  0  0  0  0  0
    6.3699   -9.2472    3.0076 H   0  0  0  0  0  0  0  0  0  0  0  0
    7.1396   -7.9289    4.8489 H   0  0  0  0  0  0  0  0  0  0  0  0
    8.3463   -7.7970    3.0931 H   0  0  0  0  0  0  0  0  0  0  0  0
    5.7042   -6.3298    5.6258 H   0  0  0  0  0  0  0  0  0  0  0  0
    6.2716   -5.3067    4.4338 H   0  0  0  0  0  0  0  0  0  0  0  0
    2.8657   -4.6106    4.0655 H   0  0  0  0  0  0  0  0  0  0  0  0
    4.5896   -4.0155    3.8544 H   0  0  0  0  0  0  0  0  0  0  0  0
    3.0670   -5.7316    2.0628 H   0  0  0  0  0  0  0  0  0  0  0  0
    5.3043   -6.2475   -0.6328 H   0  0  0  0  0  0  0  0  0  0  0  0
    4.4831   -4.8058   -0.0699 H   0  0  0  0  0  0  0  0  0  0  0  0
    3.6391   -6.3002   -0.0976 H   0  0  0  0  0  0  0  0  0  0  0  0
    7.2072   -5.7206    0.9794 H   0  0  0  0  0  0  0  0  0  0  0  0
    6.8174   -4.9914    2.5156 H   0  0  0  0  0  0  0  0  0  0  0  0
    6.2229   -4.2777    1.0982 H   0  0  0  0  0  0  0  0  0  0  0  0
    6.2130   -7.9540    1.1633 H   0  0  0  0  0  0  0  0  0  0  0  0
    4.2168   -8.4303    0.1006 H   0  0  0  0  0  0  0  0  0  0  0  0
    4.4659   -9.6144    1.2393 H   0  0  0  0  0  0  0  0  0  0  0  0
    2.2967   -7.5229    1.0528 H   0  0  0  0  0  0  0  0  0  0  0  0
    2.1606   -9.1749    1.3814 H   0  0  0  0  0  0  0  0  0  0  0  0
    1.7512   -7.0338    3.1215 H   0  0  0  0  0  0  0  0  0  0  0  0
    0.8459   -9.0853    2.9470 H   0  0  0  0  0  0  0  0  0  0  0  0
    3.8244   -7.0619    6.1655 H   0  0  0  0  0  0  0  0  0  0  0  0
    0.4268   -6.3093    4.7864 H   0  0  0  0  0  0  0  0  0  0  0  0
   -0.9941   -5.3801    6.8287 H   0  0  0  0  0  0  0  0  0  0  0  0
   -1.3342   -4.1496    8.6643 H   0  0  0  0  0  0  0  0  0  0  0  0
   -2.1616   -3.5032   10.9511 H   0  0  0  0  0  0  0  0  0  0  0  0
   -1.1589   -4.6454   12.9495 H   0  0  0  0  0  0  0  0  0  0  0  0
    1.2615   -6.9925   10.6959 H   0  0  0  0  0  0  0  0  0  0  0  0
  2  1  1  6
  1 38  1  0
  1 39  1  0
  1 40  1  0
  2 28  1  0
  2 31  1  0
  2  3  1  0
  3  4  1  0
  3 41  1  0
  3 42  1  0
  4  5  1  0
  4 43  1  0
  4 44  1  0
  5 27  1  0
  5  6  1  1
  5  7  1  0
  6 45  1  0
  7  8  1  0
  7 46  1  0
  7 47  1  0
  8 25  1  0
  8  9  1  6
  8 10  1  0
  9 48  1  0
  9 49  1  0
  9 50  1  0
 10 20  1  0
 10 11  1  0
 10 51  1  6
 11 12  1  0
 11 13  1  0
 11 52  1  1
 12 53  1  0
 13 14  1  0
 13 54  1  0
 13 55  1  0
 14 16  1  0
 25 14  1  6
 14 15  1  1
 15 16  1  0
 15 56  1  0
 15 57  1  0
 16 17  1  0
 16 58  1  6
 17 18  1  0
 17 19  1  0
 17 20  1  0
 18 59  1  0
 18 60  1  0
 18 61  1  0
 19 62  1  0
 19 63  1  0
 19 64  1  0
 20 21  1  0
 20 65  1  6
 21 22  1  0
 21 66  1  0
 21 67  1  0
 22 23  1  0
 22 68  1  0
 22 69  1  0
 23 24  1  0
 23 25  1  0
 23 70  1  6
 24 71  1  0
 25 26  1  0
 26 27  1  0
 26 28  1  0
 26 72  1  1
 28 29  2  0
 29 30  1  0
 29 73  1  0
 30 31  2  0
 30 74  1  0
 31 32  1  0
 32 37  1  0
 32 33  2  0
 33 34  1  0
 33 75  1  0
 34 35  2  0
 34 76  1  0
 35 36  1  0
 35 77  1  0
 36 37  2  0
 37 78  1  0
M  END
>  <i_m_ct_stereo_status>  (264) 
1

>  <s_m_source_file>  (264) 
/var/tmp/pbs.5076255.sched01/tmp_gsyjirk/108c9vsds16.sdf

>  <i_m_source_file_index>  (264) 
8

>  <i_lp_mmshare_version>  (264) 
48012

>  <i_f3d_flags>  (264) 
0

>  <s_epik_input>  (264) 
W2NIXTFuW2NIXVtjSF1bY0hdYzFDMj1bQ0hdW0NIXT1DKFtDQEhdM080KVtDQF0yKFtDSDNdKVtDSDJdW0NIMl1bQ0BdNChbT0hdKVtDSDJdW0NAQF0oW0NIM10pKFtDQF0zNVtDQF02NzgpW0NASF0oW0NAQEhdKFtPSF0pW0NIMl02KVtDQEhdKEMoW0NIM10pKFtDSDNdKVtDQEBIXThbQ0gyXTcpW0NIMl1bQ0gyXVtDQEhdNVtPSF0=

>  <s_epik_cmdline>  (264) 
J2VwaWtfcHl0aG9uJywgJy1waHQnLCAnMi4wJywgJy1waCcsICc3LjAnLCAnLXRuJywgJzgnLCAnLW1hJywgJzIwMCcsICctaW1hZScsICc8aW5maWxlLm1hZT4nLCAnLW9tYWUnLCAnPG91dGZpbGUubWFlPic=

>  <r_epik_Ionization_Penalty>  (264) 
0.0152592

>  <r_epik_Ionization_Penalty_Charging>  (264) 
0

>  <r_epik_Ionization_Penalty_Neutral>  (264) 
0.0152592

>  <r_epik_State_Penalty>  (264) 
0.0119806

>  <r_epik_Charging_Adjusted_Penalty>  (264) 
0.0119806

>  <i_epik_Tot_Q>  (264) 
0

>  <i_epik_Tot_abs_Q>  (264) 
0

>  <s_lp_Force_Field>  (264) 
OPLS3e

>  <r_lp_Energy>  (264) 
171.718

>  <b_lp_Chiralities_Consistent>  (264) 
1

>  <s_lp_Variant>  (264) 
93:0-1

>  <s_i_glide_gridfile>  (264) 
pfpi4k_grid

>  <i_i_glide_lignum>  (264) 
8

>  <i_i_glide_rotatable_bonds>  (264) 
4

>  <r_i_docking_score>  (264) 
-1.70576

>  <r_i_glide_ligand_efficiency>  (264) 
-0.0461015

>  <r_i_glide_ligand_efficiency_sa>  (264) 
-0.153621

>  <r_i_glide_ligand_efficiency_ln>  (264) 
-0.369939

>  <r_i_glide_gscore>  (264) 
-1.70576

>  <r_i_glide_lipo>  (264) 
-0.253046

>  <r_i_glide_hbond>  (264) 
0

>  <r_i_glide_metal>  (264) 
-0

>  <r_i_glide_rewards>  (264) 
0

>  <r_i_glide_evdw>  (264) 
-24.9808

>  <r_i_glide_ecoul>  (264) 
-1.78988

>  <r_i_glide_erotb>  (264) 
0.0805781

>  <r_i_glide_esite>  (264) 
-0.0157656

>  <r_i_glide_emodel>  (264) 
-28.7581

>  <r_i_glide_energy>  (264) 
-26.7707

>  <r_i_glide_einternal>  (264) 
1.59489

>  <r_i_glide_intrahb_reward>  (264) 
-0

>  <i_i_glide_confnum>  (264) 
3

>  <i_i_glide_posenum>  (264) 
7

>  <r_i_glide_eff_state_penalty>  (264) 
0

>  <ligand_id>  (264) 
93

>  <original_smiles>  (264) 
CC12CCC3(O)CC4(C)C5C(O)CC67CC6C(C)(C)C5CCC(O)C47C(O3)C1=CC=C2c1cccnc1

>  <smiles>  (264) 
[H]OC1([H])C([H])([H])C23C([H])([H])C2([H])C(C([H])([H])[H])(C([H])([H])[H])C2([H])C([H])([H])C([H])([H])C([H])(O[H])C34C3([H])OC(O[H])(C([H])([H])C([H])([H])C5(C([H])([H])[H])C(c6c([H])nc([H])c([H])c6[H])=C([H])C([H])=C35)C([H])([H])C4(C([H])([H])[H])C12[H]

$$$$
93:0:2
     RDKit          3D

 78 85  0  0  1  0  0  0  0  0999 V2000
    2.2953   -3.6952    8.1011 C   0  0  0  0  0  0  0  0  0  0  0  0
    1.5263   -4.9041    8.6783 C   0  0  2  0  0  0  0  0  0  0  0  0
    2.4843   -5.8590    9.5165 C   0  0  0  0  0  0  0  0  0  0  0  0
    3.7072   -6.5576    8.7722 C   0  0  0  0  0  0  0  0  0  0  0  0
    3.3125   -7.8188    7.8931 C   0  0  2  0  0  0  0  0  0  0  0  0
    3.5880   -8.9788    8.6310 O   0  0  0  0  0  0  0  0  0  0  0  0
    3.9590   -7.9591    6.4428 C   0  0  0  0  0  0  0  0  0  0  0  0
    2.8582   -8.2527    5.2750 C   0  0  2  0  0  0  0  0  0  0  0  0
    2.5638   -9.7661    5.5898 C   0  0  0  0  0  0  0  0  0  0  0  0
    3.4049   -8.1371    3.7700 C   0  0  2  0  0  0  0  0  0  0  0  0
    4.3153   -6.9064    3.7316 C   0  0  1  0  0  0  0  0  0  0  0  0
    4.9942   -6.7537    2.5010 O   0  0  0  0  0  0  0  0  0  0  0  0
    3.4820   -5.7018    4.2201 C   0  0  0  0  0  0  0  0  0  0  0  0
    1.9478   -6.0061    4.3529 C   0  0  1  0  0  0  0  0  0  0  0  0
    1.1696   -4.7879    3.9677 C   0  0  0  0  0  0  0  0  0  0  0  0
    1.0093   -6.0262    3.1342 C   0  0  1  0  0  0  0  0  0  0  0  0
    1.6968   -6.7419    1.9750 C   0  0  0  0  0  0  0  0  0  0  0  0
    0.5947   -7.0604    0.9183 C   0  0  0  0  0  0  0  0  0  0  0  0
    2.6396   -5.8400    1.1155 C   0  0  0  0  0  0  0  0  0  0  0  0
    2.3308   -8.1085    2.5615 C   0  0  2  0  0  0  0  0  0  0  0  0
    1.2371   -9.1756    2.8201 C   0  0  0  0  0  0  0  0  0  0  0  0
    0.0649   -8.8336    3.8019 C   0  0  0  0  0  0  0  0  0  0  0  0
    0.2591   -7.9607    5.0969 C   0  0  1  0  0  0  0  0  0  0  0  0
   -0.1869   -8.7469    6.1919 O   0  0  0  0  0  0  0  0  0  0  0  0
    1.6301   -7.2004    5.3585 C   0  0  1  0  0  0  0  0  0  0  0  0
    1.7097   -6.6263    6.7947 C   0  0  2  0  0  0  0  0  0  0  0  0
    1.9609   -7.6965    7.6865 O   0  0  0  0  0  0  0  0  0  0  0  0
    0.8344   -5.6530    7.5342 C   0  0  0  0  0  0  0  0  0  0  0  0
   -0.4799   -5.4471    7.4901 C   0  0  0  0  0  0  0  0  0  0  0  0
   -0.8326   -4.6665    8.6509 C   0  0  0  0  0  0  0  0  0  0  0  0
    0.2635   -4.3805    9.3885 C   0  0  0  0  0  0  0  0  0  0  0  0
    0.2064   -3.6320   10.6705 C   0  0  0  0  0  0  0  0  0  0  0  0
   -0.9915   -3.4851   11.4126 C   0  0  0  0  0  0  0  0  0  0  0  0
   -1.0003   -2.6722   12.5597 C   0  0  0  0  0  0  0  0  0  0  0  0
    0.1809   -2.0014   12.9266 C   0  0  0  0  0  0  0  0  0  0  0  0
    1.3438   -2.1506   12.2521 N   0  0  0  0  0  0  0  0  0  0  0  0
    1.3570   -2.9565   11.1614 C   0  0  0  0  0  0  0  0  0  0  0  0
    1.6062   -3.0891    7.5074 H   0  0  0  0  0  0  0  0  0  0  0  0
    3.0885   -3.9931    7.4085 H   0  0  0  0  0  0  0  0  0  0  0  0
    2.7199   -3.0570    8.8704 H   0  0  0  0  0  0  0  0  0  0  0  0
    2.9168   -5.2572   10.3068 H   0  0  0  0  0  0  0  0  0  0  0  0
    1.9145   -6.6203   10.0573 H   0  0  0  0  0  0  0  0  0  0  0  0
    4.2452   -5.8250    8.1697 H   0  0  0  0  0  0  0  0  0  0  0  0
    4.4420   -6.8851    9.5079 H   0  0  0  0  0  0  0  0  0  0  0  0
    3.3135   -9.7340    8.1191 H   0  0  0  0  0  0  0  0  0  0  0  0
    4.5119   -7.0371    6.3084 H   0  0  0  0  0  0  0  0  0  0  0  0
    4.7327   -8.7306    6.4517 H   0  0  0  0  0  0  0  0  0  0  0  0
    1.7195  -10.2240    5.0987 H   0  0  0  0  0  0  0  0  0  0  0  0
    2.3361   -9.9408    6.6333 H   0  0  0  0  0  0  0  0  0  0  0  0
    3.4254  -10.3875    5.3494 H   0  0  0  0  0  0  0  0  0  0  0  0
    4.0455   -9.0010    3.5925 H   0  0  0  0  0  0  0  0  0  0  0  0
    5.1765   -7.0469    4.3839 H   0  0  0  0  0  0  0  0  0  0  0  0
    5.5224   -7.5283    2.3453 H   0  0  0  0  0  0  0  0  0  0  0  0
    3.8563   -5.3600    5.1763 H   0  0  0  0  0  0  0  0  0  0  0  0
    3.6683   -4.8272    3.6068 H   0  0  0  0  0  0  0  0  0  0  0  0
    0.3352   -4.5174    4.6041 H   0  0  0  0  0  0  0  0  0  0  0  0
    1.6574   -3.9457    3.4742 H   0  0  0  0  0  0  0  0  0  0  0  0
   -0.0325   -6.3025    3.1971 H   0  0  0  0  0  0  0  0  0  0  0  0
    1.0122   -7.6485    0.1099 H   0  0  0  0  0  0  0  0  0  0  0  0
    0.1773   -6.1611    0.4639 H   0  0  0  0  0  0  0  0  0  0  0  0
   -0.2636   -7.6002    1.3065 H   0  0  0  0  0  0  0  0  0  0  0  0
    3.2264   -6.4467    0.4278 H   0  0  0  0  0  0  0  0  0  0  0  0
    3.3305   -5.2145    1.6578 H   0  0  0  0  0  0  0  0  0  0  0  0
    2.0869   -5.1262    0.5084 H   0  0  0  0  0  0  0  0  0  0  0  0
    2.8869   -8.5045    1.7144 H   0  0  0  0  0  0  0  0  0  0  0  0
    0.7802   -9.4627    1.8726 H   0  0  0  0  0  0  0  0  0  0  0  0
    1.7231  -10.1117    3.0779 H   0  0  0  0  0  0  0  0  0  0  0  0
   -0.7490   -8.3825    3.2333 H   0  0  0  0  0  0  0  0  0  0  0  0
   -0.3741   -9.7931    4.0785 H   0  0  0  0  0  0  0  0  0  0  0  0
   -0.5141   -7.1918    5.0729 H   0  0  0  0  0  0  0  0  0  0  0  0
   -0.7221   -9.4603    5.8608 H   0  0  0  0  0  0  0  0  0  0  0  0
    2.5531   -5.9493    6.7029 H   0  0  0  0  0  0  0  0  0  0  0  0
   -1.1905   -5.8887    6.8046 H   0  0  0  0  0  0  0  0  0  0  0  0
   -1.8583   -4.4333    8.9060 H   0  0  0  0  0  0  0  0  0  0  0  0
   -1.9093   -3.9784   11.1151 H   0  0  0  0  0  0  0  0  0  0  0  0
   -1.9016   -2.5295   13.1533 H   0  0  0  0  0  0  0  0  0  0  0  0
    0.2085   -1.3479   13.7867 H   0  0  0  0  0  0  0  0  0  0  0  0
    2.3141   -3.0326   10.6755 H   0  0  0  0  0  0  0  0  0  0  0  0
  2  1  1  6
  1 38  1  0
  1 39  1  0
  1 40  1  0
  2 28  1  0
  2 31  1  0
  2  3  1  0
  3  4  1  0
  3 41  1  0
  3 42  1  0
  4  5  1  0
  4 43  1  0
  4 44  1  0
  5 27  1  0
  5  6  1  1
  5  7  1  0
  6 45  1  0
  7  8  1  0
  7 46  1  0
  7 47  1  0
  8 25  1  0
  8  9  1  1
  8 10  1  0
  9 48  1  0
  9 49  1  0
  9 50  1  0
 10 20  1  0
 10 11  1  0
 10 51  1  6
 11 12  1  0
 11 13  1  0
 11 52  1  1
 12 53  1  0
 13 14  1  0
 13 54  1  0
 13 55  1  0
 14 16  1  0
 25 14  1  6
 14 15  1  1
 15 16  1  0
 15 56  1  0
 15 57  1  0
 16 17  1  0
 16 58  1  1
 17 18  1  0
 17 19  1  0
 17 20  1  0
 18 59  1  0
 18 60  1  0
 18 61  1  0
 19 62  1  0
 19 63  1  0
 19 64  1  0
 20 21  1  0
 20 65  1  6
 21 22  1  0
 21 66  1  0
 21 67  1  0
 22 23  1  0
 22 68  1  0
 22 69  1  0
 23 24  1  0
 23 25  1  0
 23 70  1  6
 24 71  1  0
 25 26  1  0
 26 27  1  0
 26 28  1  0
 26 72  1  6
 28 29  2  0
 29 30  1  0
 29 73  1  0
 30 31  2  0
 30 74  1  0
 31 32  1  0
 32 37  1  0
 32 33  2  0
 33 34  1  0
 33 75  1  0
 34 35  2  0
 34 76  1  0
 35 36  1  0
 35 77  1  0
 36 37  2  0
 37 78  1  0
M  END
>  <i_m_ct_stereo_status>  (265) 
1

>  <s_m_source_file>  (265) 
/var/tmp/pbs.5076255.sched01/tmp_gsyjirk/108c9vsds16.sdf

>  <i_m_source_file_index>  (265) 
8

>  <i_lp_mmshare_version>  (265) 
48012

>  <i_f3d_flags>  (265) 
0

>  <s_epik_input>  (265) 
W2NIXTFuW2NIXVtjSF1bY0hdYzFDMj1bQ0hdW0NIXT1DKFtDQEhdM080KVtDQF0yKFtDSDNdKVtDSDJdW0NIMl1bQ0BdNChbT0hdKVtDSDJdW0NAQF0oW0NIM10pKFtDQF0zNVtDQF02NzgpW0NASF0oW0NAQEhdKFtPSF0pW0NIMl02KVtDQEhdKEMoW0NIM10pKFtDSDNdKVtDQEBIXThbQ0gyXTcpW0NIMl1bQ0gyXVtDQEhdNVtPSF0=

>  <s_epik_cmdline>  (265) 
J2VwaWtfcHl0aG9uJywgJy1waHQnLCAnMi4wJywgJy1waCcsICc3LjAnLCAnLXRuJywgJzgnLCAnLW1hJywgJzIwMCcsICctaW1hZScsICc8aW5maWxlLm1hZT4nLCAnLW9tYWUnLCAnPG91dGZpbGUubWFlPic=

>  <r_epik_Ionization_Penalty>  (265) 
0.0152592

>  <r_epik_Ionization_Penalty_Charging>  (265) 
0

>  <r_epik_Ionization_Penalty_Neutral>  (265) 
0.0152592

>  <r_epik_State_Penalty>  (265) 
0.0119806

>  <r_epik_Charging_Adjusted_Penalty>  (265) 
0.0119806

>  <i_epik_Tot_Q>  (265) 
0

>  <i_epik_Tot_abs_Q>  (265) 
0

>  <s_lp_Force_Field>  (265) 
OPLS3e

>  <r_lp_Energy>  (265) 
171.718

>  <b_lp_Chiralities_Consistent>  (265) 
1

>  <s_lp_Variant>  (265) 
93:0-1

>  <s_i_glide_gridfile>  (265) 
pfpi4k_grid

>  <i_i_glide_lignum>  (265) 
8

>  <i_i_glide_rotatable_bonds>  (265) 
4

>  <r_i_docking_score>  (265) 
-1.62527

>  <r_i_glide_ligand_efficiency>  (265) 
-0.0439263

>  <r_i_glide_ligand_efficiency_sa>  (265) 
-0.146372

>  <r_i_glide_ligand_efficiency_ln>  (265) 
-0.352484

>  <r_i_glide_gscore>  (265) 
-1.62527

>  <r_i_glide_lipo>  (265) 
-0.0768047

>  <r_i_glide_hbond>  (265) 
0

>  <r_i_glide_metal>  (265) 
-0

>  <r_i_glide_rewards>  (265) 
0

>  <r_i_glide_evdw>  (265) 
-24.1909

>  <r_i_glide_ecoul>  (265) 
-2.78415

>  <r_i_glide_erotb>  (265) 
0.0805781

>  <r_i_glide_esite>  (265) 
-0.0018787

>  <r_i_glide_emodel>  (265) 
-28.0664

>  <r_i_glide_energy>  (265) 
-26.9751

>  <r_i_glide_einternal>  (265) 
2.70899

>  <r_i_glide_intrahb_reward>  (265) 
-0

>  <i_i_glide_confnum>  (265) 
3

>  <i_i_glide_posenum>  (265) 
19

>  <r_i_glide_eff_state_penalty>  (265) 
0

>  <ligand_id>  (265) 
93

>  <original_smiles>  (265) 
CC12CCC3(O)CC4(C)C5C(O)CC67CC6C(C)(C)C5CCC(O)C47C(O3)C1=CC=C2c1cccnc1

>  <smiles>  (265) 
[H]OC1([H])C([H])([H])C23C([H])([H])C2([H])C(C([H])([H])[H])(C([H])([H])[H])C2([H])C([H])([H])C([H])([H])C([H])(O[H])C34C3([H])OC(O[H])(C([H])([H])C([H])([H])C5(C([H])([H])[H])C(c6c([H])nc([H])c([H])c6[H])=C([H])C([H])=C35)C([H])([H])C4(C([H])([H])[H])C12[H]

$$$$
93:1:0
     RDKit          3D

 79 86  0  0  1  0  0  0  0  0999 V2000
    2.2173   -2.5903    3.6218 C   0  0  0  0  0  0  0  0  0  0  0  0
    3.3751   -1.6029    3.3819 C   0  0  2  0  0  0  0  0  0  0  0  0
    4.6307   -1.9788    4.2699 C   0  0  0  0  0  0  0  0  0  0  0  0
    4.5250   -1.9049    5.8435 C   0  0  0  0  0  0  0  0  0  0  0  0
    4.6225   -0.4378    6.4238 C   0  0  2  0  0  0  0  0  0  0  0  0
    5.9442   -0.2342    6.8671 O   0  0  0  0  0  0  0  0  0  0  0  0
    3.6090   -0.0286    7.5796 C   0  0  0  0  0  0  0  0  0  0  0  0
    2.8469    1.3784    7.2895 C   0  0  2  0  0  0  0  0  0  0  0  0
    4.0322    2.3608    7.6022 C   0  0  0  0  0  0  0  0  0  0  0  0
    1.6246    1.7100    8.2711 C   0  0  2  0  0  0  0  0  0  0  0  0
    0.8554    0.4008    8.4600 C   0  0  1  0  0  0  0  0  0  0  0  0
   -0.1844    0.4804    9.4097 O   0  0  0  0  0  0  0  0  0  0  0  0
    0.4500   -0.1031    7.0558 C   0  0  0  0  0  0  0  0  0  0  0  0
    0.6852    0.9450    5.9210 C   0  0  1  0  0  0  0  0  0  0  0  0
   -0.4031    0.8241    4.8992 C   0  0  0  0  0  0  0  0  0  0  0  0
   -0.2801    2.1168    5.6589 C   0  0  1  0  0  0  0  0  0  0  0  0
   -0.6966    2.7256    6.9907 C   0  0  0  0  0  0  0  0  0  0  0  0
   -1.3572    4.1017    6.6849 C   0  0  0  0  0  0  0  0  0  0  0  0
   -1.9048    2.0174    7.6760 C   0  0  0  0  0  0  0  0  0  0  0  0
    0.6360    2.9256    7.8773 C   0  0  2  0  0  0  0  0  0  0  0  0
    1.4680    4.1299    7.3720 C   0  0  0  0  0  0  0  0  0  0  0  0
    1.9774    4.1247    5.8880 C   0  0  0  0  0  0  0  0  0  0  0  0
    2.4241    2.8124    5.1352 C   0  0  1  0  0  0  0  0  0  0  0  0
    3.7618    3.0431    4.7251 O   0  0  0  0  0  0  0  0  0  0  0  0
    2.2083    1.3921    5.8068 C   0  0  1  0  0  0  0  0  0  0  0  0
    2.9631    0.2795    5.0425 C   0  0  2  0  0  0  0  0  0  0  0  0
    4.3339    0.3848    5.3667 O   0  0  0  0  0  0  0  0  0  0  0  0
    2.8990   -0.1660    3.6132 C   0  0  0  0  0  0  0  0  0  0  0  0
    2.7148    0.5215    2.4838 C   0  0  0  0  0  0  0  0  0  0  0  0
    3.1308   -0.3334    1.4055 C   0  0  0  0  0  0  0  0  0  0  0  0
    3.6067   -1.5054    1.8651 C   0  0  0  0  0  0  0  0  0  0  0  0
    4.0313   -2.6136    0.9712 C   0  0  0  0  0  0  0  0  0  0  0  0
    5.0762   -3.4895    1.3486 C   0  0  0  0  0  0  0  0  0  0  0  0
    5.4419   -4.5561    0.5043 C   0  0  0  0  0  0  0  0  0  0  0  0
    4.7832   -4.7122   -0.7226 C   0  0  0  0  0  0  0  0  0  0  0  0
    3.8058   -3.8485   -1.0760 N   0  0  0  0  0  0  0  0  0  0  0  0
    3.4163   -2.8154   -0.2934 C   0  0  0  0  0  0  0  0  0  0  0  0
    1.3428   -2.2991    3.0385 H   0  0  0  0  0  0  0  0  0  0  0  0
    1.9068   -2.6284    4.6646 H   0  0  0  0  0  0  0  0  0  0  0  0
    2.4890   -3.6016    3.3188 H   0  0  0  0  0  0  0  0  0  0  0  0
    4.8325   -3.0314    4.1025 H   0  0  0  0  0  0  0  0  0  0  0  0
    5.5177   -1.4467    3.9288 H   0  0  0  0  0  0  0  0  0  0  0  0
    3.6171   -2.3965    6.1824 H   0  0  0  0  0  0  0  0  0  0  0  0
    5.3325   -2.4961    6.2789 H   0  0  0  0  0  0  0  0  0  0  0  0
    5.9949    0.6259    7.2528 H   0  0  0  0  0  0  0  0  0  0  0  0
    2.9507   -0.8858    7.6584 H   0  0  0  0  0  0  0  0  0  0  0  0
    4.1313   -0.0119    8.5397 H   0  0  0  0  0  0  0  0  0  0  0  0
    3.9120    3.3925    7.3221 H   0  0  0  0  0  0  0  0  0  0  0  0
    4.9482    2.0944    7.0852 H   0  0  0  0  0  0  0  0  0  0  0  0
    4.2646    2.3605    8.6657 H   0  0  0  0  0  0  0  0  0  0  0  0
    2.0530    1.9644    9.2399 H   0  0  0  0  0  0  0  0  0  0  0  0
    1.4789   -0.3378    8.9566 H   0  0  0  0  0  0  0  0  0  0  0  0
    0.1722    0.7598   10.2442 H   0  0  0  0  0  0  0  0  0  0  0  0
    0.9942   -1.0122    6.8253 H   0  0  0  0  0  0  0  0  0  0  0  0
   -0.5731   -0.4718    7.0578 H   0  0  0  0  0  0  0  0  0  0  0  0
   -0.1005    0.8371    3.8546 H   0  0  0  0  0  0  0  0  0  0  0  0
   -1.2975    0.2366    5.1049 H   0  0  0  0  0  0  0  0  0  0  0  0
   -0.1021    2.8824    4.9143 H   0  0  0  0  0  0  0  0  0  0  0  0
   -1.6114    4.6313    7.6053 H   0  0  0  0  0  0  0  0  0  0  0  0
   -2.2774    3.9829    6.1112 H   0  0  0  0  0  0  0  0  0  0  0  0
   -0.7492    4.7678    6.0797 H   0  0  0  0  0  0  0  0  0  0  0  0
   -2.0445    2.3862    8.6949 H   0  0  0  0  0  0  0  0  0  0  0  0
   -1.8483    0.9464    7.7288 H   0  0  0  0  0  0  0  0  0  0  0  0
   -2.8447    2.1872    7.1490 H   0  0  0  0  0  0  0  0  0  0  0  0
    0.2440    3.2563    8.8372 H   0  0  0  0  0  0  0  0  0  0  0  0
    0.8986    5.0492    7.5048 H   0  0  0  0  0  0  0  0  0  0  0  0
    2.2724    4.3086    8.0784 H   0  0  0  0  0  0  0  0  0  0  0  0
    1.2291    4.6050    5.2588 H   0  0  0  0  0  0  0  0  0  0  0  0
    2.7918    4.8524    5.8455 H   0  0  0  0  0  0  0  0  0  0  0  0
    1.8970    2.8034    4.1818 H   0  0  0  0  0  0  0  0  0  0  0  0
    3.9322    2.5373    3.9420 H   0  0  0  0  0  0  0  0  0  0  0  0
    2.4980   -0.6127    5.4457 H   0  0  0  0  0  0  0  0  0  0  0  0
    2.4766    1.5707    2.3883 H   0  0  0  0  0  0  0  0  0  0  0  0
    3.0847   -0.0550    0.3657 H   0  0  0  0  0  0  0  0  0  0  0  0
    5.6321   -3.3608    2.2615 H   0  0  0  0  0  0  0  0  0  0  0  0
    6.2232   -5.2409    0.7990 H   0  0  0  0  0  0  0  0  0  0  0  0
    5.0074   -5.4958   -1.4343 H   0  0  0  0  0  0  0  0  0  0  0  0
    2.6206   -2.1967   -0.6950 H   0  0  0  0  0  0  0  0  0  0  0  0
    3.3402   -4.0078   -1.9764 H   0  0  0  0  0  0  0  0  0  0  0  0
  2  1  1  6
  1 38  1  0
  1 39  1  0
  1 40  1  0
  2 28  1  0
  2 31  1  0
  2  3  1  0
  3  4  1  0
  3 41  1  0
  3 42  1  0
  4  5  1  0
  4 43  1  0
  4 44  1  0
  5 27  1  0
  5  6  1  1
  5  7  1  0
  6 45  1  0
  7  8  1  0
  7 46  1  0
  7 47  1  0
  8 25  1  0
  8  9  1  6
  8 10  1  0
  9 48  1  0
  9 49  1  0
  9 50  1  0
 10 20  1  0
 10 11  1  0
 10 51  1  1
 11 12  1  0
 11 13  1  0
 11 52  1  1
 12 53  1  0
 13 14  1  0
 13 54  1  0
 13 55  1  0
 14 16  1  0
 25 14  1  1
 14 15  1  6
 15 16  1  0
 15 56  1  0
 15 57  1  0
 16 17  1  0
 16 58  1  6
 17 18  1  0
 17 19  1  0
 17 20  1  0
 18 59  1  0
 18 60  1  0
 18 61  1  0
 19 62  1  0
 19 63  1  0
 19 64  1  0
 20 21  1  0
 20 65  1  1
 21 22  1  0
 21 66  1  0
 21 67  1  0
 22 23  1  0
 22 68  1  0
 22 69  1  0
 23 24  1  0
 23 25  1  0
 23 70  1  6
 24 71  1  0
 25 26  1  0
 26 27  1  0
 26 28  1  0
 26 72  1  1
 28 29  2  0
 29 30  1  0
 29 73  1  0
 30 31  2  0
 30 74  1  0
 31 32  1  0
 32 37  1  0
 32 33  2  0
 33 34  1  0
 33 75  1  0
 34 35  2  0
 34 76  1  0
 35 36  1  0
 35 77  1  0
 36 37  2  0
 36 79  1  0
 37 78  1  0
M  CHG  1  36   1
M  END
>  <i_m_ct_stereo_status>  (266) 
1

>  <s_m_source_file>  (266) 
/var/tmp/pbs.5076255.sched01/tmp_gsyjirk/108c9vsds16.sdf

>  <i_m_source_file_index>  (266) 
9

>  <i_lp_mmshare_version>  (266) 
48012

>  <i_f3d_flags>  (266) 
0

>  <s_epik_input>  (266) 
W2NIXTFuW2NIXVtjSF1bY0hdYzFDMj1bQ0hdW0NIXT1DKFtDQEhdM080KVtDQF0yKFtDSDNdKVtDSDJdW0NIMl1bQ0BdNChbT0hdKVtDSDJdW0NAQF0oW0NIM10pKFtDQF0zNVtDQF02NzgpW0NASF0oW0NAQEhdKFtPSF0pW0NIMl02KVtDQEhdKEMoW0NIM10pKFtDSDNdKVtDQEBIXThbQ0gyXTcpW0NIMl1bQ0gyXVtDQEhdNVtPSF0=

>  <s_epik_cmdline>  (266) 
J2VwaWtfcHl0aG9uJywgJy1waHQnLCAnMi4wJywgJy1waCcsICc3LjAnLCAnLXRuJywgJzgnLCAnLW1hJywgJzIwMCcsICctaW1hZScsICc8aW5maWxlLm1hZT4nLCAnLW9tYWUnLCAnPG91dGZpbGUubWFlPic=

>  <r_epik_Ionization_Penalty>  (266) 
2.17565

>  <r_epik_Ionization_Penalty_Charging>  (266) 
2.17565

>  <r_epik_Ionization_Penalty_Neutral>  (266) 
1.0819e-06

>  <r_epik_State_Penalty>  (266) 
2.31729

>  <r_epik_Charging_Adjusted_Penalty>  (266) 
4.49294

>  <i_epik_Tot_Q>  (266) 
1

>  <i_epik_Tot_abs_Q>  (266) 
1

>  <s_lp_Force_Field>  (266) 
OPLS3e

>  <r_lp_Energy>  (266) 
179.73

>  <b_lp_Chiralities_Consistent>  (266) 
1

>  <s_lp_Variant>  (266) 
93:0-2

>  <s_i_glide_gridfile>  (266) 
pfpi4k_grid

>  <i_i_glide_lignum>  (266) 
9

>  <i_i_glide_rotatable_bonds>  (266) 
4

>  <r_i_docking_score>  (266) 
-2.3162

>  <r_i_glide_ligand_efficiency>  (266) 
-0.0626

>  <r_i_glide_ligand_efficiency_sa>  (266) 
-0.208597

>  <r_i_glide_ligand_efficiency_ln>  (266) 
-0.502329

>  <r_i_glide_gscore>  (266) 
-2.3162

>  <r_i_glide_lipo>  (266) 
-0.172005

>  <r_i_glide_hbond>  (266) 
0

>  <r_i_glide_metal>  (266) 
-0

>  <r_i_glide_rewards>  (266) 
0

>  <r_i_glide_evdw>  (266) 
-23.4565

>  <r_i_glide_ecoul>  (266) 
-6.89254

>  <r_i_glide_erotb>  (266) 
0.0802831

>  <r_i_glide_esite>  (266) 
-0.0177714

>  <r_i_glide_emodel>  (266) 
-34.2895

>  <r_i_glide_energy>  (266) 
-30.349

>  <r_i_glide_einternal>  (266) 
1.51118

>  <r_i_glide_intrahb_reward>  (266) 
-0

>  <i_i_glide_confnum>  (266) 
1

>  <i_i_glide_posenum>  (266) 
38

>  <r_i_glide_eff_state_penalty>  (266) 
0

>  <ligand_id>  (266) 
93

>  <original_smiles>  (266) 
CC12CCC3(O)CC4(C)C5C(O)CC67CC6C(C)(C)C5CCC(O)C47C(O3)C1=CC=C2c1cccnc1

>  <smiles>  (266) 
[H]OC1([H])C([H])([H])C23C([H])([H])C2([H])C(C([H])([H])[H])(C([H])([H])[H])C2([H])C([H])([H])C([H])([H])C([H])(O[H])C34C3([H])OC(O[H])(C([H])([H])C([H])([H])C5(C([H])([H])[H])C(c6c([H])c([H])c([H])[n+]([H])c6[H])=C([H])C([H])=C35)C([H])([H])C4(C([H])([H])[H])C12[H]

$$$$
93:1:1
     RDKit          3D

 79 86  0  0  1  0  0  0  0  0999 V2000
    1.9161   -4.4115    8.7153 C   0  0  0  0  0  0  0  0  0  0  0  0
    0.7474   -5.4382    8.7385 C   0  0  2  0  0  0  0  0  0  0  0  0
    1.0929   -6.7300    9.6066 C   0  0  0  0  0  0  0  0  0  0  0  0
    2.3634   -7.5751    9.1839 C   0  0  0  0  0  0  0  0  0  0  0  0
    2.1025   -8.5692    7.9686 C   0  0  2  0  0  0  0  0  0  0  0  0
    1.8628   -9.8452    8.5176 O   0  0  0  0  0  0  0  0  0  0  0  0
    3.2186   -8.6500    6.8333 C   0  0  0  0  0  0  0  0  0  0  0  0
    2.6231   -8.4778    5.3261 C   0  0  2  0  0  0  0  0  0  0  0  0
    1.9628   -9.8909    5.1538 C   0  0  0  0  0  0  0  0  0  0  0  0
    3.7166   -8.2844    4.1715 C   0  0  2  0  0  0  0  0  0  0  0  0
    4.7767   -7.3385    4.7366 C   0  0  1  0  0  0  0  0  0  0  0  0
    5.8800   -7.1703    3.8713 O   0  0  0  0  0  0  0  0  0  0  0  0
    4.0474   -6.0498    5.1758 C   0  0  0  0  0  0  0  0  0  0  0  0
    2.5666   -5.9722    4.6875 C   0  0  1  0  0  0  0  0  0  0  0  0
    2.2313   -4.5531    4.3723 C   0  0  0  0  0  0  0  0  0  0  0  0
    2.1808   -5.5521    3.2568 C   0  0  1  0  0  0  0  0  0  0  0  0
    3.1148   -6.2437    2.2865 C   0  0  0  0  0  0  0  0  0  0  0  0
    2.4831   -6.1081    0.8739 C   0  0  0  0  0  0  0  0  0  0  0  0
    4.4580   -5.4934    2.0324 C   0  0  0  0  0  0  0  0  0  0  0  0
    3.2170   -7.7949    2.7130 C   0  0  2  0  0  0  0  0  0  0  0  0
    1.9399   -8.5756    2.3141 C   0  0  0  0  0  0  0  0  0  0  0  0
    0.5677   -8.0958    2.8884 C   0  0  0  0  0  0  0  0  0  0  0  0
    0.4122   -7.4965    4.3370 C   0  0  1  0  0  0  0  0  0  0  0  0
   -0.5807   -8.2592    4.9972 O   0  0  0  0  0  0  0  0  0  0  0  0
    1.6836   -7.1777    5.2245 C   0  0  1  0  0  0  0  0  0  0  0  0
    1.2984   -6.8622    6.6941 C   0  0  2  0  0  0  0  0  0  0  0  0
    0.9885   -8.0811    7.3412 O   0  0  0  0  0  0  0  0  0  0  0  0
    0.4122   -5.8068    7.2863 C   0  0  0  0  0  0  0  0  0  0  0  0
   -0.7419   -5.2862    6.8601 C   0  0  0  0  0  0  0  0  0  0  0  0
   -1.3537   -4.6226    7.9785 C   0  0  0  0  0  0  0  0  0  0  0  0
   -0.5678   -4.7057    9.0970 C   0  0  0  0  0  0  0  0  0  0  0  0
   -1.0098   -4.2588   10.4590 C   0  0  0  0  0  0  0  0  0  0  0  0
   -2.3839   -4.0395   10.7846 C   0  0  0  0  0  0  0  0  0  0  0  0
   -2.7422   -3.4738   12.0336 C   0  0  0  0  0  0  0  0  0  0  0  0
   -1.7176   -3.0893   12.9378 C   0  0  0  0  0  0  0  0  0  0  0  0
   -0.4361   -3.3423   12.6088 N   0  0  0  0  0  0  0  0  0  0  0  0
   -0.0416   -3.9195   11.4558 C   0  0  0  0  0  0  0  0  0  0  0  0
    1.5918   -3.5744    8.0812 H   0  0  0  0  0  0  0  0  0  0  0  0
    2.8210   -4.8279    8.2418 H   0  0  0  0  0  0  0  0  0  0  0  0
    2.2099   -4.0229    9.6841 H   0  0  0  0  0  0  0  0  0  0  0  0
    1.2662   -6.3920   10.6180 H   0  0  0  0  0  0  0  0  0  0  0  0
    0.2362   -7.3989    9.7212 H   0  0  0  0  0  0  0  0  0  0  0  0
    3.2215   -6.9296    9.0009 H   0  0  0  0  0  0  0  0  0  0  0  0
    2.6822   -8.1962   10.0176 H   0  0  0  0  0  0  0  0  0  0  0  0
    1.7752  -10.5216    7.8317 H   0  0  0  0  0  0  0  0  0  0  0  0
    3.9436   -7.8951    7.1099 H   0  0  0  0  0  0  0  0  0  0  0  0
    3.7649   -9.5910    6.9223 H   0  0  0  0  0  0  0  0  0  0  0  0
    1.3130  -10.0492    4.3079 H   0  0  0  0  0  0  0  0  0  0  0  0
    1.3319  -10.1621    5.9945 H   0  0  0  0  0  0  0  0  0  0  0  0
    2.7276  -10.6702    5.0834 H   0  0  0  0  0  0  0  0  0  0  0  0
    4.2070   -9.2455    4.0178 H   0  0  0  0  0  0  0  0  0  0  0  0
    5.2836   -7.7864    5.5899 H   0  0  0  0  0  0  0  0  0  0  0  0
    6.3128   -8.0037    3.7544 H   0  0  0  0  0  0  0  0  0  0  0  0
    4.0728   -5.9598    6.2595 H   0  0  0  0  0  0  0  0  0  0  0  0
    4.6156   -5.1724    4.8871 H   0  0  0  0  0  0  0  0  0  0  0  0
    1.2758   -4.1901    4.7348 H   0  0  0  0  0  0  0  0  0  0  0  0
    3.0180   -3.8017    4.2846 H   0  0  0  0  0  0  0  0  0  0  0  0
    1.1648   -5.5496    2.8932 H   0  0  0  0  0  0  0  0  0  0  0  0
    3.0890   -6.6380    0.1351 H   0  0  0  0  0  0  0  0  0  0  0  0
    2.4363   -5.0653    0.5499 H   0  0  0  0  0  0  0  0  0  0  0  0
    1.4601   -6.4692    0.7929 H   0  0  0  0  0  0  0  0  0  0  0  0
    5.1461   -6.1198    1.4562 H   0  0  0  0  0  0  0  0  0  0  0  0
    4.9933   -5.1533    2.9064 H   0  0  0  0  0  0  0  0  0  0  0  0
    4.3143   -4.5774    1.4574 H   0  0  0  0  0  0  0  0  0  0  0  0
    3.9765   -8.1833    2.0386 H   0  0  0  0  0  0  0  0  0  0  0  0
    1.8355   -8.5876    1.2305 H   0  0  0  0  0  0  0  0  0  0  0  0
    2.1105   -9.6349    2.4962 H   0  0  0  0  0  0  0  0  0  0  0  0
    0.1347   -7.3697    2.2031 H   0  0  0  0  0  0  0  0  0  0  0  0
   -0.1145   -8.9393    2.7837 H   0  0  0  0  0  0  0  0  0  0  0  0
   -0.1225   -6.5539    4.2371 H   0  0  0  0  0  0  0  0  0  0  0  0
   -0.3163   -9.1705    5.0055 H   0  0  0  0  0  0  0  0  0  0  0  0
    2.2209   -6.4136    7.0478 H   0  0  0  0  0  0  0  0  0  0  0  0
   -1.2302   -5.5198    5.9106 H   0  0  0  0  0  0  0  0  0  0  0  0
   -2.3459   -4.2210    7.9326 H   0  0  0  0  0  0  0  0  0  0  0  0
   -3.1727   -4.2930   10.0807 H   0  0  0  0  0  0  0  0  0  0  0  0
   -3.7719   -3.2833   12.3053 H   0  0  0  0  0  0  0  0  0  0  0  0
   -1.8935   -2.6142   13.8936 H   0  0  0  0  0  0  0  0  0  0  0  0
    1.0314   -4.0448   11.3756 H   0  0  0  0  0  0  0  0  0  0  0  0
    0.2865   -3.0239   13.2681 H   0  0  0  0  0  0  0  0  0  0  0  0
  2  1  1  6
  1 38  1  0
  1 39  1  0
  1 40  1  0
  2 28  1  0
  2 31  1  0
  2  3  1  0
  3  4  1  0
  3 41  1  0
  3 42  1  0
  4  5  1  0
  4 43  1  0
  4 44  1  0
  5 27  1  0
  5  6  1  1
  5  7  1  0
  6 45  1  0
  7  8  1  0
  7 46  1  0
  7 47  1  0
  8 25  1  0
  8  9  1  6
  8 10  1  0
  9 48  1  0
  9 49  1  0
  9 50  1  0
 10 20  1  0
 10 11  1  0
 10 51  1  6
 11 12  1  0
 11 13  1  0
 11 52  1  1
 12 53  1  0
 13 14  1  0
 13 54  1  0
 13 55  1  0
 14 16  1  0
 25 14  1  6
 14 15  1  1
 15 16  1  0
 15 56  1  0
 15 57  1  0
 16 17  1  0
 16 58  1  6
 17 18  1  0
 17 19  1  0
 17 20  1  0
 18 59  1  0
 18 60  1  0
 18 61  1  0
 19 62  1  0
 19 63  1  0
 19 64  1  0
 20 21  1  0
 20 65  1  6
 21 22  1  0
 21 66  1  0
 21 67  1  0
 22 23  1  0
 22 68  1  0
 22 69  1  0
 23 24  1  0
 23 25  1  0
 23 70  1  6
 24 71  1  0
 25 26  1  0
 26 27  1  0
 26 28  1  0
 26 72  1  1
 28 29  2  0
 29 30  1  0
 29 73  1  0
 30 31  2  0
 30 74  1  0
 31 32  1  0
 32 37  1  0
 32 33  2  0
 33 34  1  0
 33 75  1  0
 34 35  2  0
 34 76  1  0
 35 36  1  0
 35 77  1  0
 36 37  2  0
 36 79  1  0
 37 78  1  0
M  CHG  1  36   1
M  END
>  <i_m_ct_stereo_status>  (267) 
1

>  <s_m_source_file>  (267) 
/var/tmp/pbs.5076255.sched01/tmp_gsyjirk/108c9vsds16.sdf

>  <i_m_source_file_index>  (267) 
9

>  <i_lp_mmshare_version>  (267) 
48012

>  <i_f3d_flags>  (267) 
0

>  <s_epik_input>  (267) 
W2NIXTFuW2NIXVtjSF1bY0hdYzFDMj1bQ0hdW0NIXT1DKFtDQEhdM080KVtDQF0yKFtDSDNdKVtDSDJdW0NIMl1bQ0BdNChbT0hdKVtDSDJdW0NAQF0oW0NIM10pKFtDQF0zNVtDQF02NzgpW0NASF0oW0NAQEhdKFtPSF0pW0NIMl02KVtDQEhdKEMoW0NIM10pKFtDSDNdKVtDQEBIXThbQ0gyXTcpW0NIMl1bQ0gyXVtDQEhdNVtPSF0=

>  <s_epik_cmdline>  (267) 
J2VwaWtfcHl0aG9uJywgJy1waHQnLCAnMi4wJywgJy1waCcsICc3LjAnLCAnLXRuJywgJzgnLCAnLW1hJywgJzIwMCcsICctaW1hZScsICc8aW5maWxlLm1hZT4nLCAnLW9tYWUnLCAnPG91dGZpbGUubWFlPic=

>  <r_epik_Ionization_Penalty>  (267) 
2.17565

>  <r_epik_Ionization_Penalty_Charging>  (267) 
2.17565

>  <r_epik_Ionization_Penalty_Neutral>  (267) 
1.0819e-06

>  <r_epik_State_Penalty>  (267) 
2.31729

>  <r_epik_Charging_Adjusted_Penalty>  (267) 
4.49294

>  <i_epik_Tot_Q>  (267) 
1

>  <i_epik_Tot_abs_Q>  (267) 
1

>  <s_lp_Force_Field>  (267) 
OPLS3e

>  <r_lp_Energy>  (267) 
179.73

>  <b_lp_Chiralities_Consistent>  (267) 
1

>  <s_lp_Variant>  (267) 
93:0-2

>  <s_i_glide_gridfile>  (267) 
pfpi4k_grid

>  <i_i_glide_lignum>  (267) 
9

>  <i_i_glide_rotatable_bonds>  (267) 
4

>  <r_i_docking_score>  (267) 
-2.23368

>  <r_i_glide_ligand_efficiency>  (267) 
-0.0603699

>  <r_i_glide_ligand_efficiency_sa>  (267) 
-0.201166

>  <r_i_glide_ligand_efficiency_ln>  (267) 
-0.484434

>  <r_i_glide_gscore>  (267) 
-2.23368

>  <r_i_glide_lipo>  (267) 
-0.108036

>  <r_i_glide_hbond>  (267) 
0

>  <r_i_glide_metal>  (267) 
-0

>  <r_i_glide_rewards>  (267) 
0

>  <r_i_glide_evdw>  (267) 
-25.5532

>  <r_i_glide_ecoul>  (267) 
-6.00012

>  <r_i_glide_erotb>  (267) 
0.0802831

>  <r_i_glide_esite>  (267) 
-0.028254

>  <r_i_glide_emodel>  (267) 
-34.8864

>  <r_i_glide_energy>  (267) 
-31.5533

>  <r_i_glide_einternal>  (267) 
2.06405

>  <r_i_glide_intrahb_reward>  (267) 
-0

>  <i_i_glide_confnum>  (267) 
4

>  <i_i_glide_posenum>  (267) 
9

>  <r_i_glide_eff_state_penalty>  (267) 
0

>  <ligand_id>  (267) 
93

>  <original_smiles>  (267) 
CC12CCC3(O)CC4(C)C5C(O)CC67CC6C(C)(C)C5CCC(O)C47C(O3)C1=CC=C2c1cccnc1

>  <smiles>  (267) 
[H]OC1([H])C([H])([H])C23C([H])([H])C2([H])C(C([H])([H])[H])(C([H])([H])[H])C2([H])C([H])([H])C([H])([H])C([H])(O[H])C34C3([H])OC(O[H])(C([H])([H])C([H])([H])C5(C([H])([H])[H])C(c6c([H])c([H])c([H])[n+]([H])c6[H])=C([H])C([H])=C35)C([H])([H])C4(C([H])([H])[H])C12[H]

$$$$
93:1:2
     RDKit          3D

 79 86  0  0  1  0  0  0  0  0999 V2000
    2.3558   -2.6622    3.6230 C   0  0  0  0  0  0  0  0  0  0  0  0
    3.4036   -1.5750    3.3253 C   0  0  2  0  0  0  0  0  0  0  0  0
    4.7095   -1.7856    4.1984 C   0  0  0  0  0  0  0  0  0  0  0  0
    4.6306   -1.6864    5.7617 C   0  0  0  0  0  0  0  0  0  0  0  0
    4.6215   -0.2060    6.2986 C   0  0  2  0  0  0  0  0  0  0  0  0
    5.9224    0.1450    6.6973 O   0  0  0  0  0  0  0  0  0  0  0  0
    3.5899    0.1468    7.4584 C   0  0  0  0  0  0  0  0  0  0  0  0
    2.6868    1.4646    7.1556 C   0  0  2  0  0  0  0  0  0  0  0  0
    3.7782    2.5623    7.4045 C   0  0  0  0  0  0  0  0  0  0  0  0
    1.4659    1.7068    8.1536 C   0  0  2  0  0  0  0  0  0  0  0  0
    0.8366    0.3338    8.4015 C   0  0  1  0  0  0  0  0  0  0  0  0
   -0.1888    0.3445    9.3694 O   0  0  0  0  0  0  0  0  0  0  0  0
    0.4488   -0.2468    7.0255 C   0  0  0  0  0  0  0  0  0  0  0  0
    0.5430    0.7915    5.8665 C   0  0  1  0  0  0  0  0  0  0  0  0
   -0.5464    0.5250    4.8770 C   0  0  0  0  0  0  0  0  0  0  0  0
   -0.5446    1.8458    5.5832 C   0  0  1  0  0  0  0  0  0  0  0  0
   -0.9717    2.4577    6.9081 C   0  0  0  0  0  0  0  0  0  0  0  0
   -1.7767    3.7393    6.5848 C   0  0  0  0  0  0  0  0  0  0  0  0
   -2.0789    1.6697    7.6452 C   0  0  0  0  0  0  0  0  0  0  0  0
    0.3544    2.8071    7.7520 C   0  0  2  0  0  0  0  0  0  0  0  0
    1.0489    4.0695    7.1934 C   0  0  0  0  0  0  0  0  0  0  0  0
    1.5146    4.0689    5.6968 C   0  0  0  0  0  0  0  0  0  0  0  0
    2.0651    2.7760    4.9766 C   0  0  1  0  0  0  0  0  0  0  0  0
    3.3658    3.1080    4.5301 O   0  0  0  0  0  0  0  0  0  0  0  0
    2.0113    1.3689    5.6924 C   0  0  1  0  0  0  0  0  0  0  0  0
    2.8516    0.3147    4.9311 C   0  0  2  0  0  0  0  0  0  0  0  0
    4.2178    0.5535    5.2227 O   0  0  0  0  0  0  0  0  0  0  0  0
    2.7846   -0.1857    3.5203 C   0  0  0  0  0  0  0  0  0  0  0  0
    2.5174    0.4469    2.3759 C   0  0  0  0  0  0  0  0  0  0  0  0
    3.0003   -0.3974    1.3149 C   0  0  0  0  0  0  0  0  0  0  0  0
    3.5905   -1.5018    1.8069 C   0  0  0  0  0  0  0  0  0  0  0  0
    4.0902   -2.5975    0.9212 C   0  0  0  0  0  0  0  0  0  0  0  0
    5.1894   -3.4012    1.2950 C   0  0  0  0  0  0  0  0  0  0  0  0
    5.6233   -4.4540    0.4801 C   0  0  0  0  0  0  0  0  0  0  0  0
    4.9835   -4.6623   -0.7526 C   0  0  0  0  0  0  0  0  0  0  0  0
    3.9650   -3.8521   -1.1291 N   0  0  0  0  0  0  0  0  0  0  0  0
    3.4996   -2.8436   -0.3556 C   0  0  0  0  0  0  0  0  0  0  0  0
    1.4463   -2.4708    3.0523 H   0  0  0  0  0  0  0  0  0  0  0  0
    2.0732   -2.6973    4.6715 H   0  0  0  0  0  0  0  0  0  0  0  0
    2.7166   -3.6496    3.3372 H   0  0  0  0  0  0  0  0  0  0  0  0
    4.9904   -2.8209    4.1053 H   0  0  0  0  0  0  0  0  0  0  0  0
    5.5408   -1.1946    3.8054 H   0  0  0  0  0  0  0  0  0  0  0  0
    3.7746   -2.2537    6.1405 H   0  0  0  0  0  0  0  0  0  0  0  0
    5.4995   -2.1839    6.1940 H   0  0  0  0  0  0  0  0  0  0  0  0
    6.5172   -0.0539    5.9768 H   0  0  0  0  0  0  0  0  0  0  0  0
    3.0188   -0.7665    7.5825 H   0  0  0  0  0  0  0  0  0  0  0  0
    4.1314    0.2482    8.3962 H   0  0  0  0  0  0  0  0  0  0  0  0
    3.5554    3.5684    7.0973 H   0  0  0  0  0  0  0  0  0  0  0  0
    4.7036    2.3590    6.8757 H   0  0  0  0  0  0  0  0  0  0  0  0
    4.0364    2.6149    8.4614 H   0  0  0  0  0  0  0  0  0  0  0  0
    1.8889    2.0295    9.1003 H   0  0  0  0  0  0  0  0  0  0  0  0
    1.5399   -0.3301    8.9025 H   0  0  0  0  0  0  0  0  0  0  0  0
    0.1665    0.6628   10.1966 H   0  0  0  0  0  0  0  0  0  0  0  0
    1.0729   -1.1077    6.7995 H   0  0  0  0  0  0  0  0  0  0  0  0
   -0.5264   -0.7139    7.0616 H   0  0  0  0  0  0  0  0  0  0  0  0
   -0.2695    0.5393    3.8212 H   0  0  0  0  0  0  0  0  0  0  0  0
   -1.3784   -0.1374    5.1270 H   0  0  0  0  0  0  0  0  0  0  0  0
   -0.4530    2.5975    4.8159 H   0  0  0  0  0  0  0  0  0  0  0  0
   -2.0574    4.2676    7.5007 H   0  0  0  0  0  0  0  0  0  0  0  0
   -2.6973    3.5192    6.0431 H   0  0  0  0  0  0  0  0  0  0  0  0
   -1.2524    4.4454    5.9461 H   0  0  0  0  0  0  0  0  0  0  0  0
   -2.2317    2.0417    8.6621 H   0  0  0  0  0  0  0  0  0  0  0  0
   -1.8943    0.6159    7.7088 H   0  0  0  0  0  0  0  0  0  0  0  0
   -3.0485    1.7236    7.1452 H   0  0  0  0  0  0  0  0  0  0  0  0
   -0.0439    3.1233    8.7119 H   0  0  0  0  0  0  0  0  0  0  0  0
    0.3951    4.9307    7.3199 H   0  0  0  0  0  0  0  0  0  0  0  0
    1.8506    4.3441    7.8736 H   0  0  0  0  0  0  0  0  0  0  0  0
    0.7039    4.4550    5.0769 H   0  0  0  0  0  0  0  0  0  0  0  0
    2.2554    4.8717    5.6151 H   0  0  0  0  0  0  0  0  0  0  0  0
    1.5236    2.6849    4.0306 H   0  0  0  0  0  0  0  0  0  0  0  0
    3.2990    3.6882    3.7765 H   0  0  0  0  0  0  0  0  0  0  0  0
    2.4899   -0.5994    5.3719 H   0  0  0  0  0  0  0  0  0  0  0  0
    2.1974    1.4763    2.2620 H   0  0  0  0  0  0  0  0  0  0  0  0
    2.8768   -0.1794    0.2698 H   0  0  0  0  0  0  0  0  0  0  0  0
    5.7511   -3.2392    2.2092 H   0  0  0  0  0  0  0  0  0  0  0  0
    6.4379   -5.0933    0.8003 H   0  0  0  0  0  0  0  0  0  0  0  0
    5.2390   -5.4512   -1.4486 H   0  0  0  0  0  0  0  0  0  0  0  0
    2.6764   -2.2693   -0.7742 H   0  0  0  0  0  0  0  0  0  0  0  0
    3.5162   -4.0556   -2.0382 H   0  0  0  0  0  0  0  0  0  0  0  0
  2  1  1  6
  1 38  1  0
  1 39  1  0
  1 40  1  0
  2 28  1  0
  2 31  1  0
  2  3  1  0
  3  4  1  0
  3 41  1  0
  3 42  1  0
  4  5  1  0
  4 43  1  0
  4 44  1  0
  5 27  1  0
  5  6  1  1
  5  7  1  0
  6 45  1  0
  7  8  1  0
  7 46  1  0
  7 47  1  0
  8 25  1  0
  8  9  1  6
  8 10  1  0
  9 48  1  0
  9 49  1  0
  9 50  1  0
 10 20  1  0
 10 11  1  0
 10 51  1  1
 11 12  1  0
 11 13  1  0
 11 52  1  1
 12 53  1  0
 13 14  1  0
 13 54  1  0
 13 55  1  0
 14 16  1  0
 25 14  1  1
 14 15  1  6
 15 16  1  0
 15 56  1  0
 15 57  1  0
 16 17  1  0
 16 58  1  6
 17 18  1  0
 17 19  1  0
 17 20  1  0
 18 59  1  0
 18 60  1  0
 18 61  1  0
 19 62  1  0
 19 63  1  0
 19 64  1  0
 20 21  1  0
 20 65  1  1
 21 22  1  0
 21 66  1  0
 21 67  1  0
 22 23  1  0
 22 68  1  0
 22 69  1  0
 23 24  1  0
 23 25  1  0
 23 70  1  6
 24 71  1  0
 25 26  1  0
 26 27  1  0
 26 28  1  0
 26 72  1  1
 28 29  2  0
 29 30  1  0
 29 73  1  0
 30 31  2  0
 30 74  1  0
 31 32  1  0
 32 37  1  0
 32 33  2  0
 33 34  1  0
 33 75  1  0
 34 35  2  0
 34 76  1  0
 35 36  1  0
 35 77  1  0
 36 37  2  0
 36 79  1  0
 37 78  1  0
M  CHG  1  36   1
M  END
>  <i_m_ct_stereo_status>  (268) 
1

>  <s_m_source_file>  (268) 
/var/tmp/pbs.5076255.sched01/tmp_gsyjirk/108c9vsds16.sdf

>  <i_m_source_file_index>  (268) 
9

>  <i_lp_mmshare_version>  (268) 
48012

>  <i_f3d_flags>  (268) 
0

>  <s_epik_input>  (268) 
W2NIXTFuW2NIXVtjSF1bY0hdYzFDMj1bQ0hdW0NIXT1DKFtDQEhdM080KVtDQF0yKFtDSDNdKVtDSDJdW0NIMl1bQ0BdNChbT0hdKVtDSDJdW0NAQF0oW0NIM10pKFtDQF0zNVtDQF02NzgpW0NASF0oW0NAQEhdKFtPSF0pW0NIMl02KVtDQEhdKEMoW0NIM10pKFtDSDNdKVtDQEBIXThbQ0gyXTcpW0NIMl1bQ0gyXVtDQEhdNVtPSF0=

>  <s_epik_cmdline>  (268) 
J2VwaWtfcHl0aG9uJywgJy1waHQnLCAnMi4wJywgJy1waCcsICc3LjAnLCAnLXRuJywgJzgnLCAnLW1hJywgJzIwMCcsICctaW1hZScsICc8aW5maWxlLm1hZT4nLCAnLW9tYWUnLCAnPG91dGZpbGUubWFlPic=

>  <r_epik_Ionization_Penalty>  (268) 
2.17565

>  <r_epik_Ionization_Penalty_Charging>  (268) 
2.17565

>  <r_epik_Ionization_Penalty_Neutral>  (268) 
1.0819e-06

>  <r_epik_State_Penalty>  (268) 
2.31729

>  <r_epik_Charging_Adjusted_Penalty>  (268) 
4.49294

>  <i_epik_Tot_Q>  (268) 
1

>  <i_epik_Tot_abs_Q>  (268) 
1

>  <s_lp_Force_Field>  (268) 
OPLS3e

>  <r_lp_Energy>  (268) 
179.73

>  <b_lp_Chiralities_Consistent>  (268) 
1

>  <s_lp_Variant>  (268) 
93:0-2

>  <s_i_glide_gridfile>  (268) 
pfpi4k_grid

>  <i_i_glide_lignum>  (268) 
9

>  <i_i_glide_rotatable_bonds>  (268) 
4

>  <r_i_docking_score>  (268) 
-2.22147

>  <r_i_glide_ligand_efficiency>  (268) 
-0.0600398

>  <r_i_glide_ligand_efficiency_sa>  (268) 
-0.200066

>  <r_i_glide_ligand_efficiency_ln>  (268) 
-0.481785

>  <r_i_glide_gscore>  (268) 
-2.22147

>  <r_i_glide_lipo>  (268) 
-0.21498

>  <r_i_glide_hbond>  (268) 
0

>  <r_i_glide_metal>  (268) 
-0

>  <r_i_glide_rewards>  (268) 
-0.00208155

>  <r_i_glide_evdw>  (268) 
-24.4225

>  <r_i_glide_ecoul>  (268) 
-5.6041

>  <r_i_glide_erotb>  (268) 
0.0802831

>  <r_i_glide_esite>  (268) 
-0.0229511

>  <r_i_glide_emodel>  (268) 
-33.6653

>  <r_i_glide_energy>  (268) 
-30.0266

>  <r_i_glide_einternal>  (268) 
1.32644

>  <r_i_glide_intrahb_reward>  (268) 
-0

>  <i_i_glide_confnum>  (268) 
1

>  <i_i_glide_posenum>  (268) 
20

>  <r_i_glide_eff_state_penalty>  (268) 
0

>  <ligand_id>  (268) 
93

>  <original_smiles>  (268) 
CC12CCC3(O)CC4(C)C5C(O)CC67CC6C(C)(C)C5CCC(O)C47C(O3)C1=CC=C2c1cccnc1

>  <smiles>  (268) 
[H]OC1([H])C([H])([H])C23C([H])([H])C2([H])C(C([H])([H])[H])(C([H])([H])[H])C2([H])C([H])([H])C([H])([H])C([H])(O[H])C34C3([H])OC(O[H])(C([H])([H])C([H])([H])C5(C([H])([H])[H])C(c6c([H])c([H])c([H])[n+]([H])c6[H])=C([H])C([H])=C35)C([H])([H])C4(C([H])([H])[H])C12[H]

$$$$
94:0:0
     RDKit          3D

 38 43  0  0  1  0  0  0  0  0999 V2000
    3.9657   -5.5917    1.7519 O   0  0  0  0  0  0  0  0  0  0  0  0
    2.9843   -4.6938    1.3062 C   0  0  2  0  0  0  0  0  0  0  0  0
    3.0029   -4.3841   -0.1378 O   0  0  0  0  0  0  0  0  0  0  0  0
    3.8593   -3.5505   -0.8428 C   0  0  0  0  0  0  0  0  0  0  0  0
    5.0050   -3.8363   -1.4867 C   0  0  0  0  0  0  0  0  0  0  0  0
    5.9728   -2.6500   -1.4406 C   0  0  2  0  0  0  0  0  0  0  0  0
    7.0806   -3.0353   -0.4747 C   0  0  0  0  0  0  0  0  0  0  0  0
    6.4787   -3.4707    0.8788 C   0  0  2  0  0  0  0  0  0  0  0  0
    6.2152   -4.7730    0.8178 F   0  0  0  0  0  0  0  0  0  0  0  0
    5.2571   -2.6905    1.5138 C   0  0  1  0  0  0  0  0  0  0  0  0
    5.6570   -1.3707    1.9464 C   0  0  1  0  0  0  0  0  0  0  0  0
    5.8205   -0.6379    0.4883 C   0  0  0  0  0  0  0  0  0  0  0  0
    5.1852   -1.4250   -0.8355 C   0  0  2  0  0  0  0  0  0  0  0  0
    3.8183   -2.1114   -0.5461 C   0  0  2  0  0  0  0  0  0  0  0  0
    3.8394   -2.1276    0.8595 C   0  0  1  0  0  0  0  0  0  0  0  0
    2.6613   -2.3179    1.6565 C   0  0  2  0  0  0  0  0  0  0  0  0
    3.1534   -2.1130    3.0058 C   0  0  2  0  0  0  0  0  0  0  0  0
    4.5087   -1.2026    3.0888 C   0  0  0  0  0  0  0  0  0  0  0  0
    2.6415   -3.5546    2.3739 C   0  0  2  0  0  0  0  0  0  0  0  0
    4.8083   -5.1434    1.6919 H   0  0  0  0  0  0  0  0  0  0  0  0
    2.0961   -5.3266    1.2945 H   0  0  0  0  0  0  0  0  0  0  0  0
    5.3280   -4.8339   -1.7270 H   0  0  0  0  0  0  0  0  0  0  0  0
    6.3781   -2.4311   -2.4345 H   0  0  0  0  0  0  0  0  0  0  0  0
    7.6671   -3.8566   -0.8873 H   0  0  0  0  0  0  0  0  0  0  0  0
    7.7964   -2.2269   -0.3459 H   0  0  0  0  0  0  0  0  0  0  0  0
    7.2936   -3.4308    1.6025 H   0  0  0  0  0  0  0  0  0  0  0  0
    5.1319   -3.3152    2.3987 H   0  0  0  0  0  0  0  0  0  0  0  0
    6.6222   -1.3556    2.4412 H   0  0  0  0  0  0  0  0  0  0  0  0
    5.3113    0.3253    0.5444 H   0  0  0  0  0  0  0  0  0  0  0  0
    6.8709   -0.3976    0.3312 H   0  0  0  0  0  0  0  0  0  0  0  0
    5.0334   -0.6854   -1.6317 H   0  0  0  0  0  0  0  0  0  0  0  0
    2.9658   -1.6200   -1.0084 H   0  0  0  0  0  0  0  0  0  0  0  0
    3.6378   -1.0454    0.9022 H   0  0  0  0  0  0  0  0  0  0  0  0
    1.7421   -1.8266    1.3640 H   0  0  0  0  0  0  0  0  0  0  0  0
    2.4459   -1.8029    3.7719 H   0  0  0  0  0  0  0  0  0  0  0  0
    4.9560   -1.4234    4.0534 H   0  0  0  0  0  0  0  0  0  0  0  0
    4.1957   -0.1617    3.1273 H   0  0  0  0  0  0  0  0  0  0  0  0
    1.7091   -3.8103    2.8731 H   0  0  0  0  0  0  0  0  0  0  0  0
  1  2  1  0
  1 20  1  0
  2 19  1  0
  2  3  1  0
  2 21  1  6
  3  4  1  0
  4 14  1  0
  4  5  2  0
  5  6  1  0
  5 22  1  0
  6 13  1  0
  6  7  1  0
  6 23  1  6
  7  8  1  0
  7 24  1  0
  7 25  1  0
  8  9  1  0
  8 10  1  0
  8 26  1  1
 10 15  1  0
 10 11  1  0
 10 27  1  1
 11 18  1  0
 11 12  1  0
 11 28  1  1
 12 13  1  0
 12 29  1  0
 12 30  1  0
 13 14  1  0
 13 31  1  6
 14 15  1  0
 14 32  1  1
 15 16  1  0
 15 33  1  1
 16 19  1  0
 16 17  1  0
 16 34  1  6
 17 18  1  0
 17 19  1  0
 17 35  1  1
 18 36  1  0
 18 37  1  0
 19 38  1  1
M  END
>  <i_m_ct_stereo_status>  (269) 
1

>  <s_m_source_file>  (269) 
/var/tmp/pbs.5076255.sched01/tmp_gsyjirk/108c9vsds16.sdf

>  <i_m_source_file_index>  (269) 
10

>  <i_lp_mmshare_version>  (269) 
48012

>  <i_f3d_flags>  (269) 
0

>  <s_epik_input>  (269) 
W09IXVtDQEhdKE8xKVtDQEBIXTJbQ0BIXShbQ0BASF0zNClbQ0BASF0yW0NIMl1bQ0BIXShbQ0gyXTUpW0NAQEhdM1tDQEBIXShGKVtDSDJdW0NAQEhdKFtDSF02KVtDQEhdNVtDQEhdNEMxPTY=

>  <s_epik_cmdline>  (269) 
J2VwaWtfcHl0aG9uJywgJy1waHQnLCAnMi4wJywgJy1waCcsICc3LjAnLCAnLXRuJywgJzgnLCAnLW1hJywgJzIwMCcsICctaW1hZScsICc8aW5maWxlLm1hZT4nLCAnLW9tYWUnLCAnPG91dGZpbGUubWFlPic=

>  <r_lp_tautomer_probability>  (269) 
1

>  <r_epik_Ionization_Penalty>  (269) 
5.04751e-08

>  <r_epik_Ionization_Penalty_Charging>  (269) 
0

>  <r_epik_Ionization_Penalty_Neutral>  (269) 
5.04751e-08

>  <r_epik_State_Penalty>  (269) 
-0

>  <r_epik_Charging_Adjusted_Penalty>  (269) 
0

>  <i_epik_Tot_Q>  (269) 
0

>  <i_epik_Tot_abs_Q>  (269) 
0

>  <s_epik_Chemistry_Notes>  (269) 
This compound contains an acetal/aminal-like group ( X-CH(R)-Y where X, Y are N, S, or O) that may be acid/base labile, releasing an aldehyde.

>  <s_lp_Force_Field>  (269) 
OPLS3e

>  <r_lp_Energy>  (269) 
226.531

>  <b_lp_Chiralities_Consistent>  (269) 
1

>  <s_lp_Variant>  (269) 
94:0-1

>  <s_i_glide_gridfile>  (269) 
pfpi4k_grid

>  <i_i_glide_lignum>  (269) 
10

>  <i_i_glide_rotatable_bonds>  (269) 
1

>  <r_i_docking_score>  (269) 
-3.33368

>  <r_i_glide_ligand_efficiency>  (269) 
-0.175457

>  <r_i_glide_ligand_efficiency_sa>  (269) 
-0.46819

>  <r_i_glide_ligand_efficiency_ln>  (269) 
-0.845161

>  <r_i_glide_gscore>  (269) 
-3.33368

>  <r_i_glide_lipo>  (269) 
-0.532492

>  <r_i_glide_hbond>  (269) 
0

>  <r_i_glide_metal>  (269) 
-0

>  <r_i_glide_rewards>  (269) 
-1.76051

>  <r_i_glide_evdw>  (269) 
-21.1962

>  <r_i_glide_ecoul>  (269) 
0.16659

>  <r_i_glide_erotb>  (269) 
0

>  <r_i_glide_esite>  (269) 
-0.00586516

>  <r_i_glide_emodel>  (269) 
-24.9259

>  <r_i_glide_energy>  (269) 
-21.0296

>  <r_i_glide_einternal>  (269) 
0.00280603

>  <r_i_glide_intrahb_reward>  (269) 
-0

>  <i_i_glide_confnum>  (269) 
1

>  <i_i_glide_posenum>  (269) 
14

>  <r_i_glide_eff_state_penalty>  (269) 
0

>  <ligand_id>  (269) 
94

>  <original_smiles>  (269) 
OC1OC2=CC3CC(F)C4C5CC3C2C4C2C(C5)C12

>  <smiles>  (269) 
[H]OC1([H])OC2=C([H])C3([H])C([H])([H])C([H])(F)C4([H])C5([H])C([H])([H])C3([H])C2([H])C4([H])C2([H])C1([H])C2([H])C5([H])[H]

$$$$
94:0:1
     RDKit          3D

 38 43  0  0  1  0  0  0  0  0999 V2000
    4.1829   -5.6574    1.8818 O   0  0  0  0  0  0  0  0  0  0  0  0
    3.1192   -4.8435    1.4572 C   0  0  2  0  0  0  0  0  0  0  0  0
    3.0807   -4.5537    0.0083 O   0  0  0  0  0  0  0  0  0  0  0  0
    3.8378   -3.6413   -0.7254 C   0  0  0  0  0  0  0  0  0  0  0  0
    4.9598   -3.8371   -1.4376 C   0  0  0  0  0  0  0  0  0  0  0  0
    5.8315   -2.5712   -1.4228 C   0  0  2  0  0  0  0  0  0  0  0  0
    7.0131   -2.8701   -0.5104 C   0  0  0  0  0  0  0  0  0  0  0  0
    6.5123   -3.3511    0.8654 C   0  0  2  0  0  0  0  0  0  0  0  0
    6.3760   -4.6738    0.7992 F   0  0  0  0  0  0  0  0  0  0  0  0
    5.2588   -2.6670    1.5601 C   0  0  1  0  0  0  0  0  0  0  0  0
    5.5755   -1.3162    1.9724 C   0  0  1  0  0  0  0  0  0  0  0  0
    5.6113   -0.5726    0.5082 C   0  0  0  0  0  0  0  0  0  0  0  0
    4.9826   -1.4163   -0.7800 C   0  0  2  0  0  0  0  0  0  0  0  0
    3.6881   -2.2153   -0.4248 C   0  0  2  0  0  0  0  0  0  0  0  0
    3.7746   -2.2147    0.9735 C   0  0  1  0  0  0  0  0  0  0  0  0
    2.6502   -2.4861    1.8285 C   0  0  2  0  0  0  0  0  0  0  0  0
    3.1908   -2.2427    3.1528 C   0  0  2  0  0  0  0  0  0  0  0  0
    4.4753   -1.2310    3.1732 C   0  0  0  0  0  0  0  0  0  0  0  0
    2.7550   -3.7205    2.5356 C   0  0  2  0  0  0  0  0  0  0  0  0
    4.1138   -6.4895    1.4190 H   0  0  0  0  0  0  0  0  0  0  0  0
    2.2625   -5.5187    1.4786 H   0  0  0  0  0  0  0  0  0  0  0  0
    5.3553   -4.7978   -1.7112 H   0  0  0  0  0  0  0  0  0  0  0  0
    6.1739   -2.3190   -2.4320 H   0  0  0  0  0  0  0  0  0  0  0  0
    7.6420   -3.6436   -0.9524 H   0  0  0  0  0  0  0  0  0  0  0  0
    7.6681   -2.0069   -0.4076 H   0  0  0  0  0  0  0  0  0  0  0  0
    7.3500   -3.2450    1.5525 H   0  0  0  0  0  0  0  0  0  0  0  0
    5.2193   -3.3042    2.4449 H   0  0  0  0  0  0  0  0  0  0  0  0
    6.5630   -1.2240    2.4210 H   0  0  0  0  0  0  0  0  0  0  0  0
    5.0493    0.3561    0.5918 H   0  0  0  0  0  0  0  0  0  0  0  0
    6.6300   -0.2508    0.2893 H   0  0  0  0  0  0  0  0  0  0  0  0
    4.7311   -0.7015   -1.5697 H   0  0  0  0  0  0  0  0  0  0  0  0
    2.7696   -1.8171   -0.8484 H   0  0  0  0  0  0  0  0  0  0  0  0
    3.4968   -1.1498    1.0253 H   0  0  0  0  0  0  0  0  0  0  0  0
    1.6810   -2.0619    1.5838 H   0  0  0  0  0  0  0  0  0  0  0  0
    2.5041   -1.9821    3.9525 H   0  0  0  0  0  0  0  0  0  0  0  0
    4.9886   -1.4019    4.1185 H   0  0  0  0  0  0  0  0  0  0  0  0
    4.0911   -0.2128    3.2273 H   0  0  0  0  0  0  0  0  0  0  0  0
    1.8724   -4.0515    3.0808 H   0  0  0  0  0  0  0  0  0  0  0  0
  1  2  1  0
  1 20  1  0
  2 19  1  0
  2  3  1  0
  2 21  1  6
  3  4  1  0
  4 14  1  0
  4  5  2  0
  5  6  1  0
  5 22  1  0
  6 13  1  0
  6  7  1  0
  6 23  1  6
  7  8  1  0
  7 24  1  0
  7 25  1  0
  8  9  1  0
  8 10  1  0
  8 26  1  1
 10 15  1  0
 10 11  1  0
 10 27  1  1
 11 18  1  0
 11 12  1  0
 11 28  1  1
 12 13  1  0
 12 29  1  0
 12 30  1  0
 13 14  1  0
 13 31  1  6
 14 15  1  0
 14 32  1  1
 15 16  1  0
 15 33  1  1
 16 19  1  0
 16 17  1  0
 16 34  1  6
 17 18  1  0
 17 19  1  0
 17 35  1  1
 18 36  1  0
 18 37  1  0
 19 38  1  1
M  END
>  <i_m_ct_stereo_status>  (270) 
1

>  <s_m_source_file>  (270) 
/var/tmp/pbs.5076255.sched01/tmp_gsyjirk/108c9vsds16.sdf

>  <i_m_source_file_index>  (270) 
10

>  <i_lp_mmshare_version>  (270) 
48012

>  <i_f3d_flags>  (270) 
0

>  <s_epik_input>  (270) 
W09IXVtDQEhdKE8xKVtDQEBIXTJbQ0BIXShbQ0BASF0zNClbQ0BASF0yW0NIMl1bQ0BIXShbQ0gyXTUpW0NAQEhdM1tDQEBIXShGKVtDSDJdW0NAQEhdKFtDSF02KVtDQEhdNVtDQEhdNEMxPTY=

>  <s_epik_cmdline>  (270) 
J2VwaWtfcHl0aG9uJywgJy1waHQnLCAnMi4wJywgJy1waCcsICc3LjAnLCAnLXRuJywgJzgnLCAnLW1hJywgJzIwMCcsICctaW1hZScsICc8aW5maWxlLm1hZT4nLCAnLW9tYWUnLCAnPG91dGZpbGUubWFlPic=

>  <r_lp_tautomer_probability>  (270) 
1

>  <r_epik_Ionization_Penalty>  (270) 
5.04751e-08

>  <r_epik_Ionization_Penalty_Charging>  (270) 
0

>  <r_epik_Ionization_Penalty_Neutral>  (270) 
5.04751e-08

>  <r_epik_State_Penalty>  (270) 
-0

>  <r_epik_Charging_Adjusted_Penalty>  (270) 
0

>  <i_epik_Tot_Q>  (270) 
0

>  <i_epik_Tot_abs_Q>  (270) 
0

>  <s_epik_Chemistry_Notes>  (270) 
This compound contains an acetal/aminal-like group ( X-CH(R)-Y where X, Y are N, S, or O) that may be acid/base labile, releasing an aldehyde.

>  <s_lp_Force_Field>  (270) 
OPLS3e

>  <r_lp_Energy>  (270) 
226.531

>  <b_lp_Chiralities_Consistent>  (270) 
1

>  <s_lp_Variant>  (270) 
94:0-1

>  <s_i_glide_gridfile>  (270) 
pfpi4k_grid

>  <i_i_glide_lignum>  (270) 
10

>  <i_i_glide_rotatable_bonds>  (270) 
1

>  <r_i_docking_score>  (270) 
-3.24282

>  <r_i_glide_ligand_efficiency>  (270) 
-0.170675

>  <r_i_glide_ligand_efficiency_sa>  (270) 
-0.455429

>  <r_i_glide_ligand_efficiency_ln>  (270) 
-0.822124

>  <r_i_glide_gscore>  (270) 
-3.24282

>  <r_i_glide_lipo>  (270) 
-0.467139

>  <r_i_glide_hbond>  (270) 
0

>  <r_i_glide_metal>  (270) 
-0

>  <r_i_glide_rewards>  (270) 
-1.7665

>  <r_i_glide_evdw>  (270) 
-20.4867

>  <r_i_glide_ecoul>  (270) 
0.100986

>  <r_i_glide_erotb>  (270) 
0

>  <r_i_glide_esite>  (270) 
0

>  <r_i_glide_emodel>  (270) 
-23.8405

>  <r_i_glide_energy>  (270) 
-20.3857

>  <r_i_glide_einternal>  (270) 
0.603967

>  <r_i_glide_intrahb_reward>  (270) 
-0

>  <i_i_glide_confnum>  (270) 
1

>  <i_i_glide_posenum>  (270) 
22

>  <r_i_glide_eff_state_penalty>  (270) 
0

>  <ligand_id>  (270) 
94

>  <original_smiles>  (270) 
OC1OC2=CC3CC(F)C4C5CC3C2C4C2C(C5)C12

>  <smiles>  (270) 
[H]OC1([H])OC2=C([H])C3([H])C([H])([H])C([H])(F)C4([H])C5([H])C([H])([H])C3([H])C2([H])C4([H])C2([H])C1([H])C2([H])C5([H])[H]

$$$$
94:0:2
     RDKit          3D

 38 43  0  0  1  0  0  0  0  0999 V2000
    7.7250   -4.4575    1.2143 O   0  0  0  0  0  0  0  0  0  0  0  0
    6.5609   -5.2265    1.3762 C   0  0  2  0  0  0  0  0  0  0  0  0
    5.7563   -5.3911    0.1583 O   0  0  0  0  0  0  0  0  0  0  0  0
    4.8732   -4.4652   -0.4145 C   0  0  0  0  0  0  0  0  0  0  0  0
    5.0715   -3.6050   -1.4117 C   0  0  0  0  0  0  0  0  0  0  0  0
    4.1979   -2.3507   -1.2284 C   0  0  2  0  0  0  0  0  0  0  0  0
    5.1359   -1.2300   -0.8055 C   0  0  0  0  0  0  0  0  0  0  0  0
    5.9528   -1.6496    0.4341 C   0  0  2  0  0  0  0  0  0  0  0  0
    7.0624   -2.2553    0.0136 F   0  0  0  0  0  0  0  0  0  0  0  0
    5.2717   -2.4649    1.6113 C   0  0  1  0  0  0  0  0  0  0  0  0
    4.3277   -1.6327    2.3265 C   0  0  1  0  0  0  0  0  0  0  0  0
    3.1102   -1.5669    1.2182 C   0  0  0  0  0  0  0  0  0  0  0  0
    3.1970   -2.6401   -0.0572 C   0  0  2  0  0  0  0  0  0  0  0  0
    3.6803   -4.0693    0.3515 C   0  0  2  0  0  0  0  0  0  0  0  0
    4.2462   -3.7776    1.6046 C   0  0  1  0  0  0  0  0  0  0  0  0
    4.5034   -4.7874    2.6054 C   0  0  2  0  0  0  0  0  0  0  0  0
    4.9686   -4.0084    3.7437 C   0  0  2  0  0  0  0  0  0  0  0  0
    4.4205   -2.4605    3.7339 C   0  0  0  0  0  0  0  0  0  0  0  0
    5.8955   -5.0241    2.8191 C   0  0  2  0  0  0  0  0  0  0  0  0
    7.4596   -3.5535    1.1191 H   0  0  0  0  0  0  0  0  0  0  0  0
    6.9609   -6.2350    1.4129 H   0  0  0  0  0  0  0  0  0  0  0  0
    5.9262   -3.6050   -2.0727 H   0  0  0  0  0  0  0  0  0  0  0  0
    3.6731   -2.0911   -2.1535 H   0  0  0  0  0  0  0  0  0  0  0  0
    5.8125   -0.9896   -1.6249 H   0  0  0  0  0  0  0  0  0  0  0  0
    4.5853   -0.3083   -0.6235 H   0  0  0  0  0  0  0  0  0  0  0  0
    6.3438   -0.7312    0.8727 H   0  0  0  0  0  0  0  0  0  0  0  0
    6.1651   -2.5959    2.2268 H   0  0  0  0  0  0  0  0  0  0  0  0
    4.7023   -0.6240    2.5022 H   0  0  0  0  0  0  0  0  0  0  0  0
    2.1665   -1.7356    1.7368 H   0  0  0  0  0  0  0  0  0  0  0  0
    3.0233   -0.5449    0.8406 H   0  0  0  0  0  0  0  0  0  0  0  0
    2.1991   -2.7298   -0.4890 H   0  0  0  0  0  0  0  0  0  0  0  0
    2.9072   -4.8359    0.3528 H   0  0  0  0  0  0  0  0  0  0  0  0
    3.2562   -3.6517    2.0678 H   0  0  0  0  0  0  0  0  0  0  0  0
    3.7722   -5.5757    2.7588 H   0  0  0  0  0  0  0  0  0  0  0  0
    4.8405   -4.4337    4.7346 H   0  0  0  0  0  0  0  0  0  0  0  0
    5.0749   -1.9060    4.4051 H   0  0  0  0  0  0  0  0  0  0  0  0
    3.4396   -2.4467    4.2112 H   0  0  0  0  0  0  0  0  0  0  0  0
    6.1580   -5.8750    3.4441 H   0  0  0  0  0  0  0  0  0  0  0  0
  1  2  1  0
  1 20  1  0
  2 19  1  0
  2  3  1  0
  2 21  1  1
  3  4  1  0
  4 14  1  0
  4  5  2  0
  5  6  1  0
  5 22  1  0
  6 13  1  0
  6  7  1  0
  6 23  1  6
  7  8  1  0
  7 24  1  0
  7 25  1  0
  8  9  1  0
  8 10  1  0
  8 26  1  1
 10 15  1  0
 10 11  1  0
 10 27  1  1
 11 18  1  0
 11 12  1  0
 11 28  1  1
 12 13  1  0
 12 29  1  0
 12 30  1  0
 13 14  1  0
 13 31  1  6
 14 15  1  0
 14 32  1  1
 15 16  1  0
 15 33  1  1
 16 19  1  0
 16 17  1  0
 16 34  1  1
 17 18  1  0
 17 19  1  0
 17 35  1  1
 18 36  1  0
 18 37  1  0
 19 38  1  1
M  END
>  <i_m_ct_stereo_status>  (271) 
1

>  <s_m_source_file>  (271) 
/var/tmp/pbs.5076255.sched01/tmp_gsyjirk/108c9vsds16.sdf

>  <i_m_source_file_index>  (271) 
10

>  <i_lp_mmshare_version>  (271) 
48012

>  <i_f3d_flags>  (271) 
0

>  <s_epik_input>  (271) 
W09IXVtDQEhdKE8xKVtDQEBIXTJbQ0BIXShbQ0BASF0zNClbQ0BASF0yW0NIMl1bQ0BIXShbQ0gyXTUpW0NAQEhdM1tDQEBIXShGKVtDSDJdW0NAQEhdKFtDSF02KVtDQEhdNVtDQEhdNEMxPTY=

>  <s_epik_cmdline>  (271) 
J2VwaWtfcHl0aG9uJywgJy1waHQnLCAnMi4wJywgJy1waCcsICc3LjAnLCAnLXRuJywgJzgnLCAnLW1hJywgJzIwMCcsICctaW1hZScsICc8aW5maWxlLm1hZT4nLCAnLW9tYWUnLCAnPG91dGZpbGUubWFlPic=

>  <r_lp_tautomer_probability>  (271) 
1

>  <r_epik_Ionization_Penalty>  (271) 
5.04751e-08

>  <r_epik_Ionization_Penalty_Charging>  (271) 
0

>  <r_epik_Ionization_Penalty_Neutral>  (271) 
5.04751e-08

>  <r_epik_State_Penalty>  (271) 
-0

>  <r_epik_Charging_Adjusted_Penalty>  (271) 
0

>  <i_epik_Tot_Q>  (271) 
0

>  <i_epik_Tot_abs_Q>  (271) 
0

>  <s_epik_Chemistry_Notes>  (271) 
This compound contains an acetal/aminal-like group ( X-CH(R)-Y where X, Y are N, S, or O) that may be acid/base labile, releasing an aldehyde.

>  <s_lp_Force_Field>  (271) 
OPLS3e

>  <r_lp_Energy>  (271) 
226.531

>  <b_lp_Chiralities_Consistent>  (271) 
1

>  <s_lp_Variant>  (271) 
94:0-1

>  <s_i_glide_gridfile>  (271) 
pfpi4k_grid

>  <i_i_glide_lignum>  (271) 
10

>  <i_i_glide_rotatable_bonds>  (271) 
1

>  <r_i_docking_score>  (271) 
-3.10106

>  <r_i_glide_ligand_efficiency>  (271) 
-0.163213

>  <r_i_glide_ligand_efficiency_sa>  (271) 
-0.435519

>  <r_i_glide_ligand_efficiency_ln>  (271) 
-0.786184

>  <r_i_glide_gscore>  (271) 
-3.10106

>  <r_i_glide_lipo>  (271) 
-0.292606

>  <r_i_glide_hbond>  (271) 
0

>  <r_i_glide_metal>  (271) 
-0

>  <r_i_glide_rewards>  (271) 
-1.74388

>  <r_i_glide_evdw>  (271) 
-19.3339

>  <r_i_glide_ecoul>  (271) 
-0.637314

>  <r_i_glide_erotb>  (271) 
0

>  <r_i_glide_esite>  (271) 
-0.0022724

>  <r_i_glide_emodel>  (271) 
-23.6212

>  <r_i_glide_energy>  (271) 
-19.9712

>  <r_i_glide_einternal>  (271) 
0.000855418

>  <r_i_glide_intrahb_reward>  (271) 
-0

>  <i_i_glide_confnum>  (271) 
1

>  <i_i_glide_posenum>  (271) 
1

>  <r_i_glide_eff_state_penalty>  (271) 
0

>  <ligand_id>  (271) 
94

>  <original_smiles>  (271) 
OC1OC2=CC3CC(F)C4C5CC3C2C4C2C(C5)C12

>  <smiles>  (271) 
[H]OC1([H])OC2=C([H])C3([H])C([H])([H])C([H])(F)C4([H])C5([H])C([H])([H])C3([H])C2([H])C4([H])C2([H])C1([H])C2([H])C5([H])[H]

$$$$
95:0:0
     RDKit          3D

 49 54  0  0  1  0  0  0  0  0999 V2000
    7.3121   -2.3332   -1.1139 N   0  0  0  0  0  0  0  0  0  0  0  0
    6.3705   -2.9868   -0.9790 C   0  0  0  0  0  0  0  0  0  0  0  0
    5.1559   -3.8089   -0.8154 C   0  0  2  0  0  0  0  0  0  0  0  0
    3.9470   -2.9089   -0.5136 C   0  0  0  0  0  0  0  0  0  0  0  0
    2.6742   -3.7363   -0.3147 C   0  0  0  0  0  0  0  0  0  0  0  0
    2.8390   -4.7339    0.8324 C   0  0  0  0  0  0  0  0  0  0  0  0
    4.0444   -5.6798    0.6574 C   0  0  1  0  0  0  0  0  0  0  0  0
    5.2813   -4.9191    0.2203 C   0  0  0  0  0  0  0  0  0  0  0  0
    6.3730   -5.3762    0.8439 C   0  0  0  0  0  0  0  0  0  0  0  0
    6.0513   -6.5366    1.7717 C   0  0  0  0  0  0  0  0  0  0  0  0
    4.5147   -6.4718    1.9061 C   0  0  1  0  0  0  0  0  0  0  0  0
    4.2847   -5.7290    3.0775 O   0  0  0  0  0  0  0  0  0  0  0  0
    3.8963   -6.7518    4.0932 O   0  0  0  0  0  0  0  0  0  0  0  0
    3.2710   -7.7445    3.3252 C   0  0  2  0  0  0  0  0  0  0  0  0
    1.7627   -7.3748    3.1846 C   0  0  0  0  0  0  0  0  0  0  0  0
    0.8105   -8.5942    3.1112 C   0  0  2  0  0  0  0  0  0  0  0  0
    0.3332   -9.0794    4.5109 C   0  0  0  0  0  0  0  0  0  0  0  0
    1.4172   -9.8839    5.2749 C   0  0  1  0  0  0  0  0  0  0  0  0
    1.9158  -11.0442    4.4242 C   0  0  0  0  0  0  0  0  0  0  0  0
    2.6382  -10.2803    3.3034 C   0  0  1  0  0  0  0  0  0  0  0  0
    1.5320   -9.7317    2.3727 C   0  0  0  0  0  0  0  0  0  0  0  0
    3.4014   -9.1164    4.0347 C   0  0  2  0  0  0  0  0  0  0  0  0
    2.7144   -9.0815    5.4429 C   0  0  0  0  0  0  0  0  0  0  0  0
    3.9023   -7.7426    2.0583 O   0  0  0  0  0  0  0  0  0  0  0  0
    4.9877   -4.2918   -1.7766 H   0  0  0  0  0  0  0  0  0  0  0  0
    4.1374   -2.3196    0.3828 H   0  0  0  0  0  0  0  0  0  0  0  0
    3.7903   -2.1964   -1.3234 H   0  0  0  0  0  0  0  0  0  0  0  0
    1.8389   -3.0673   -0.1030 H   0  0  0  0  0  0  0  0  0  0  0  0
    2.4195   -4.2574   -1.2397 H   0  0  0  0  0  0  0  0  0  0  0  0
    2.9234   -4.1773    1.7687 H   0  0  0  0  0  0  0  0  0  0  0  0
    1.9236   -5.3143    0.8800 H   0  0  0  0  0  0  0  0  0  0  0  0
    3.8448   -6.3699   -0.1677 H   0  0  0  0  0  0  0  0  0  0  0  0
    7.3808   -5.0193    0.6871 H   0  0  0  0  0  0  0  0  0  0  0  0
    6.3851   -7.4524    1.2710 H   0  0  0  0  0  0  0  0  0  0  0  0
    6.5860   -6.4467    2.7196 H   0  0  0  0  0  0  0  0  0  0  0  0
    1.4530   -6.7282    4.0096 H   0  0  0  0  0  0  0  0  0  0  0  0
    1.6096   -6.7874    2.2950 H   0  0  0  0  0  0  0  0  0  0  0  0
   -0.0754   -8.2975    2.5398 H   0  0  0  0  0  0  0  0  0  0  0  0
   -0.0145   -8.2392    5.1131 H   0  0  0  0  0  0  0  0  0  0  0  0
   -0.5374   -9.7212    4.3760 H   0  0  0  0  0  0  0  0  0  0  0  0
    1.0335  -10.2293    6.2329 H   0  0  0  0  0  0  0  0  0  0  0  0
    2.6144  -11.6669    4.9853 H   0  0  0  0  0  0  0  0  0  0  0  0
    1.1144  -11.6935    4.0761 H   0  0  0  0  0  0  0  0  0  0  0  0
    3.3123  -10.9280    2.7455 H   0  0  0  0  0  0  0  0  0  0  0  0
    0.8300  -10.5133    2.0924 H   0  0  0  0  0  0  0  0  0  0  0  0
    1.9582   -9.3733    1.4367 H   0  0  0  0  0  0  0  0  0  0  0  0
    4.4580   -9.3831    4.1661 H   0  0  0  0  0  0  0  0  0  0  0  0
    2.5244   -8.0757    5.8232 H   0  0  0  0  0  0  0  0  0  0  0  0
    3.3560   -9.5782    6.1751 H   0  0  0  0  0  0  0  0  0  0  0  0
  1  2  3  0
  2  3  1  0
  3  8  1  0
  3  4  1  0
  3 25  1  6
  4  5  1  0
  4 26  1  0
  4 27  1  0
  5  6  1  0
  5 28  1  0
  5 29  1  0
  6  7  1  0
  6 30  1  0
  6 31  1  0
  7 11  1  0
  7  8  1  0
  7 32  1  6
  8  9  2  0
  9 10  1  0
  9 33  1  0
 10 11  1  0
 10 34  1  0
 10 35  1  0
 11 24  1  1
 11 12  1  0
 12 13  1  0
 14 13  1  1
 14 22  1  0
 14 15  1  0
 14 24  1  0
 15 16  1  0
 15 36  1  0
 15 37  1  0
 16 21  1  0
 16 17  1  0
 16 38  1  6
 17 18  1  0
 17 39  1  0
 17 40  1  0
 18 23  1  0
 18 19  1  0
 18 41  1  1
 19 20  1  0
 19 42  1  0
 19 43  1  0
 20 21  1  0
 20 22  1  0
 20 44  1  6
 21 45  1  0
 21 46  1  0
 22 23  1  0
 22 47  1  1
 23 48  1  0
 23 49  1  0
M  END
>  <i_m_ct_stereo_status>  (272) 
1

>  <s_m_source_file>  (272) 
/var/tmp/pbs.5076255.sched01/tmp_gsyjirk/108c9vsds16.sdf

>  <i_m_source_file_index>  (272) 
11

>  <i_lp_mmshare_version>  (272) 
48012

>  <i_f3d_flags>  (272) 
0

>  <s_epik_input>  (272) 
W0NIMl0xW0NIMl1bQ0gyXVtDQEBIXShDI04pQyg9W0NIXVtDSDJdMilbQ0BIXTFbQ0BdMjNPT1tDQEBdNChPMylbQ0BASF01W0NASF02W0NIMl1bQ0BASF0oW0NIMl01KVtDSDJdW0NAQEhdKFtDSDJdNClbQ0gyXTY=

>  <s_epik_cmdline>  (272) 
J2VwaWtfcHl0aG9uJywgJy1waHQnLCAnMi4wJywgJy1waCcsICc3LjAnLCAnLXRuJywgJzgnLCAnLW1hJywgJzIwMCcsICctaW1hZScsICc8aW5maWxlLm1hZT4nLCAnLW9tYWUnLCAnPG91dGZpbGUubWFlPic=

>  <r_lp_tautomer_probability>  (272) 
1

>  <r_epik_Ionization_Penalty>  (272) 
7.95625e-12

>  <r_epik_Ionization_Penalty_Charging>  (272) 
0

>  <r_epik_Ionization_Penalty_Neutral>  (272) 
7.95625e-12

>  <r_epik_State_Penalty>  (272) 
-0

>  <r_epik_Charging_Adjusted_Penalty>  (272) 
0

>  <i_epik_Tot_Q>  (272) 
0

>  <i_epik_Tot_abs_Q>  (272) 
0

>  <s_lp_Force_Field>  (272) 
OPLS3e

>  <r_lp_Energy>  (272) 
33.4435

>  <b_lp_Chiralities_Consistent>  (272) 
1

>  <s_lp_Variant>  (272) 
95:0-1

>  <s_i_glide_gridfile>  (272) 
pfpi4k_grid

>  <i_i_glide_lignum>  (272) 
11

>  <i_i_glide_rotatable_bonds>  (272) 
1

>  <r_i_docking_score>  (272) 
-3.63659

>  <r_i_glide_ligand_efficiency>  (272) 
-0.151525

>  <r_i_glide_ligand_efficiency_sa>  (272) 
-0.437073

>  <r_i_glide_ligand_efficiency_ln>  (272) 
-0.870404

>  <r_i_glide_gscore>  (272) 
-3.63659

>  <r_i_glide_lipo>  (272) 
-0.461375

>  <r_i_glide_hbond>  (272) 
-0.16

>  <r_i_glide_metal>  (272) 
-0

>  <r_i_glide_rewards>  (272) 
-1.27025

>  <r_i_glide_evdw>  (272) 
-24.1808

>  <r_i_glide_ecoul>  (272) 
-3.57031

>  <r_i_glide_erotb>  (272) 
0

>  <r_i_glide_esite>  (272) 
-0.000377977

>  <r_i_glide_emodel>  (272) 
-33.9672

>  <r_i_glide_energy>  (272) 
-27.7511

>  <r_i_glide_einternal>  (272) 
-0.00991262

>  <r_i_glide_intrahb_reward>  (272) 
-0

>  <i_i_glide_confnum>  (272) 
1

>  <i_i_glide_posenum>  (272) 
24

>  <r_i_glide_eff_state_penalty>  (272) 
0

>  <ligand_id>  (272) 
95

>  <original_smiles>  (272) 
N#CC1CCCC2C1=CCC21OOC2(CC3CC4CC(C3)C2C4)O1

>  <smiles>  (272) 
[H]C1=C2C([H])(C#N)C([H])([H])C([H])([H])C([H])([H])C2([H])C2(OOC3(O2)C([H])([H])C2([H])C([H])([H])C4([H])C([H])([H])C([H])(C2([H])[H])C3([H])C4([H])[H])C1([H])[H]

$$$$
95:0:1
     RDKit          3D

 49 54  0  0  1  0  0  0  0  0999 V2000
    6.9873   -1.4561    0.0651 N   0  0  0  0  0  0  0  0  0  0  0  0
    6.7316   -2.4442    0.5949 C   0  0  0  0  0  0  0  0  0  0  0  0
    6.4199   -3.7062    1.2667 C   0  0  2  0  0  0  0  0  0  0  0  0
    6.9736   -4.8906    0.4871 C   0  0  0  0  0  0  0  0  0  0  0  0
    6.6539   -6.2142    1.1880 C   0  0  0  0  0  0  0  0  0  0  0  0
    5.1374   -6.3969    1.3282 C   0  0  0  0  0  0  0  0  0  0  0  0
    4.4659   -5.2323    2.0848 C   0  0  1  0  0  0  0  0  0  0  0  0
    4.9452   -3.8969    1.5825 C   0  0  0  0  0  0  0  0  0  0  0  0
    3.9497   -3.0050    1.5113 C   0  0  0  0  0  0  0  0  0  0  0  0
    2.6397   -3.5875    1.9759 C   0  0  0  0  0  0  0  0  0  0  0  0
    2.9100   -5.1152    1.9746 C   0  0  1  0  0  0  0  0  0  0  0  0
    2.4498   -5.5851    0.7172 O   0  0  0  0  0  0  0  0  0  0  0  0
    1.1648   -6.2586    1.0339 O   0  0  0  0  0  0  0  0  0  0  0  0
    1.3602   -6.7423    2.3422 C   0  0  2  0  0  0  0  0  0  0  0  0
    2.0282   -8.1461    2.2749 C   0  0  0  0  0  0  0  0  0  0  0  0
    1.6116   -9.1059    3.4140 C   0  0  2  0  0  0  0  0  0  0  0  0
    0.3347   -9.9263    3.0742 C   0  0  0  0  0  0  0  0  0  0  0  0
   -0.9627   -9.0872    3.1873 C   0  0  1  0  0  0  0  0  0  0  0  0
   -1.0561   -8.4475    4.5646 C   0  0  0  0  0  0  0  0  0  0  0  0
    0.0969   -7.4513    4.5078 C   0  0  1  0  0  0  0  0  0  0  0  0
    1.3893   -8.2767    4.6946 C   0  0  0  0  0  0  0  0  0  0  0  0
   -0.0060   -6.8576    3.0676 C   0  0  2  0  0  0  0  0  0  0  0  0
   -0.9423   -7.8384    2.3113 C   0  0  0  0  0  0  0  0  0  0  0  0
    2.2054   -5.7994    3.0077 O   0  0  0  0  0  0  0  0  0  0  0  0
    6.9541   -3.6696    2.2007 H   0  0  0  0  0  0  0  0  0  0  0  0
    6.5119   -4.8609   -0.4948 H   0  0  0  0  0  0  0  0  0  0  0  0
    8.0538   -4.7944    0.3608 H   0  0  0  0  0  0  0  0  0  0  0  0
    7.0723   -7.0421    0.6138 H   0  0  0  0  0  0  0  0  0  0  0  0
    7.1318   -6.2543    2.1700 H   0  0  0  0  0  0  0  0  0  0  0  0
    4.7021   -6.5074    0.3330 H   0  0  0  0  0  0  0  0  0  0  0  0
    4.9860   -7.3309    1.8594 H   0  0  0  0  0  0  0  0  0  0  0  0
    4.7615   -5.2660    3.1354 H   0  0  0  0  0  0  0  0  0  0  0  0
    4.0553   -1.9733    1.2115 H   0  0  0  0  0  0  0  0  0  0  0  0
    2.4381   -3.2044    2.9805 H   0  0  0  0  0  0  0  0  0  0  0  0
    1.8272   -3.2961    1.3095 H   0  0  0  0  0  0  0  0  0  0  0  0
    1.8103   -8.6120    1.3133 H   0  0  0  0  0  0  0  0  0  0  0  0
    3.1026   -8.0478    2.3067 H   0  0  0  0  0  0  0  0  0  0  0  0
    2.4285   -9.8130    3.5697 H   0  0  0  0  0  0  0  0  0  0  0  0
    0.4165  -10.3717    2.0806 H   0  0  0  0  0  0  0  0  0  0  0  0
    0.2596  -10.7708    3.7621 H   0  0  0  0  0  0  0  0  0  0  0  0
   -1.8276   -9.7108    2.9690 H   0  0  0  0  0  0  0  0  0  0  0  0
   -2.0141   -7.9452    4.6832 H   0  0  0  0  0  0  0  0  0  0  0  0
   -0.9663   -9.1662    5.3763 H   0  0  0  0  0  0  0  0  0  0  0  0
    0.0068   -6.7014    5.2941 H   0  0  0  0  0  0  0  0  0  0  0  0
    1.3245   -8.9299    5.5640 H   0  0  0  0  0  0  0  0  0  0  0  0
    2.2428   -7.6287    4.8835 H   0  0  0  0  0  0  0  0  0  0  0  0
   -0.4659   -5.8765    3.1363 H   0  0  0  0  0  0  0  0  0  0  0  0
   -0.6270   -8.0691    1.2929 H   0  0  0  0  0  0  0  0  0  0  0  0
   -1.9522   -7.4319    2.2553 H   0  0  0  0  0  0  0  0  0  0  0  0
  1  2  3  0
  2  3  1  0
  3  8  1  0
  3  4  1  0
  3 25  1  1
  4  5  1  0
  4 26  1  0
  4 27  1  0
  5  6  1  0
  5 28  1  0
  5 29  1  0
  6  7  1  0
  6 30  1  0
  6 31  1  0
  7 11  1  0
  7  8  1  0
  7 32  1  1
  8  9  2  0
  9 10  1  0
  9 33  1  0
 10 11  1  0
 10 34  1  0
 10 35  1  0
 11 24  1  1
 11 12  1  0
 12 13  1  0
 14 13  1  6
 14 22  1  0
 14 15  1  0
 14 24  1  0
 15 16  1  0
 15 36  1  0
 15 37  1  0
 16 21  1  0
 16 17  1  0
 16 38  1  1
 17 18  1  0
 17 39  1  0
 17 40  1  0
 18 23  1  0
 18 19  1  0
 18 41  1  6
 19 20  1  0
 19 42  1  0
 19 43  1  0
 20 21  1  0
 20 22  1  0
 20 44  1  1
 21 45  1  0
 21 46  1  0
 22 23  1  0
 22 47  1  1
 23 48  1  0
 23 49  1  0
M  END
>  <i_m_ct_stereo_status>  (273) 
1

>  <s_m_source_file>  (273) 
/var/tmp/pbs.5076255.sched01/tmp_gsyjirk/108c9vsds16.sdf

>  <i_m_source_file_index>  (273) 
11

>  <i_lp_mmshare_version>  (273) 
48012

>  <i_f3d_flags>  (273) 
0

>  <s_epik_input>  (273) 
W0NIMl0xW0NIMl1bQ0gyXVtDQEBIXShDI04pQyg9W0NIXVtDSDJdMilbQ0BIXTFbQ0BdMjNPT1tDQEBdNChPMylbQ0BASF01W0NASF02W0NIMl1bQ0BASF0oW0NIMl01KVtDSDJdW0NAQEhdKFtDSDJdNClbQ0gyXTY=

>  <s_epik_cmdline>  (273) 
J2VwaWtfcHl0aG9uJywgJy1waHQnLCAnMi4wJywgJy1waCcsICc3LjAnLCAnLXRuJywgJzgnLCAnLW1hJywgJzIwMCcsICctaW1hZScsICc8aW5maWxlLm1hZT4nLCAnLW9tYWUnLCAnPG91dGZpbGUubWFlPic=

>  <r_lp_tautomer_probability>  (273) 
1

>  <r_epik_Ionization_Penalty>  (273) 
7.95625e-12

>  <r_epik_Ionization_Penalty_Charging>  (273) 
0

>  <r_epik_Ionization_Penalty_Neutral>  (273) 
7.95625e-12

>  <r_epik_State_Penalty>  (273) 
-0

>  <r_epik_Charging_Adjusted_Penalty>  (273) 
0

>  <i_epik_Tot_Q>  (273) 
0

>  <i_epik_Tot_abs_Q>  (273) 
0

>  <s_lp_Force_Field>  (273) 
OPLS3e

>  <r_lp_Energy>  (273) 
33.4435

>  <b_lp_Chiralities_Consistent>  (273) 
1

>  <s_lp_Variant>  (273) 
95:0-1

>  <s_i_glide_gridfile>  (273) 
pfpi4k_grid

>  <i_i_glide_lignum>  (273) 
11

>  <i_i_glide_rotatable_bonds>  (273) 
1

>  <r_i_docking_score>  (273) 
-3.42142

>  <r_i_glide_ligand_efficiency>  (273) 
-0.142559

>  <r_i_glide_ligand_efficiency_sa>  (273) 
-0.411212

>  <r_i_glide_ligand_efficiency_ln>  (273) 
-0.818902

>  <r_i_glide_gscore>  (273) 
-3.42142

>  <r_i_glide_lipo>  (273) 
-0.408931

>  <r_i_glide_hbond>  (273) 
-0.241438

>  <r_i_glide_metal>  (273) 
-0

>  <r_i_glide_rewards>  (273) 
-1.30185

>  <r_i_glide_evdw>  (273) 
-22.5246

>  <r_i_glide_ecoul>  (273) 
-2.02125

>  <r_i_glide_erotb>  (273) 
0

>  <r_i_glide_esite>  (273) 
-0.0397836

>  <r_i_glide_emodel>  (273) 
-30.3657

>  <r_i_glide_energy>  (273) 
-24.5458

>  <r_i_glide_einternal>  (273) 
-0.00989137

>  <r_i_glide_intrahb_reward>  (273) 
-0

>  <i_i_glide_confnum>  (273) 
1

>  <i_i_glide_posenum>  (273) 
17

>  <r_i_glide_eff_state_penalty>  (273) 
0

>  <ligand_id>  (273) 
95

>  <original_smiles>  (273) 
N#CC1CCCC2C1=CCC21OOC2(CC3CC4CC(C3)C2C4)O1

>  <smiles>  (273) 
[H]C1=C2C([H])(C#N)C([H])([H])C([H])([H])C([H])([H])C2([H])C2(OOC3(O2)C([H])([H])C2([H])C([H])([H])C4([H])C([H])([H])C([H])(C2([H])[H])C3([H])C4([H])[H])C1([H])[H]

$$$$
95:0:2
     RDKit          3D

 49 54  0  0  1  0  0  0  0  0999 V2000
    4.2476    0.0749    0.9144 N   0  0  0  0  0  0  0  0  0  0  0  0
    4.4540   -1.0595    0.9683 C   0  0  0  0  0  0  0  0  0  0  0  0
    4.7234   -2.5041    1.0296 C   0  0  2  0  0  0  0  0  0  0  0  0
    4.6563   -3.1284   -0.3713 C   0  0  0  0  0  0  0  0  0  0  0  0
    4.9096   -4.6389   -0.3191 C   0  0  0  0  0  0  0  0  0  0  0  0
    3.8837   -5.3396    0.5748 C   0  0  0  0  0  0  0  0  0  0  0  0
    3.8439   -4.7744    2.0084 C   0  0  1  0  0  0  0  0  0  0  0  0
    3.8340   -3.2643    2.0081 C   0  0  0  0  0  0  0  0  0  0  0  0
    3.0033   -2.7807    2.9385 C   0  0  0  0  0  0  0  0  0  0  0  0
    2.3372   -3.8869    3.7339 C   0  0  0  0  0  0  0  0  0  0  0  0
    2.6057   -5.1565    2.8823 C   0  0  1  0  0  0  0  0  0  0  0  0
    1.4658   -5.3180    2.0761 O   0  0  0  0  0  0  0  0  0  0  0  0
    0.7118   -6.4271    2.7264 O   0  0  0  0  0  0  0  0  0  0  0  0
    1.7372   -7.2114    3.2854 C   0  0  2  0  0  0  0  0  0  0  0  0
    2.2339   -8.2193    2.2020 C   0  0  0  0  0  0  0  0  0  0  0  0
    2.7097   -9.5817    2.7673 C   0  0  2  0  0  0  0  0  0  0  0  0
    1.5563  -10.6179    2.8966 C   0  0  0  0  0  0  0  0  0  0  0  0
    0.6358  -10.3489    4.1035 C   0  0  1  0  0  0  0  0  0  0  0  0
    1.4475  -10.2702    5.3812 C   0  0  0  0  0  0  0  0  0  0  0  0
    2.2361   -8.9795    5.1396 C   0  0  1  0  0  0  0  0  0  0  0  0
    3.3618   -9.3389    4.1405 C   0  0  0  0  0  0  0  0  0  0  0  0
    1.1848   -7.9941    4.5071 C   0  0  2  0  0  0  0  0  0  0  0  0
    0.0240   -8.9457    4.0706 C   0  0  0  0  0  0  0  0  0  0  0  0
    2.7758   -6.3250    3.6627 O   0  0  0  0  0  0  0  0  0  0  0  0
    5.7449   -2.5984    1.3965 H   0  0  0  0  0  0  0  0  0  0  0  0
    3.6771   -2.9388   -0.8126 H   0  0  0  0  0  0  0  0  0  0  0  0
    5.3880   -2.6599   -1.0280 H   0  0  0  0  0  0  0  0  0  0  0  0
    4.8525   -5.0556   -1.3265 H   0  0  0  0  0  0  0  0  0  0  0  0
    5.9196   -4.8404    0.0443 H   0  0  0  0  0  0  0  0  0  0  0  0
    2.9027   -5.2621    0.1016 H   0  0  0  0  0  0  0  0  0  0  0  0
    4.1544   -6.3904    0.5931 H   0  0  0  0  0  0  0  0  0  0  0  0
    4.7623   -5.0486    2.5340 H   0  0  0  0  0  0  0  0  0  0  0  0
    2.8445   -1.7333    3.1525 H   0  0  0  0  0  0  0  0  0  0  0  0
    2.8369   -3.9312    4.7072 H   0  0  0  0  0  0  0  0  0  0  0  0
    1.2766   -3.6839    3.8903 H   0  0  0  0  0  0  0  0  0  0  0  0
    1.4545   -8.3917    1.4588 H   0  0  0  0  0  0  0  0  0  0  0  0
    3.0566   -7.7923    1.6515 H   0  0  0  0  0  0  0  0  0  0  0  0
    3.4496   -9.9934    2.0715 H   0  0  0  0  0  0  0  0  0  0  0  0
    0.9530  -10.6412    1.9914 H   0  0  0  0  0  0  0  0  0  0  0  0
    1.9850  -11.6166    2.9960 H   0  0  0  0  0  0  0  0  0  0  0  0
   -0.1376  -11.1134    4.1546 H   0  0  0  0  0  0  0  0  0  0  0  0
    0.7956  -10.1801    6.2510 H   0  0  0  0  0  0  0  0  0  0  0  0
    2.0682  -11.1514    5.5406 H   0  0  0  0  0  0  0  0  0  0  0  0
    2.6616   -8.5953    6.0662 H   0  0  0  0  0  0  0  0  0  0  0  0
    3.9125  -10.2203    4.4635 H   0  0  0  0  0  0  0  0  0  0  0  0
    4.1000   -8.5418    4.0781 H   0  0  0  0  0  0  0  0  0  0  0  0
    0.8102   -7.3046    5.2648 H   0  0  0  0  0  0  0  0  0  0  0  0
   -0.4047   -8.7120    3.0944 H   0  0  0  0  0  0  0  0  0  0  0  0
   -0.7905   -8.8884    4.7969 H   0  0  0  0  0  0  0  0  0  0  0  0
  1  2  3  0
  2  3  1  0
  3  8  1  0
  3  4  1  0
  3 25  1  1
  4  5  1  0
  4 26  1  0
  4 27  1  0
  5  6  1  0
  5 28  1  0
  5 29  1  0
  6  7  1  0
  6 30  1  0
  6 31  1  0
  7 11  1  0
  7  8  1  0
  7 32  1  1
  8  9  2  0
  9 10  1  0
  9 33  1  0
 10 11  1  0
 10 34  1  0
 10 35  1  0
 11 24  1  1
 11 12  1  0
 12 13  1  0
 14 13  1  6
 14 22  1  0
 14 15  1  0
 14 24  1  0
 15 16  1  0
 15 36  1  0
 15 37  1  0
 16 21  1  0
 16 17  1  0
 16 38  1  6
 17 18  1  0
 17 39  1  0
 17 40  1  0
 18 23  1  0
 18 19  1  0
 18 41  1  1
 19 20  1  0
 19 42  1  0
 19 43  1  0
 20 21  1  0
 20 22  1  0
 20 44  1  1
 21 45  1  0
 21 46  1  0
 22 23  1  0
 22 47  1  1
 23 48  1  0
 23 49  1  0
M  END
>  <i_m_ct_stereo_status>  (274) 
1

>  <s_m_source_file>  (274) 
/var/tmp/pbs.5076255.sched01/tmp_gsyjirk/108c9vsds16.sdf

>  <i_m_source_file_index>  (274) 
11

>  <i_lp_mmshare_version>  (274) 
48012

>  <i_f3d_flags>  (274) 
0

>  <s_epik_input>  (274) 
W0NIMl0xW0NIMl1bQ0gyXVtDQEBIXShDI04pQyg9W0NIXVtDSDJdMilbQ0BIXTFbQ0BdMjNPT1tDQEBdNChPMylbQ0BASF01W0NASF02W0NIMl1bQ0BASF0oW0NIMl01KVtDSDJdW0NAQEhdKFtDSDJdNClbQ0gyXTY=

>  <s_epik_cmdline>  (274) 
J2VwaWtfcHl0aG9uJywgJy1waHQnLCAnMi4wJywgJy1waCcsICc3LjAnLCAnLXRuJywgJzgnLCAnLW1hJywgJzIwMCcsICctaW1hZScsICc8aW5maWxlLm1hZT4nLCAnLW9tYWUnLCAnPG91dGZpbGUubWFlPic=

>  <r_lp_tautomer_probability>  (274) 
1

>  <r_epik_Ionization_Penalty>  (274) 
7.95625e-12

>  <r_epik_Ionization_Penalty_Charging>  (274) 
0

>  <r_epik_Ionization_Penalty_Neutral>  (274) 
7.95625e-12

>  <r_epik_State_Penalty>  (274) 
-0

>  <r_epik_Charging_Adjusted_Penalty>  (274) 
0

>  <i_epik_Tot_Q>  (274) 
0

>  <i_epik_Tot_abs_Q>  (274) 
0

>  <s_lp_Force_Field>  (274) 
OPLS3e

>  <r_lp_Energy>  (274) 
33.4435

>  <b_lp_Chiralities_Consistent>  (274) 
1

>  <s_lp_Variant>  (274) 
95:0-1

>  <s_i_glide_gridfile>  (274) 
pfpi4k_grid

>  <i_i_glide_lignum>  (274) 
11

>  <i_i_glide_rotatable_bonds>  (274) 
1

>  <r_i_docking_score>  (274) 
-2.80088

>  <r_i_glide_ligand_efficiency>  (274) 
-0.116703

>  <r_i_glide_ligand_efficiency_sa>  (274) 
-0.33663

>  <r_i_glide_ligand_efficiency_ln>  (274) 
-0.670378

>  <r_i_glide_gscore>  (274) 
-2.80088

>  <r_i_glide_lipo>  (274) 
-0.201176

>  <r_i_glide_hbond>  (274) 
-0.0509442

>  <r_i_glide_metal>  (274) 
-0

>  <r_i_glide_rewards>  (274) 
-1.23043

>  <r_i_glide_evdw>  (274) 
-22.3604

>  <r_i_glide_ecoul>  (274) 
-1.24369

>  <r_i_glide_erotb>  (274) 
0

>  <r_i_glide_esite>  (274) 
-0.0137505

>  <r_i_glide_emodel>  (274) 
-28.3306

>  <r_i_glide_energy>  (274) 
-23.6041

>  <r_i_glide_einternal>  (274) 
-0.00987932

>  <r_i_glide_intrahb_reward>  (274) 
-0

>  <i_i_glide_confnum>  (274) 
1

>  <i_i_glide_posenum>  (274) 
23

>  <r_i_glide_eff_state_penalty>  (274) 
0

>  <ligand_id>  (274) 
95

>  <original_smiles>  (274) 
N#CC1CCCC2C1=CCC21OOC2(CC3CC4CC(C3)C2C4)O1

>  <smiles>  (274) 
[H]C1=C2C([H])(C#N)C([H])([H])C([H])([H])C([H])([H])C2([H])C2(OOC3(O2)C([H])([H])C2([H])C([H])([H])C4([H])C([H])([H])C([H])(C2([H])[H])C3([H])C4([H])[H])C1([H])[H]

$$$$
98:0:0
     RDKit          3D

 60 65  0  0  1  0  0  0  0  0999 V2000
    3.8138   -1.6998    4.0576 C   0  0  0  0  0  0  0  0  0  0  0  0
    2.5386   -2.2615    3.4101 C   0  0  0  0  0  0  0  0  0  0  0  0
    1.3608   -2.1973    4.3938 C   0  0  0  0  0  0  0  0  0  0  0  0
    2.7096   -3.6413    2.7097 C   0  0  2  0  0  0  0  0  0  0  0  0
    3.1721   -4.7553    3.7147 C   0  0  0  0  0  0  0  0  0  0  0  0
    3.0492   -6.3172    3.4730 C   0  0  2  0  0  0  0  0  0  0  0  0
    3.1611   -6.8160    4.8025 O   0  0  0  0  0  0  0  0  0  0  0  0
    4.1247   -7.0674    2.6447 C   0  0  1  0  0  0  0  0  0  0  0  0
    5.5598   -7.0680    3.2219 C   0  0  0  0  0  0  0  0  0  0  0  0
    3.5913   -8.5205    2.5120 C   0  0  0  0  0  0  0  0  0  0  0  0
    2.0629   -8.4441    2.7147 C   0  0  1  0  0  0  0  0  0  0  0  0
    1.6617   -9.1335    3.8906 O   0  0  0  0  0  0  0  0  0  0  0  0
    1.7853   -6.9177    2.8018 C   0  0  1  0  0  0  0  0  0  0  0  0
    0.5860   -6.6039    3.5049 O   0  0  0  0  0  0  0  0  0  0  0  0
    1.6836   -6.4483    1.3429 C   0  0  0  0  0  0  0  0  0  0  0  0
    0.5963   -6.3489    0.7654 O   0  0  0  0  0  0  0  0  0  0  0  0
    3.0053   -6.1009    0.6179 C   0  0  2  0  0  0  0  0  0  0  0  0
    4.1864   -6.5131    1.3242 O   0  0  0  0  0  0  0  0  0  0  0  0
    2.9539   -4.5864    0.3386 C   0  0  2  0  0  0  0  0  0  0  0  0
    3.9181   -3.7670   -0.5286 C   0  0  2  0  0  0  0  0  0  0  0  0
    5.3360   -4.0694   -0.0433 C   0  0  1  0  0  0  0  0  0  0  0  0
    6.4802   -3.0589   -0.0310 C   0  0  0  0  0  0  0  0  0  0  0  0
    6.2352   -2.8379    1.4633 C   0  0  0  0  0  0  0  0  0  0  0  0
    5.0775   -3.8404    1.4353 C   0  0  1  0  0  0  0  0  0  0  0  0
    3.5366   -3.5811    1.3883 C   0  0  2  0  0  0  0  0  0  0  0  0
    3.2568   -2.5646    0.2273 C   0  0  1  0  0  0  0  0  0  0  0  0
    3.7984   -1.1270    0.1036 C   0  0  0  0  0  0  0  0  0  0  0  0
    3.0094   -0.2345    0.8628 O   0  0  0  0  0  0  0  0  0  0  0  0
    4.1128   -2.2714    4.9359 H   0  0  0  0  0  0  0  0  0  0  0  0
    3.6670   -0.6666    4.3692 H   0  0  0  0  0  0  0  0  0  0  0  0
    4.6469   -1.6953    3.3660 H   0  0  0  0  0  0  0  0  0  0  0  0
    2.2277   -1.5760    2.6335 H   0  0  0  0  0  0  0  0  0  0  0  0
    1.5318   -2.7886    5.2917 H   0  0  0  0  0  0  0  0  0  0  0  0
    0.4391   -2.5355    3.9215 H   0  0  0  0  0  0  0  0  0  0  0  0
    1.2031   -1.1673    4.7118 H   0  0  0  0  0  0  0  0  0  0  0  0
    1.6881   -3.9046    2.4353 H   0  0  0  0  0  0  0  0  0  0  0  0
    4.1914   -4.5312    4.0292 H   0  0  0  0  0  0  0  0  0  0  0  0
    2.5762   -4.5676    4.6071 H   0  0  0  0  0  0  0  0  0  0  0  0
    2.4179   -6.5070    5.2967 H   0  0  0  0  0  0  0  0  0  0  0  0
    5.6406   -7.7116    4.1018 H   0  0  0  0  0  0  0  0  0  0  0  0
    5.9000   -6.0786    3.5316 H   0  0  0  0  0  0  0  0  0  0  0  0
    6.2663   -7.4448    2.4784 H   0  0  0  0  0  0  0  0  0  0  0  0
    3.8472   -8.9443    1.5406 H   0  0  0  0  0  0  0  0  0  0  0  0
    4.0377   -9.1749    3.2605 H   0  0  0  0  0  0  0  0  0  0  0  0
    1.5422   -8.9252    1.8826 H   0  0  0  0  0  0  0  0  0  0  0  0
    1.8684  -10.0525    3.7868 H   0  0  0  0  0  0  0  0  0  0  0  0
    0.6077   -7.0961    4.3151 H   0  0  0  0  0  0  0  0  0  0  0  0
    3.0347   -6.6311   -0.3171 H   0  0  0  0  0  0  0  0  0  0  0  0
    1.9317   -4.3995   -0.0084 H   0  0  0  0  0  0  0  0  0  0  0  0
    3.7410   -3.8244   -1.5993 H   0  0  0  0  0  0  0  0  0  0  0  0
    5.6709   -5.0850   -0.2664 H   0  0  0  0  0  0  0  0  0  0  0  0
    7.4495   -3.5235   -0.2283 H   0  0  0  0  0  0  0  0  0  0  0  0
    6.3070   -2.1993   -0.6764 H   0  0  0  0  0  0  0  0  0  0  0  0
    7.0331   -3.2510    2.0726 H   0  0  0  0  0  0  0  0  0  0  0  0
    6.0258   -1.8151    1.7651 H   0  0  0  0  0  0  0  0  0  0  0  0
    5.3706   -4.6844    2.0354 H   0  0  0  0  0  0  0  0  0  0  0  0
    2.2006   -2.4496   -0.0047 H   0  0  0  0  0  0  0  0  0  0  0  0
    4.8223   -0.9489    0.4097 H   0  0  0  0  0  0  0  0  0  0  0  0
    3.7528   -0.8194   -0.9411 H   0  0  0  0  0  0  0  0  0  0  0  0
    2.1194   -0.2746    0.5210 H   0  0  0  0  0  0  0  0  0  0  0  0
  1  2  1  0
  1 29  1  0
  1 30  1  0
  1 31  1  0
  2  3  1  0
  2  4  1  0
  2 32  1  0
  3 33  1  0
  3 34  1  0
  3 35  1  0
 25  4  1  1
  4  5  1  0
  4 36  1  6
  5  6  1  0
  5 37  1  0
  5 38  1  0
  6 13  1  0
  6  7  1  1
  6  8  1  0
  7 39  1  0
  8 18  1  0
  8  9  1  1
  8 10  1  0
  9 40  1  0
  9 41  1  0
  9 42  1  0
 10 11  1  0
 10 43  1  0
 10 44  1  0
 11 12  1  0
 11 13  1  0
 11 45  1  6
 12 46  1  0
 13 14  1  1
 13 15  1  0
 14 47  1  0
 15 16  2  0
 15 17  1  0
 17 18  1  0
 17 19  1  0
 17 48  1  6
 19 25  1  0
 19 20  1  0
 19 49  1  6
 20 26  1  0
 20 21  1  0
 20 50  1  6
 21 24  1  0
 21 22  1  0
 21 51  1  1
 22 23  1  0
 22 52  1  0
 22 53  1  0
 23 24  1  0
 23 54  1  0
 23 55  1  0
 24 25  1  0
 24 56  1  1
 25 26  1  0
 26 27  1  0
 26 57  1  6
 27 28  1  0
 27 58  1  0
 27 59  1  0
 28 60  1  0
M  END
>  <i_m_ct_stereo_status>  (275) 
1

>  <s_m_source_file>  (275) 
/var/tmp/pbs.5076255.sched01/tmp_gsyjirk/108c9vsds16.sdf

>  <i_m_source_file_index>  (275) 
14

>  <i_lp_mmshare_version>  (275) 
48012

>  <i_f3d_flags>  (275) 
0

>  <s_epik_input>  (275) 
W0NIM11bQ0hdKFtDSDNdKVtDQEBIXTFbQ0gyXVtDQF0oW09IXSkoW0NAQF0oTzIpKFtDSDNdKVtDSDJdW0NASF0zW09IXSlbQ0BAXTMoW09IXSlDKD1PKVtDQEhdMltDQEBIXShbQ0BAXTE0NSlbQ0BASF0oW0NAQEhdNVtDSDJdW09IXSlbQ0BASF02W0NASF00W0NIMl1bQ0gyXTY=

>  <s_epik_cmdline>  (275) 
J2VwaWtfcHl0aG9uJywgJy1waHQnLCAnMi4wJywgJy1waCcsICc3LjAnLCAnLXRuJywgJzgnLCAnLW1hJywgJzIwMCcsICctaW1hZScsICc8aW5maWxlLm1hZT4nLCAnLW9tYWUnLCAnPG91dGZpbGUubWFlPic=

>  <r_lp_tautomer_probability>  (275) 
1

>  <r_epik_Ionization_Penalty>  (275) 
9.49649e-07

>  <r_epik_Ionization_Penalty_Charging>  (275) 
0

>  <r_epik_Ionization_Penalty_Neutral>  (275) 
9.49649e-07

>  <r_epik_State_Penalty>  (275) 
-0

>  <r_epik_Charging_Adjusted_Penalty>  (275) 
0

>  <i_epik_Tot_Q>  (275) 
0

>  <i_epik_Tot_abs_Q>  (275) 
0

>  <s_lp_Force_Field>  (275) 
OPLS3e

>  <r_lp_Energy>  (275) 
113.12

>  <b_lp_Chiralities_Consistent>  (275) 
1

>  <s_lp_Variant>  (275) 
98:0-1

>  <s_i_glide_gridfile>  (275) 
pfpi4k_grid

>  <i_i_glide_lignum>  (275) 
14

>  <i_i_glide_rotatable_bonds>  (275) 
6

>  <r_i_docking_score>  (275) 
-3.14793

>  <r_i_glide_ligand_efficiency>  (275) 
-0.112426

>  <r_i_glide_ligand_efficiency_sa>  (275) 
-0.341392

>  <r_i_glide_ligand_efficiency_ln>  (275) 
-0.726634

>  <r_i_glide_gscore>  (275) 
-3.14793

>  <r_i_glide_lipo>  (275) 
-0.264154

>  <r_i_glide_hbond>  (275) 
-0.318134

>  <r_i_glide_metal>  (275) 
-0

>  <r_i_glide_rewards>  (275) 
-0.733051

>  <r_i_glide_evdw>  (275) 
-17.3473

>  <r_i_glide_ecoul>  (275) 
-6.96217

>  <r_i_glide_erotb>  (275) 
0.12675

>  <r_i_glide_esite>  (275) 
-0.0476498

>  <r_i_glide_emodel>  (275) 
-29.8373

>  <r_i_glide_energy>  (275) 
-24.3095

>  <r_i_glide_einternal>  (275) 
1.11713

>  <r_i_glide_intrahb_reward>  (275) 
-0

>  <i_i_glide_confnum>  (275) 
4

>  <i_i_glide_posenum>  (275) 
27

>  <r_i_glide_eff_state_penalty>  (275) 
0

>  <ligand_id>  (275) 
98

>  <original_smiles>  (275) 
CC(C)C1CC2(O)C3(C)CC(O)C2(O)C(=O)C(O3)C2C3C4CCC4C12C3CO

>  <smiles>  (275) 
[H]OC([H])([H])C1([H])C2([H])C3([H])C([H])([H])C([H])([H])C3([H])C13C2([H])C1([H])OC2(C([H])([H])[H])C([H])([H])C([H])(O[H])C(O[H])(C1=O)C2(O[H])C([H])([H])C3([H])C([H])(C([H])([H])[H])C([H])([H])[H]

$$$$
98:0:1
     RDKit          3D

 60 65  0  0  1  0  0  0  0  0999 V2000
    4.1196   -0.4987    2.3932 C   0  0  0  0  0  0  0  0  0  0  0  0
    2.8901   -1.2334    1.8346 C   0  0  0  0  0  0  0  0  0  0  0  0
    1.6599   -0.9296    2.7153 C   0  0  0  0  0  0  0  0  0  0  0  0
    3.1059   -2.7575    1.5696 C   0  0  2  0  0  0  0  0  0  0  0  0
    3.4911   -3.5505    2.8636 C   0  0  0  0  0  0  0  0  0  0  0  0
    3.3867   -5.1267    3.0409 C   0  0  2  0  0  0  0  0  0  0  0  0
    3.4006   -5.2662    4.4565 O   0  0  0  0  0  0  0  0  0  0  0  0
    4.5095   -6.0586    2.5223 C   0  0  1  0  0  0  0  0  0  0  0  0
    5.8802   -5.8780    3.1900 C   0  0  0  0  0  0  0  0  0  0  0  0
    3.9757   -7.4927    2.7541 C   0  0  0  0  0  0  0  0  0  0  0  0
    2.4359   -7.3883    2.8219 C   0  0  1  0  0  0  0  0  0  0  0  0
    1.9396   -7.7469    4.1021 O   0  0  0  0  0  0  0  0  0  0  0  0
    2.1664   -5.9087    2.4837 C   0  0  1  0  0  0  0  0  0  0  0  0
    0.9396   -5.4566    3.0130 O   0  0  0  0  0  0  0  0  0  0  0  0
    2.1592   -5.8530    0.9421 C   0  0  0  0  0  0  0  0  0  0  0  0
    1.1020   -5.9535    0.3044 O   0  0  0  0  0  0  0  0  0  0  0  0
    3.5336   -5.6975    0.2377 C   0  0  2  0  0  0  0  0  0  0  0  0
    4.6725   -5.8679    1.1062 O   0  0  0  0  0  0  0  0  0  0  0  0
    3.5094   -4.3129   -0.4300 C   0  0  2  0  0  0  0  0  0  0  0  0
    4.5351   -3.7333   -1.4172 C   0  0  2  0  0  0  0  0  0  0  0  0
    5.9184   -3.8649   -0.7694 C   0  0  1  0  0  0  0  0  0  0  0  0
    7.1047   -2.9172   -0.9505 C   0  0  0  0  0  0  0  0  0  0  0  0
    6.7066   -2.2197    0.3494 C   0  0  0  0  0  0  0  0  0  0  0  0
    5.5646   -3.2294    0.5600 C   0  0  1  0  0  0  0  0  0  0  0  0
    4.0181   -3.0503    0.3439 C   0  0  2  0  0  0  0  0  0  0  0  0
    3.7960   -2.3924   -1.0627 C   0  0  1  0  0  0  0  0  0  0  0  0
    4.3536   -1.0303   -1.4879 C   0  0  0  0  0  0  0  0  0  0  0  0
    3.8388   -0.6638   -2.7467 O   0  0  0  0  0  0  0  0  0  0  0  0
    4.3553   -0.8228    3.4090 H   0  0  0  0  0  0  0  0  0  0  0  0
    3.9285    0.5749    2.4280 H   0  0  0  0  0  0  0  0  0  0  0  0
    4.9948   -0.6527    1.7715 H   0  0  0  0  0  0  0  0  0  0  0  0
    2.6537   -0.7817    0.8683 H   0  0  0  0  0  0  0  0  0  0  0  0
    1.8011   -1.2447    3.7476 H   0  0  0  0  0  0  0  0  0  0  0  0
    0.7641   -1.4139    2.3272 H   0  0  0  0  0  0  0  0  0  0  0  0
    1.4718    0.1423    2.7395 H   0  0  0  0  0  0  0  0  0  0  0  0
    2.0999   -3.0907    1.2999 H   0  0  0  0  0  0  0  0  0  0  0  0
    4.4843   -3.2331    3.1714 H   0  0  0  0  0  0  0  0  0  0  0  0
    2.8277   -3.1527    3.6277 H   0  0  0  0  0  0  0  0  0  0  0  0
    2.6661   -4.7811    4.8040 H   0  0  0  0  0  0  0  0  0  0  0  0
    5.8844   -6.2554    4.2131 H   0  0  0  0  0  0  0  0  0  0  0  0
    6.1923   -4.8332    3.2416 H   0  0  0  0  0  0  0  0  0  0  0  0
    6.6352   -6.4323    2.6348 H   0  0  0  0  0  0  0  0  0  0  0  0
    4.2951   -8.1663    1.9594 H   0  0  0  0  0  0  0  0  0  0  0  0
    4.3534   -7.9092    3.6892 H   0  0  0  0  0  0  0  0  0  0  0  0
    1.9754   -8.0785    2.1107 H   0  0  0  0  0  0  0  0  0  0  0  0
    2.1330   -8.6650    4.2538 H   0  0  0  0  0  0  0  0  0  0  0  0
    0.9519   -5.7038    3.9351 H   0  0  0  0  0  0  0  0  0  0  0  0
    3.6159   -6.4804   -0.5063 H   0  0  0  0  0  0  0  0  0  0  0  0
    2.5065   -4.2501   -0.8796 H   0  0  0  0  0  0  0  0  0  0  0  0
    4.4222   -4.0812   -2.4454 H   0  0  0  0  0  0  0  0  0  0  0  0
    6.2354   -4.8960   -0.6248 H   0  0  0  0  0  0  0  0  0  0  0  0
    8.0766   -3.4233   -0.8793 H   0  0  0  0  0  0  0  0  0  0  0  0
    7.0511   -2.3002   -1.8476 H   0  0  0  0  0  0  0  0  0  0  0  0
    7.4412   -2.3550    1.1389 H   0  0  0  0  0  0  0  0  0  0  0  0
    6.4257   -1.1784    0.2151 H   0  0  0  0  0  0  0  0  0  0  0  0
    5.8399   -3.8892    1.3718 H   0  0  0  0  0  0  0  0  0  0  0  0
    2.7320   -2.3461   -1.3422 H   0  0  0  0  0  0  0  0  0  0  0  0
    4.1145   -0.2674   -0.7472 H   0  0  0  0  0  0  0  0  0  0  0  0
    5.4245   -1.0076   -1.6173 H   0  0  0  0  0  0  0  0  0  0  0  0
    2.8975   -0.5585   -2.6715 H   0  0  0  0  0  0  0  0  0  0  0  0
  1  2  1  0
  1 29  1  0
  1 30  1  0
  1 31  1  0
  2  3  1  0
  2  4  1  0
  2 32  1  0
  3 33  1  0
  3 34  1  0
  3 35  1  0
 25  4  1  1
  4  5  1  0
  4 36  1  6
  5  6  1  0
  5 37  1  0
  5 38  1  0
  6 13  1  0
  6  7  1  1
  6  8  1  0
  7 39  1  0
  8 18  1  0
  8  9  1  1
  8 10  1  0
  9 40  1  0
  9 41  1  0
  9 42  1  0
 10 11  1  0
 10 43  1  0
 10 44  1  0
 11 12  1  0
 11 13  1  0
 11 45  1  6
 12 46  1  0
 13 14  1  1
 13 15  1  0
 14 47  1  0
 15 16  2  0
 15 17  1  0
 17 18  1  0
 17 19  1  0
 17 48  1  6
 19 25  1  0
 19 20  1  0
 19 49  1  6
 20 26  1  0
 20 21  1  0
 20 50  1  6
 21 24  1  0
 21 22  1  0
 21 51  1  1
 22 23  1  0
 22 52  1  0
 22 53  1  0
 23 24  1  0
 23 54  1  0
 23 55  1  0
 24 25  1  0
 24 56  1  1
 25 26  1  0
 26 27  1  0
 26 57  1  6
 27 28  1  0
 27 58  1  0
 27 59  1  0
 28 60  1  0
M  END
>  <i_m_ct_stereo_status>  (276) 
1

>  <s_m_source_file>  (276) 
/var/tmp/pbs.5076255.sched01/tmp_gsyjirk/108c9vsds16.sdf

>  <i_m_source_file_index>  (276) 
14

>  <i_lp_mmshare_version>  (276) 
48012

>  <i_f3d_flags>  (276) 
0

>  <s_epik_input>  (276) 
W0NIM11bQ0hdKFtDSDNdKVtDQEBIXTFbQ0gyXVtDQF0oW09IXSkoW0NAQF0oTzIpKFtDSDNdKVtDSDJdW0NASF0zW09IXSlbQ0BAXTMoW09IXSlDKD1PKVtDQEhdMltDQEBIXShbQ0BAXTE0NSlbQ0BASF0oW0NAQEhdNVtDSDJdW09IXSlbQ0BASF02W0NASF00W0NIMl1bQ0gyXTY=

>  <s_epik_cmdline>  (276) 
J2VwaWtfcHl0aG9uJywgJy1waHQnLCAnMi4wJywgJy1waCcsICc3LjAnLCAnLXRuJywgJzgnLCAnLW1hJywgJzIwMCcsICctaW1hZScsICc8aW5maWxlLm1hZT4nLCAnLW9tYWUnLCAnPG91dGZpbGUubWFlPic=

>  <r_lp_tautomer_probability>  (276) 
1

>  <r_epik_Ionization_Penalty>  (276) 
9.49649e-07

>  <r_epik_Ionization_Penalty_Charging>  (276) 
0

>  <r_epik_Ionization_Penalty_Neutral>  (276) 
9.49649e-07

>  <r_epik_State_Penalty>  (276) 
-0

>  <r_epik_Charging_Adjusted_Penalty>  (276) 
0

>  <i_epik_Tot_Q>  (276) 
0

>  <i_epik_Tot_abs_Q>  (276) 
0

>  <s_lp_Force_Field>  (276) 
OPLS3e

>  <r_lp_Energy>  (276) 
113.12

>  <b_lp_Chiralities_Consistent>  (276) 
1

>  <s_lp_Variant>  (276) 
98:0-1

>  <s_i_glide_gridfile>  (276) 
pfpi4k_grid

>  <i_i_glide_lignum>  (276) 
14

>  <i_i_glide_rotatable_bonds>  (276) 
6

>  <r_i_docking_score>  (276) 
-3.13169

>  <r_i_glide_ligand_efficiency>  (276) 
-0.111846

>  <r_i_glide_ligand_efficiency_sa>  (276) 
-0.33963

>  <r_i_glide_ligand_efficiency_ln>  (276) 
-0.722885

>  <r_i_glide_gscore>  (276) 
-3.13169

>  <r_i_glide_lipo>  (276) 
-0.233435

>  <r_i_glide_hbond>  (276) 
-0.231601

>  <r_i_glide_metal>  (276) 
-0

>  <r_i_glide_rewards>  (276) 
-0.733051

>  <r_i_glide_evdw>  (276) 
-21.1255

>  <r_i_glide_ecoul>  (276) 
-6.4356

>  <r_i_glide_erotb>  (276) 
0.12675

>  <r_i_glide_esite>  (276) 
-0.0387349

>  <r_i_glide_emodel>  (276) 
-33.2986

>  <r_i_glide_energy>  (276) 
-27.5611

>  <r_i_glide_einternal>  (276) 
0.621542

>  <r_i_glide_intrahb_reward>  (276) 
-0

>  <i_i_glide_confnum>  (276) 
1

>  <i_i_glide_posenum>  (276) 
7

>  <r_i_glide_eff_state_penalty>  (276) 
0

>  <ligand_id>  (276) 
98

>  <original_smiles>  (276) 
CC(C)C1CC2(O)C3(C)CC(O)C2(O)C(=O)C(O3)C2C3C4CCC4C12C3CO

>  <smiles>  (276) 
[H]OC([H])([H])C1([H])C2([H])C3([H])C([H])([H])C([H])([H])C3([H])C13C2([H])C1([H])OC2(C([H])([H])[H])C([H])([H])C([H])(O[H])C(O[H])(C1=O)C2(O[H])C([H])([H])C3([H])C([H])(C([H])([H])[H])C([H])([H])[H]

$$$$
98:0:2
     RDKit          3D

 60 65  0  0  1  0  0  0  0  0999 V2000
    4.0361   -0.4439    2.3346 C   0  0  0  0  0  0  0  0  0  0  0  0
    2.8319   -1.2158    1.7770 C   0  0  0  0  0  0  0  0  0  0  0  0
    1.5827   -0.9187    2.6289 C   0  0  0  0  0  0  0  0  0  0  0  0
    3.0767   -2.7380    1.5470 C   0  0  2  0  0  0  0  0  0  0  0  0
    3.4849   -3.4896    2.8676 C   0  0  0  0  0  0  0  0  0  0  0  0
    3.4157   -5.0569    3.0880 C   0  0  2  0  0  0  0  0  0  0  0  0
    3.4268   -5.1569    4.5080 O   0  0  0  0  0  0  0  0  0  0  0  0
    4.5607   -5.9755    2.5818 C   0  0  1  0  0  0  0  0  0  0  0  0
    5.9425   -5.7510    3.2290 C   0  0  0  0  0  0  0  0  0  0  0  0
    4.0763   -7.4245    2.8474 C   0  0  0  0  0  0  0  0  0  0  0  0
    2.5431   -7.3518    2.9372 C   0  0  1  0  0  0  0  0  0  0  0  0
    2.1367   -7.6601    4.2638 O   0  0  0  0  0  0  0  0  0  0  0  0
    2.2224   -5.8873    2.5527 C   0  0  1  0  0  0  0  0  0  0  0  0
    0.9750   -5.4587    3.0691 O   0  0  0  0  0  0  0  0  0  0  0  0
    2.2008   -5.8751    1.0192 C   0  0  0  0  0  0  0  0  0  0  0  0
    1.1480   -6.0250    0.3910 O   0  0  0  0  0  0  0  0  0  0  0  0
    3.5565   -5.7029    0.2966 C   0  0  2  0  0  0  0  0  0  0  0  0
    4.7005   -5.8318    1.1622 O   0  0  0  0  0  0  0  0  0  0  0  0
    3.4967   -4.3364   -0.4148 C   0  0  2  0  0  0  0  0  0  0  0  0
    4.5020   -3.7632   -1.4213 C   0  0  2  0  0  0  0  0  0  0  0  0
    5.8892   -3.8448   -0.7793 C   0  0  1  0  0  0  0  0  0  0  0  0
    7.0427   -2.8606   -0.9939 C   0  0  0  0  0  0  0  0  0  0  0  0
    6.6440   -2.1558    0.3069 C   0  0  0  0  0  0  0  0  0  0  0  0
    5.5301   -3.1919    0.5372 C   0  0  1  0  0  0  0  0  0  0  0  0
    3.9838   -3.0456    0.3253 C   0  0  2  0  0  0  0  0  0  0  0  0
    3.7445   -2.4254   -1.1011 C   0  0  1  0  0  0  0  0  0  0  0  0
    4.2724   -1.0580   -1.5698 C   0  0  0  0  0  0  0  0  0  0  0  0
    3.7916   -0.7910   -2.8727 O   0  0  0  0  0  0  0  0  0  0  0  0
    4.2643   -0.7337    3.3605 H   0  0  0  0  0  0  0  0  0  0  0  0
    3.8330    0.6271    2.3329 H   0  0  0  0  0  0  0  0  0  0  0  0
    4.9266   -0.5999    1.7370 H   0  0  0  0  0  0  0  0  0  0  0  0
    2.6101   -0.7883    0.8008 H   0  0  0  0  0  0  0  0  0  0  0  0
    1.7069   -1.2196    3.6687 H   0  0  0  0  0  0  0  0  0  0  0  0
    0.7004   -1.4230    2.2350 H   0  0  0  0  0  0  0  0  0  0  0  0
    1.3697    0.1500    2.6360 H   0  0  0  0  0  0  0  0  0  0  0  0
    2.0808   -3.1083    1.3002 H   0  0  0  0  0  0  0  0  0  0  0  0
    4.4729   -3.1436    3.1675 H   0  0  0  0  0  0  0  0  0  0  0  0
    2.8182   -3.0857    3.6269 H   0  0  0  0  0  0  0  0  0  0  0  0
    3.3515   -6.0782    4.7366 H   0  0  0  0  0  0  0  0  0  0  0  0
    5.9724   -6.1026    4.2629 H   0  0  0  0  0  0  0  0  0  0  0  0
    6.2215   -4.6989    3.2515 H   0  0  0  0  0  0  0  0  0  0  0  0
    6.7115   -6.2975    2.6780 H   0  0  0  0  0  0  0  0  0  0  0  0
    4.4011   -8.1064    2.0606 H   0  0  0  0  0  0  0  0  0  0  0  0
    4.4829   -7.8159    3.7809 H   0  0  0  0  0  0  0  0  0  0  0  0
    2.0724   -8.0787    2.2692 H   0  0  0  0  0  0  0  0  0  0  0  0
    2.2523   -8.5894    4.4002 H   0  0  0  0  0  0  0  0  0  0  0  0
    1.0356   -5.5402    4.0131 H   0  0  0  0  0  0  0  0  0  0  0  0
    3.6450   -6.5012   -0.4344 H   0  0  0  0  0  0  0  0  0  0  0  0
    2.4938   -4.2952   -0.8505 H   0  0  0  0  0  0  0  0  0  0  0  0
    4.4063   -4.1341   -2.4391 H   0  0  0  0  0  0  0  0  0  0  0  0
    6.2173   -4.8690   -0.6315 H   0  0  0  0  0  0  0  0  0  0  0  0
    8.0282   -3.3333   -0.9352 H   0  0  0  0  0  0  0  0  0  0  0  0
    6.9550   -2.2724   -1.9070 H   0  0  0  0  0  0  0  0  0  0  0  0
    7.4123   -2.2449    1.0770 H   0  0  0  0  0  0  0  0  0  0  0  0
    6.3304   -1.1222    0.1846 H   0  0  0  0  0  0  0  0  0  0  0  0
    5.8163   -3.8115    1.3746 H   0  0  0  0  0  0  0  0  0  0  0  0
    2.6841   -2.4091   -1.3729 H   0  0  0  0  0  0  0  0  0  0  0  0
    3.9674   -0.2600   -0.8934 H   0  0  0  0  0  0  0  0  0  0  0  0
    5.3444   -0.9866   -1.6569 H   0  0  0  0  0  0  0  0  0  0  0  0
    2.8482   -0.7237   -2.8310 H   0  0  0  0  0  0  0  0  0  0  0  0
  1  2  1  0
  1 29  1  0
  1 30  1  0
  1 31  1  0
  2  3  1  0
  2  4  1  0
  2 32  1  0
  3 33  1  0
  3 34  1  0
  3 35  1  0
 25  4  1  1
  4  5  1  0
  4 36  1  6
  5  6  1  0
  5 37  1  0
  5 38  1  0
  6 13  1  0
  6  7  1  1
  6  8  1  0
  7 39  1  0
  8 18  1  0
  8  9  1  1
  8 10  1  0
  9 40  1  0
  9 41  1  0
  9 42  1  0
 10 11  1  0
 10 43  1  0
 10 44  1  0
 11 12  1  0
 11 13  1  0
 11 45  1  6
 12 46  1  0
 13 14  1  1
 13 15  1  0
 14 47  1  0
 15 16  2  0
 15 17  1  0
 17 18  1  0
 17 19  1  0
 17 48  1  6
 19 25  1  0
 19 20  1  0
 19 49  1  6
 20 26  1  0
 20 21  1  0
 20 50  1  6
 21 24  1  0
 21 22  1  0
 21 51  1  1
 22 23  1  0
 22 52  1  0
 22 53  1  0
 23 24  1  0
 23 54  1  0
 23 55  1  0
 24 25  1  0
 24 56  1  1
 25 26  1  0
 26 27  1  0
 26 57  1  6
 27 28  1  0
 27 58  1  0
 27 59  1  0
 28 60  1  0
M  END
>  <i_m_ct_stereo_status>  (277) 
1

>  <s_m_source_file>  (277) 
/var/tmp/pbs.5076255.sched01/tmp_gsyjirk/108c9vsds16.sdf

>  <i_m_source_file_index>  (277) 
14

>  <i_lp_mmshare_version>  (277) 
48012

>  <i_f3d_flags>  (277) 
0

>  <s_epik_input>  (277) 
W0NIM11bQ0hdKFtDSDNdKVtDQEBIXTFbQ0gyXVtDQF0oW09IXSkoW0NAQF0oTzIpKFtDSDNdKVtDSDJdW0NASF0zW09IXSlbQ0BAXTMoW09IXSlDKD1PKVtDQEhdMltDQEBIXShbQ0BAXTE0NSlbQ0BASF0oW0NAQEhdNVtDSDJdW09IXSlbQ0BASF02W0NASF00W0NIMl1bQ0gyXTY=

>  <s_epik_cmdline>  (277) 
J2VwaWtfcHl0aG9uJywgJy1waHQnLCAnMi4wJywgJy1waCcsICc3LjAnLCAnLXRuJywgJzgnLCAnLW1hJywgJzIwMCcsICctaW1hZScsICc8aW5maWxlLm1hZT4nLCAnLW9tYWUnLCAnPG91dGZpbGUubWFlPic=

>  <r_lp_tautomer_probability>  (277) 
1

>  <r_epik_Ionization_Penalty>  (277) 
9.49649e-07

>  <r_epik_Ionization_Penalty_Charging>  (277) 
0

>  <r_epik_Ionization_Penalty_Neutral>  (277) 
9.49649e-07

>  <r_epik_State_Penalty>  (277) 
-0

>  <r_epik_Charging_Adjusted_Penalty>  (277) 
0

>  <i_epik_Tot_Q>  (277) 
0

>  <i_epik_Tot_abs_Q>  (277) 
0

>  <s_lp_Force_Field>  (277) 
OPLS3e

>  <r_lp_Energy>  (277) 
113.12

>  <b_lp_Chiralities_Consistent>  (277) 
1

>  <s_lp_Variant>  (277) 
98:0-1

>  <s_i_glide_gridfile>  (277) 
pfpi4k_grid

>  <i_i_glide_lignum>  (277) 
14

>  <i_i_glide_rotatable_bonds>  (277) 
6

>  <r_i_docking_score>  (277) 
-3.03432

>  <r_i_glide_ligand_efficiency>  (277) 
-0.108369

>  <r_i_glide_ligand_efficiency_sa>  (277) 
-0.329071

>  <r_i_glide_ligand_efficiency_ln>  (277) 
-0.700411

>  <r_i_glide_gscore>  (277) 
-3.03432

>  <r_i_glide_lipo>  (277) 
-0.21219

>  <r_i_glide_hbond>  (277) 
-0.185173

>  <r_i_glide_metal>  (277) 
-0

>  <r_i_glide_rewards>  (277) 
-0.733051

>  <r_i_glide_evdw>  (277) 
-21.6257

>  <r_i_glide_ecoul>  (277) 
-6.09315

>  <r_i_glide_erotb>  (277) 
0.12675

>  <r_i_glide_esite>  (277) 
-0.0353974

>  <r_i_glide_emodel>  (277) 
-33.3682

>  <r_i_glide_energy>  (277) 
-27.7189

>  <r_i_glide_einternal>  (277) 
0.529701

>  <r_i_glide_intrahb_reward>  (277) 
-0

>  <i_i_glide_confnum>  (277) 
1

>  <i_i_glide_posenum>  (277) 
22

>  <r_i_glide_eff_state_penalty>  (277) 
0

>  <ligand_id>  (277) 
98

>  <original_smiles>  (277) 
CC(C)C1CC2(O)C3(C)CC(O)C2(O)C(=O)C(O3)C2C3C4CCC4C12C3CO

>  <smiles>  (277) 
[H]OC([H])([H])C1([H])C2([H])C3([H])C([H])([H])C([H])([H])C3([H])C13C2([H])C1([H])OC2(C([H])([H])[H])C([H])([H])C([H])(O[H])C(O[H])(C1=O)C2(O[H])C([H])([H])C3([H])C([H])(C([H])([H])[H])C([H])([H])[H]

$$$$
99:0:0
     RDKit          3D

 65 70  0  0  1  0  0  0  0  0999 V2000
    2.1205    0.7810    1.8462 C   0  0  0  0  0  0  0  0  0  0  0  0
    0.9841    0.1105    2.6572 C   0  0  2  0  0  0  0  0  0  0  0  0
   -0.3865    0.8359    2.5408 C   0  0  0  0  0  0  0  0  0  0  0  0
   -0.5323    2.3185    2.9597 C   0  0  0  0  0  0  0  0  0  0  0  0
   -0.7018    2.5712    4.4683 C   0  0  2  0  0  0  0  0  0  0  0  0
    0.6518    3.1156    5.0317 C   0  0  0  0  0  0  0  0  0  0  0  0
    2.0574    2.5360    4.7653 C   0  0  0  0  0  0  0  0  0  0  0  0
    2.5990    1.2942    5.5105 C   0  0  2  0  0  0  0  0  0  0  0  0
    4.0928    1.2779    5.1355 C   0  0  0  0  0  0  0  0  0  0  0  0
    1.8475   -0.0231    5.2940 C   0  0  2  0  0  0  0  0  0  0  0  0
    1.3947   -0.6875    3.9365 C   0  0  1  0  0  0  0  0  0  0  0  0
    0.6023   -1.9939    4.1334 C   0  0  0  0  0  0  0  0  0  0  0  0
    1.1635    0.1569    6.6661 C   0  0  2  0  0  0  0  0  0  0  0  0
   -0.3099    0.5055    7.0041 C   0  0  2  0  0  0  0  0  0  0  0  0
   -1.3093    0.3087    5.8908 C   0  0  0  0  0  0  0  0  0  0  0  0
   -1.6694    1.5923    5.2034 C   0  0  1  0  0  0  0  0  0  0  0  0
   -2.1501    2.7130    6.0987 C   0  0  2  0  0  0  0  0  0  0  0  0
   -1.7942    3.5970    4.8933 C   0  0  0  0  0  0  0  0  0  0  0  0
   -1.4730    2.9083    7.4817 C   0  0  1  0  0  0  0  0  0  0  0  0
   -2.5293    3.2886    8.5366 C   0  0  0  0  0  0  0  0  0  0  0  0
   -0.5775    1.7071    7.9646 C   0  0  2  0  0  0  0  0  0  0  0  0
    0.6776    2.1405    8.7662 C   0  0  0  0  0  0  0  0  0  0  0  0
    1.9854    2.3138    7.9636 C   0  0  0  0  0  0  0  0  0  0  0  0
    2.3218    1.1045    7.0719 C   0  0  2  0  0  0  0  0  0  0  0  0
    3.4551    0.4060    7.8708 C   0  0  0  0  0  0  0  0  0  0  0  0
    3.0947    0.6477    2.3105 H   0  0  0  0  0  0  0  0  0  0  0  0
    1.9659    1.8453    1.6775 H   0  0  0  0  0  0  0  0  0  0  0  0
    2.1836    0.3346    0.8549 H   0  0  0  0  0  0  0  0  0  0  0  0
    0.7801   -0.7310    1.9927 H   0  0  0  0  0  0  0  0  0  0  0  0
   -0.6228    0.8388    1.4723 H   0  0  0  0  0  0  0  0  0  0  0  0
   -1.1767    0.2255    2.9725 H   0  0  0  0  0  0  0  0  0  0  0  0
    0.2436    2.9311    2.4966 H   0  0  0  0  0  0  0  0  0  0  0  0
   -1.4370    2.6665    2.4676 H   0  0  0  0  0  0  0  0  0  0  0  0
    0.7320    4.1408    4.6639 H   0  0  0  0  0  0  0  0  0  0  0  0
    0.5469    3.2643    6.0782 H   0  0  0  0  0  0  0  0  0  0  0  0
    2.1946    2.4424    3.6942 H   0  0  0  0  0  0  0  0  0  0  0  0
    2.7229    3.3723    5.0071 H   0  0  0  0  0  0  0  0  0  0  0  0
    4.5804    0.3570    5.4352 H   0  0  0  0  0  0  0  0  0  0  0  0
    4.6450    2.0955    5.6121 H   0  0  0  0  0  0  0  0  0  0  0  0
    4.2576    1.3651    4.0584 H   0  0  0  0  0  0  0  0  0  0  0  0
    2.6170   -0.7457    5.5759 H   0  0  0  0  0  0  0  0  0  0  0  0
    2.3374   -1.1043    3.5830 H   0  0  0  0  0  0  0  0  0  0  0  0
   -0.4208   -1.9214    3.7708 H   0  0  0  0  0  0  0  0  0  0  0  0
    0.5715   -2.3059    5.1730 H   0  0  0  0  0  0  0  0  0  0  0  0
    1.0557   -2.8056    3.5696 H   0  0  0  0  0  0  0  0  0  0  0  0
    1.3809   -0.7719    7.1906 H   0  0  0  0  0  0  0  0  0  0  0  0
   -0.5525   -0.3436    7.6473 H   0  0  0  0  0  0  0  0  0  0  0  0
   -1.0022   -0.4225    5.1785 H   0  0  0  0  0  0  0  0  0  0  0  0
   -2.2246   -0.0916    6.3241 H   0  0  0  0  0  0  0  0  0  0  0  0
   -2.4779    1.3732    4.4860 H   0  0  0  0  0  0  0  0  0  0  0  0
   -3.2296    2.6502    6.1671 H   0  0  0  0  0  0  0  0  0  0  0  0
   -1.4193    4.5769    5.1682 H   0  0  0  0  0  0  0  0  0  0  0  0
   -2.6142    3.6725    4.1605 H   0  0  0  0  0  0  0  0  0  0  0  0
   -0.8663    3.7990    7.4362 H   0  0  0  0  0  0  0  0  0  0  0  0
   -3.2564    2.4956    8.7122 H   0  0  0  0  0  0  0  0  0  0  0  0
   -3.0849    4.1799    8.2429 H   0  0  0  0  0  0  0  0  0  0  0  0
   -2.0524    3.5072    9.4881 H   0  0  0  0  0  0  0  0  0  0  0  0
   -1.2101    1.2571    8.7284 H   0  0  0  0  0  0  0  0  0  0  0  0
    0.4624    3.0602    9.3096 H   0  0  0  0  0  0  0  0  0  0  0  0
    0.8590    1.3854    9.5308 H   0  0  0  0  0  0  0  0  0  0  0  0
    2.0070    3.2598    7.4228 H   0  0  0  0  0  0  0  0  0  0  0  0
    2.7688    2.5079    8.7044 H   0  0  0  0  0  0  0  0  0  0  0  0
    3.1376    0.1691    8.8877 H   0  0  0  0  0  0  0  0  0  0  0  0
    4.3424    1.0416    7.9598 H   0  0  0  0  0  0  0  0  0  0  0  0
    3.7820   -0.5249    7.4298 H   0  0  0  0  0  0  0  0  0  0  0  0
  1  2  1  0
  1 26  1  0
  1 27  1  0
  1 28  1  0
  2 11  1  0
  2  3  1  0
  2 29  1  6
  3  4  1  0
  3 30  1  0
  3 31  1  0
  5  4  1  6
  4 32  1  0
  4 33  1  0
  5 16  1  0
  5 18  1  0
  5  6  1  0
  6  7  1  0
  6 34  1  0
  6 35  1  0
  7  8  1  0
  7 36  1  0
  7 37  1  0
  8 24  1  0
  8  9  1  1
  8 10  1  0
  9 38  1  0
  9 39  1  0
  9 40  1  0
 10 11  1  0
 10 13  1  0
 10 41  1  1
 11 12  1  0
 11 42  1  6
 12 43  1  0
 12 44  1  0
 12 45  1  0
 13 24  1  0
 13 14  1  0
 13 46  1  1
 14 21  1  0
 14 15  1  0
 14 47  1  1
 15 16  1  0
 15 48  1  0
 15 49  1  0
 16 17  1  0
 16 50  1  6
 17 18  1  0
 17 19  1  0
 17 51  1  1
 18 52  1  0
 18 53  1  0
 19 20  1  0
 19 21  1  0
 19 54  1  6
 20 55  1  0
 20 56  1  0
 20 57  1  0
 21 22  1  0
 21 58  1  1
 22 23  1  0
 22 59  1  0
 22 60  1  0
 23 24  1  0
 23 61  1  0
 23 62  1  0
 24 25  1  1
 25 63  1  0
 25 64  1  0
 25 65  1  0
M  END
>  <i_m_ct_stereo_status>  (278) 
1

>  <s_m_source_file>  (278) 
/var/tmp/pbs.5076255.sched01/tmp_gsyjirk/108c9vsds16.sdf

>  <i_m_source_file_index>  (278) 
15

>  <i_lp_mmshare_version>  (278) 
48012

>  <i_f3d_flags>  (278) 
0

>  <s_epik_input>  (278) 
W0NIMl0xW0NIMl1bQ0BASF0oW0NIM10pW0NASF0oW0NIM10pW0NIXShbQ0BAXShbQ0gzXSkoW0NIMl1bQ0gyXTIpW0NAQF0zKFtDSDNdKVtDSDJdW0NIMl00KVtDQEBIXTNbQ0hdKFtDSDJdNSlbQ0BASF00W0NASF0oW0NIM10pW0NASF0oW0NASF01W0NAXTEyNilbQ0gyXTY=

>  <s_epik_cmdline>  (278) 
J2VwaWtfcHl0aG9uJywgJy1waHQnLCAnMi4wJywgJy1waCcsICc3LjAnLCAnLXRuJywgJzgnLCAnLW1hJywgJzIwMCcsICctaW1hZScsICc8aW5maWxlLm1hZT4nLCAnLW9tYWUnLCAnPG91dGZpbGUubWFlPic=

>  <r_lp_tautomer_probability>  (278) 
1

>  <r_epik_Ionization_Penalty>  (278) 
0

>  <r_epik_Ionization_Penalty_Charging>  (278) 
0

>  <r_epik_Ionization_Penalty_Neutral>  (278) 
0

>  <r_epik_State_Penalty>  (278) 
-0

>  <r_epik_Charging_Adjusted_Penalty>  (278) 
0

>  <i_epik_Tot_Q>  (278) 
0

>  <i_epik_Tot_abs_Q>  (278) 
0

>  <s_lp_Force_Field>  (278) 
OPLS3e

>  <r_lp_Energy>  (278) 
155.699

>  <b_lp_Chiralities_Consistent>  (278) 
1

>  <s_lp_Variant>  (278) 
99:0-1

>  <s_i_glide_gridfile>  (278) 
pfpi4k_grid

>  <i_i_glide_lignum>  (278) 
15

>  <i_i_glide_rotatable_bonds>  (278) 
0

>  <r_i_docking_score>  (278) 
-2.11108

>  <r_i_glide_ligand_efficiency>  (278) 
-0.084443

>  <r_i_glide_ligand_efficiency_sa>  (278) 
-0.246913

>  <r_i_glide_ligand_efficiency_ln>  (278) 
-0.500388

>  <r_i_glide_gscore>  (278) 
-2.11108

>  <r_i_glide_lipo>  (278) 
-0.163211

>  <r_i_glide_hbond>  (278) 
0

>  <r_i_glide_metal>  (278) 
-0

>  <r_i_glide_rewards>  (278) 
-1.08692

>  <r_i_glide_evdw>  (278) 
-16.9321

>  <r_i_glide_ecoul>  (278) 
-0.0955825

>  <r_i_glide_erotb>  (278) 
0

>  <r_i_glide_esite>  (278) 
0

>  <r_i_glide_emodel>  (278) 
-19.0704

>  <r_i_glide_energy>  (278) 
-17.0277

>  <r_i_glide_einternal>  (278) 
0

>  <r_i_glide_intrahb_reward>  (278) 
-0

>  <i_i_glide_confnum>  (278) 
1

>  <i_i_glide_posenum>  (278) 
10

>  <r_i_glide_eff_state_penalty>  (278) 
0

>  <ligand_id>  (278) 
99

>  <original_smiles>  (278) 
CC1CCC23CCC4(C)C(C1C)C1C5CC2C(C3)C(C)C5CCC14C

>  <smiles>  (278) 
[H]C([H])([H])C1([H])C([H])([H])C([H])([H])C23C([H])([H])C([H])([H])C4(C([H])([H])[H])C([H])(C1([H])C([H])([H])[H])C1([H])C5([H])C([H])([H])C2([H])C([H])(C3([H])[H])C([H])(C([H])([H])[H])C5([H])C([H])([H])C([H])([H])C14C([H])([H])[H]

$$$$
99:0:1
     RDKit          3D

 65 70  0  0  1  0  0  0  0  0999 V2000
    4.9807   -0.5139    3.6875 C   0  0  0  0  0  0  0  0  0  0  0  0
    3.6719   -0.6232    2.8718 C   0  0  2  0  0  0  0  0  0  0  0  0
    3.2437    0.6873    2.1596 C   0  0  0  0  0  0  0  0  0  0  0  0
    2.9942    1.9800    2.9811 C   0  0  0  0  0  0  0  0  0  0  0  0
    1.6260    2.0888    3.6585 C   0  0  2  0  0  0  0  0  0  0  0  0
    1.7858    1.8208    5.1807 C   0  0  0  0  0  0  0  0  0  0  0  0
    2.5794    0.6658    5.8167 C   0  0  0  0  0  0  0  0  0  0  0  0
    1.9974   -0.7615    5.9475 C   0  0  2  0  0  0  0  0  0  0  0  0
    2.9942   -1.4835    6.8770 C   0  0  0  0  0  0  0  0  0  0  0  0
    1.6984   -1.5041    4.6370 C   0  0  2  0  0  0  0  0  0  0  0  0
    2.6086   -1.6701    3.3647 C   0  0  1  0  0  0  0  0  0  0  0  0
    1.9257   -2.4188    2.2040 C   0  0  0  0  0  0  0  0  0  0  0  0
    0.1860   -1.1844    4.8243 C   0  0  2  0  0  0  0  0  0  0  0  0
   -0.7121   -0.1903    4.0469 C   0  0  2  0  0  0  0  0  0  0  0  0
   -0.1888    0.2964    2.7061 C   0  0  0  0  0  0  0  0  0  0  0  0
    0.4236    1.6564    2.7604 C   0  0  1  0  0  0  0  0  0  0  0  0
   -0.4391    2.7491    3.3507 C   0  0  2  0  0  0  0  0  0  0  0  0
    0.9079    3.4660    3.5400 C   0  0  0  0  0  0  0  0  0  0  0  0
   -1.3379    2.4043    4.5625 C   0  0  1  0  0  0  0  0  0  0  0  0
   -2.6985    3.1146    4.4445 C   0  0  0  0  0  0  0  0  0  0  0  0
   -1.5334    0.8674    4.8589 C   0  0  2  0  0  0  0  0  0  0  0  0
   -1.6300    0.5231    6.3649 C   0  0  0  0  0  0  0  0  0  0  0  0
   -0.3179    0.1228    7.0750 C   0  0  0  0  0  0  0  0  0  0  0  0
    0.4713   -0.9873    6.3351 C   0  0  2  0  0  0  0  0  0  0  0  0
    0.1716   -2.2535    7.1801 C   0  0  0  0  0  0  0  0  0  0  0  0
    4.9819   -1.1724    4.5539 H   0  0  0  0  0  0  0  0  0  0  0  0
    5.1955    0.4978    4.0299 H   0  0  0  0  0  0  0  0  0  0  0  0
    5.8371   -0.8008    3.0758 H   0  0  0  0  0  0  0  0  0  0  0  0
    4.0529   -1.1690    2.0064 H   0  0  0  0  0  0  0  0  0  0  0  0
    4.0672    0.9392    1.4893 H   0  0  0  0  0  0  0  0  0  0  0  0
    2.4265    0.4943    1.4681 H   0  0  0  0  0  0  0  0  0  0  0  0
    3.8105    2.1937    3.6728 H   0  0  0  0  0  0  0  0  0  0  0  0
    3.0420    2.7934    2.2569 H   0  0  0  0  0  0  0  0  0  0  0  0
    2.2836    2.7082    5.5779 H   0  0  0  0  0  0  0  0  0  0  0  0
    0.8325    1.8753    5.6387 H   0  0  0  0  0  0  0  0  0  0  0  0
    3.5726    0.6412    5.3931 H   0  0  0  0  0  0  0  0  0  0  0  0
    2.7659    1.0142    6.8353 H   0  0  0  0  0  0  0  0  0  0  0  0
    2.8202   -2.5585    6.9153 H   0  0  0  0  0  0  0  0  0  0  0  0
    2.9181   -1.1132    7.9029 H   0  0  0  0  0  0  0  0  0  0  0  0
    4.0293   -1.3570    6.5601 H   0  0  0  0  0  0  0  0  0  0  0  0
    1.6937   -2.5498    4.9528 H   0  0  0  0  0  0  0  0  0  0  0  0
    3.2884   -2.4566    3.7000 H   0  0  0  0  0  0  0  0  0  0  0  0
    1.7998   -1.8056    1.3135 H   0  0  0  0  0  0  0  0  0  0  0  0
    0.9503   -2.7948    2.4992 H   0  0  0  0  0  0  0  0  0  0  0  0
    2.5145   -3.2781    1.8880 H   0  0  0  0  0  0  0  0  0  0  0  0
   -0.3130   -2.1512    4.7281 H   0  0  0  0  0  0  0  0  0  0  0  0
   -1.5107   -0.8602    3.7177 H   0  0  0  0  0  0  0  0  0  0  0  0
    0.4663   -0.4120    2.2364 H   0  0  0  0  0  0  0  0  0  0  0  0
   -1.0379    0.3629    2.0245 H   0  0  0  0  0  0  0  0  0  0  0  0
    0.6519    1.9449    1.7256 H   0  0  0  0  0  0  0  0  0  0  0  0
   -1.0048    3.2108    2.5401 H   0  0  0  0  0  0  0  0  0  0  0  0
    0.9425    4.1086    4.4207 H   0  0  0  0  0  0  0  0  0  0  0  0
    1.2128    4.0321    2.6582 H   0  0  0  0  0  0  0  0  0  0  0  0
   -0.9175    2.8737    5.4486 H   0  0  0  0  0  0  0  0  0  0  0  0
   -3.2741    2.7633    3.5853 H   0  0  0  0  0  0  0  0  0  0  0  0
   -2.5636    4.1889    4.3274 H   0  0  0  0  0  0  0  0  0  0  0  0
   -3.3033    2.9553    5.3349 H   0  0  0  0  0  0  0  0  0  0  0  0
   -2.5452    0.6933    4.4876 H   0  0  0  0  0  0  0  0  0  0  0  0
   -2.0955    1.3462    6.9035 H   0  0  0  0  0  0  0  0  0  0  0  0
   -2.3254   -0.3068    6.4446 H   0  0  0  0  0  0  0  0  0  0  0  0
    0.2986    0.9827    7.3112 H   0  0  0  0  0  0  0  0  0  0  0  0
   -0.5857   -0.1894    8.0859 H   0  0  0  0  0  0  0  0  0  0  0  0
   -0.8995   -2.4393    7.2602 H   0  0  0  0  0  0  0  0  0  0  0  0
    0.5615   -2.1601    8.1954 H   0  0  0  0  0  0  0  0  0  0  0  0
    0.6025   -3.1621    6.7610 H   0  0  0  0  0  0  0  0  0  0  0  0
  1  2  1  0
  1 26  1  0
  1 27  1  0
  1 28  1  0
  2 11  1  0
  2  3  1  0
  2 29  1  6
  3  4  1  0
  3 30  1  0
  3 31  1  0
  5  4  1  6
  4 32  1  0
  4 33  1  0
  5 16  1  0
  5 18  1  0
  5  6  1  0
  6  7  1  0
  6 34  1  0
  6 35  1  0
  7  8  1  0
  7 36  1  0
  7 37  1  0
  8 24  1  0
  8  9  1  1
  8 10  1  0
  9 38  1  0
  9 39  1  0
  9 40  1  0
 10 11  1  0
 10 13  1  0
 10 41  1  1
 11 12  1  0
 11 42  1  1
 12 43  1  0
 12 44  1  0
 12 45  1  0
 13 24  1  0
 13 14  1  0
 13 46  1  1
 14 21  1  0
 14 15  1  0
 14 47  1  6
 15 16  1  0
 15 48  1  0
 15 49  1  0
 16 17  1  0
 16 50  1  6
 17 18  1  0
 17 19  1  0
 17 51  1  6
 18 52  1  0
 18 53  1  0
 19 20  1  0
 19 21  1  0
 19 54  1  1
 20 55  1  0
 20 56  1  0
 20 57  1  0
 21 22  1  0
 21 58  1  6
 22 23  1  0
 22 59  1  0
 22 60  1  0
 23 24  1  0
 23 61  1  0
 23 62  1  0
 24 25  1  1
 25 63  1  0
 25 64  1  0
 25 65  1  0
M  END
>  <i_m_ct_stereo_status>  (279) 
1

>  <s_m_source_file>  (279) 
/var/tmp/pbs.5076255.sched01/tmp_gsyjirk/108c9vsds16.sdf

>  <i_m_source_file_index>  (279) 
15

>  <i_lp_mmshare_version>  (279) 
48012

>  <i_f3d_flags>  (279) 
0

>  <s_epik_input>  (279) 
W0NIMl0xW0NIMl1bQ0BASF0oW0NIM10pW0NASF0oW0NIM10pW0NIXShbQ0BAXShbQ0gzXSkoW0NIMl1bQ0gyXTIpW0NAQF0zKFtDSDNdKVtDSDJdW0NIMl00KVtDQEBIXTNbQ0hdKFtDSDJdNSlbQ0BASF00W0NASF0oW0NIM10pW0NASF0oW0NASF01W0NAXTEyNilbQ0gyXTY=

>  <s_epik_cmdline>  (279) 
J2VwaWtfcHl0aG9uJywgJy1waHQnLCAnMi4wJywgJy1waCcsICc3LjAnLCAnLXRuJywgJzgnLCAnLW1hJywgJzIwMCcsICctaW1hZScsICc8aW5maWxlLm1hZT4nLCAnLW9tYWUnLCAnPG91dGZpbGUubWFlPic=

>  <r_lp_tautomer_probability>  (279) 
1

>  <r_epik_Ionization_Penalty>  (279) 
0

>  <r_epik_Ionization_Penalty_Charging>  (279) 
0

>  <r_epik_Ionization_Penalty_Neutral>  (279) 
0

>  <r_epik_State_Penalty>  (279) 
-0

>  <r_epik_Charging_Adjusted_Penalty>  (279) 
0

>  <i_epik_Tot_Q>  (279) 
0

>  <i_epik_Tot_abs_Q>  (279) 
0

>  <s_lp_Force_Field>  (279) 
OPLS3e

>  <r_lp_Energy>  (279) 
155.699

>  <b_lp_Chiralities_Consistent>  (279) 
1

>  <s_lp_Variant>  (279) 
99:0-1

>  <s_i_glide_gridfile>  (279) 
pfpi4k_grid

>  <i_i_glide_lignum>  (279) 
15

>  <i_i_glide_rotatable_bonds>  (279) 
0

>  <r_i_docking_score>  (279) 
-2.09308

>  <r_i_glide_ligand_efficiency>  (279) 
-0.0837231

>  <r_i_glide_ligand_efficiency_sa>  (279) 
-0.244808

>  <r_i_glide_ligand_efficiency_ln>  (279) 
-0.496122

>  <r_i_glide_gscore>  (279) 
-2.09308

>  <r_i_glide_lipo>  (279) 
-0.218093

>  <r_i_glide_hbond>  (279) 
0

>  <r_i_glide_metal>  (279) 
-0

>  <r_i_glide_rewards>  (279) 
-1.08692

>  <r_i_glide_evdw>  (279) 
-16.6258

>  <r_i_glide_ecoul>  (279) 
0.288186

>  <r_i_glide_erotb>  (279) 
0

>  <r_i_glide_esite>  (279) 
0

>  <r_i_glide_emodel>  (279) 
-18.3891

>  <r_i_glide_energy>  (279) 
-16.3376

>  <r_i_glide_einternal>  (279) 
0

>  <r_i_glide_intrahb_reward>  (279) 
-0

>  <i_i_glide_confnum>  (279) 
1

>  <i_i_glide_posenum>  (279) 
24

>  <r_i_glide_eff_state_penalty>  (279) 
0

>  <ligand_id>  (279) 
99

>  <original_smiles>  (279) 
CC1CCC23CCC4(C)C(C1C)C1C5CC2C(C3)C(C)C5CCC14C

>  <smiles>  (279) 
[H]C([H])([H])C1([H])C([H])([H])C([H])([H])C23C([H])([H])C([H])([H])C4(C([H])([H])[H])C([H])(C1([H])C([H])([H])[H])C1([H])C5([H])C([H])([H])C2([H])C([H])(C3([H])[H])C([H])(C([H])([H])[H])C5([H])C([H])([H])C([H])([H])C14C([H])([H])[H]

$$$$
99:0:2
     RDKit          3D

 65 70  0  0  1  0  0  0  0  0999 V2000
    5.1275    0.5444    4.7840 C   0  0  0  0  0  0  0  0  0  0  0  0
    3.7433    0.1214    5.3350 C   0  0  2  0  0  0  0  0  0  0  0  0
    2.8486   -0.6119    4.2952 C   0  0  0  0  0  0  0  0  0  0  0  0
    2.4495    0.0782    2.9636 C   0  0  0  0  0  0  0  0  0  0  0  0
    1.2717    1.0634    3.0508 C   0  0  2  0  0  0  0  0  0  0  0  0
    1.8390    2.5193    2.9919 C   0  0  0  0  0  0  0  0  0  0  0  0
    3.0229    3.0693    3.8110 C   0  0  0  0  0  0  0  0  0  0  0  0
    2.8912    3.5048    5.2874 C   0  0  2  0  0  0  0  0  0  0  0  0
    4.2169    4.2324    5.5703 C   0  0  0  0  0  0  0  0  0  0  0  0
    2.5080    2.4184    6.2960 C   0  0  2  0  0  0  0  0  0  0  0  0
    3.1365    0.9841    6.4888 C   0  0  1  0  0  0  0  0  0  0  0  0
    2.4286    0.1525    7.5759 C   0  0  0  0  0  0  0  0  0  0  0  0
    1.0594    2.9500    6.2937 C   0  0  2  0  0  0  0  0  0  0  0  0
   -0.2272    2.3244    5.6963 C   0  0  2  0  0  0  0  0  0  0  0  0
   -0.1648    0.8528    5.3771 C   0  0  0  0  0  0  0  0  0  0  0  0
    0.0632    0.5870    3.9170 C   0  0  1  0  0  0  0  0  0  0  0  0
   -0.9008    1.2527    2.9609 C   0  0  2  0  0  0  0  0  0  0  0  0
    0.1998    0.9769    1.9252 C   0  0  0  0  0  0  0  0  0  0  0  0
   -1.3809    2.6957    3.2681 C   0  0  1  0  0  0  0  0  0  0  0  0
   -2.8700    2.8498    2.9214 C   0  0  0  0  0  0  0  0  0  0  0  0
   -1.0811    3.1996    4.7267 C   0  0  2  0  0  0  0  0  0  0  0  0
   -0.7404    4.7060    4.8068 C   0  0  0  0  0  0  0  0  0  0  0  0
    0.7491    5.0914    4.7649 C   0  0  0  0  0  0  0  0  0  0  0  0
    1.6040    4.3065    5.7749 C   0  0  2  0  0  0  0  0  0  0  0  0
    1.8502    5.3553    6.8926 C   0  0  0  0  0  0  0  0  0  0  0  0
    5.4921    1.4501    5.2624 H   0  0  0  0  0  0  0  0  0  0  0  0
    5.1363    0.6971    3.7061 H   0  0  0  0  0  0  0  0  0  0  0  0
    5.8688   -0.2325    4.9730 H   0  0  0  0  0  0  0  0  0  0  0  0
    4.0542   -0.7426    5.9243 H   0  0  0  0  0  0  0  0  0  0  0  0
    3.4226   -1.4925    3.9887 H   0  0  0  0  0  0  0  0  0  0  0  0
    1.9801   -1.0436    4.7880 H   0  0  0  0  0  0  0  0  0  0  0  0
    3.3152    0.5024    2.4510 H   0  0  0  0  0  0  0  0  0  0  0  0
    2.1496   -0.7328    2.3041 H   0  0  0  0  0  0  0  0  0  0  0  0
    2.1564    2.6724    1.9579 H   0  0  0  0  0  0  0  0  0  0  0  0
    1.0329    3.2052    3.0659 H   0  0  0  0  0  0  0  0  0  0  0  0
    3.8493    2.3858    3.6864 H   0  0  0  0  0  0  0  0  0  0  0  0
    3.3460    3.9449    3.2362 H   0  0  0  0  0  0  0  0  0  0  0  0
    4.3527    4.4446    6.6245 H   0  0  0  0  0  0  0  0  0  0  0  0
    4.2829    5.1907    5.0433 H   0  0  0  0  0  0  0  0  0  0  0  0
    5.0835    3.6408    5.2747 H   0  0  0  0  0  0  0  0  0  0  0  0
    2.8559    2.8709    7.2271 H   0  0  0  0  0  0  0  0  0  0  0  0
    4.0535    1.2286    7.0244 H   0  0  0  0  0  0  0  0  0  0  0  0
    1.9557   -0.7429    7.1768 H   0  0  0  0  0  0  0  0  0  0  0  0
    1.6754    0.7253    8.1094 H   0  0  0  0  0  0  0  0  0  0  0  0
    3.1434   -0.1987    8.3164 H   0  0  0  0  0  0  0  0  0  0  0  0
    0.8438    3.1308    7.3448 H   0  0  0  0  0  0  0  0  0  0  0  0
   -0.8569    2.3083    6.5903 H   0  0  0  0  0  0  0  0  0  0  0  0
    0.5509    0.3287    5.9693 H   0  0  0  0  0  0  0  0  0  0  0  0
   -1.1275    0.4161    5.6463 H   0  0  0  0  0  0  0  0  0  0  0  0
   -0.0219   -0.5001    3.7565 H   0  0  0  0  0  0  0  0  0  0  0  0
   -1.7171    0.5663    2.7790 H   0  0  0  0  0  0  0  0  0  0  0  0
    0.2646    1.7381    1.1534 H   0  0  0  0  0  0  0  0  0  0  0  0
    0.1386   -0.0278    1.4791 H   0  0  0  0  0  0  0  0  0  0  0  0
   -0.9196    3.3603    2.5559 H   0  0  0  0  0  0  0  0  0  0  0  0
   -3.4973    2.2406    3.5701 H   0  0  0  0  0  0  0  0  0  0  0  0
   -3.0746    2.5538    1.8925 H   0  0  0  0  0  0  0  0  0  0  0  0
   -3.1892    3.8809    3.0317 H   0  0  0  0  0  0  0  0  0  0  0  0
   -2.0677    3.1400    5.1846 H   0  0  0  0  0  0  0  0  0  0  0  0
   -1.2592    5.2275    4.0060 H   0  0  0  0  0  0  0  0  0  0  0  0
   -1.1387    5.0771    5.7483 H   0  0  0  0  0  0  0  0  0  0  0  0
    1.1450    5.0618    3.7499 H   0  0  0  0  0  0  0  0  0  0  0  0
    0.7889    6.1715    4.9445 H   0  0  0  0  0  0  0  0  0  0  0  0
    0.9108    5.7499    7.2829 H   0  0  0  0  0  0  0  0  0  0  0  0
    2.4231    6.2133    6.5258 H   0  0  0  0  0  0  0  0  0  0  0  0
    2.3896    4.9593    7.7410 H   0  0  0  0  0  0  0  0  0  0  0  0
  1  2  1  0
  1 26  1  0
  1 27  1  0
  1 28  1  0
  2 11  1  0
  2  3  1  0
  2 29  1  1
  3  4  1  0
  3 30  1  0
  3 31  1  0
  5  4  1  6
  4 32  1  0
  4 33  1  0
  5 16  1  0
  5 18  1  0
  5  6  1  0
  6  7  1  0
  6 34  1  0
  6 35  1  0
  7  8  1  0
  7 36  1  0
  7 37  1  0
  8 24  1  0
  8  9  1  1
  8 10  1  0
  9 38  1  0
  9 39  1  0
  9 40  1  0
 10 11  1  0
 10 13  1  0
 10 41  1  1
 11 12  1  0
 11 42  1  1
 12 43  1  0
 12 44  1  0
 12 45  1  0
 13 24  1  0
 13 14  1  0
 13 46  1  1
 14 21  1  0
 14 15  1  0
 14 47  1  1
 15 16  1  0
 15 48  1  0
 15 49  1  0
 16 17  1  0
 16 50  1  1
 17 18  1  0
 17 19  1  0
 17 51  1  6
 18 52  1  0
 18 53  1  0
 19 20  1  0
 19 21  1  0
 19 54  1  6
 20 55  1  0
 20 56  1  0
 20 57  1  0
 21 22  1  0
 21 58  1  1
 22 23  1  0
 22 59  1  0
 22 60  1  0
 23 24  1  0
 23 61  1  0
 23 62  1  0
 24 25  1  1
 25 63  1  0
 25 64  1  0
 25 65  1  0
M  END
>  <i_m_ct_stereo_status>  (280) 
1

>  <s_m_source_file>  (280) 
/var/tmp/pbs.5076255.sched01/tmp_gsyjirk/108c9vsds16.sdf

>  <i_m_source_file_index>  (280) 
15

>  <i_lp_mmshare_version>  (280) 
48012

>  <i_f3d_flags>  (280) 
0

>  <s_epik_input>  (280) 
W0NIMl0xW0NIMl1bQ0BASF0oW0NIM10pW0NASF0oW0NIM10pW0NIXShbQ0BAXShbQ0gzXSkoW0NIMl1bQ0gyXTIpW0NAQF0zKFtDSDNdKVtDSDJdW0NIMl00KVtDQEBIXTNbQ0hdKFtDSDJdNSlbQ0BASF00W0NASF0oW0NIM10pW0NASF0oW0NASF01W0NAXTEyNilbQ0gyXTY=

>  <s_epik_cmdline>  (280) 
J2VwaWtfcHl0aG9uJywgJy1waHQnLCAnMi4wJywgJy1waCcsICc3LjAnLCAnLXRuJywgJzgnLCAnLW1hJywgJzIwMCcsICctaW1hZScsICc8aW5maWxlLm1hZT4nLCAnLW9tYWUnLCAnPG91dGZpbGUubWFlPic=

>  <r_lp_tautomer_probability>  (280) 
1

>  <r_epik_Ionization_Penalty>  (280) 
0

>  <r_epik_Ionization_Penalty_Charging>  (280) 
0

>  <r_epik_Ionization_Penalty_Neutral>  (280) 
0

>  <r_epik_State_Penalty>  (280) 
-0

>  <r_epik_Charging_Adjusted_Penalty>  (280) 
0

>  <i_epik_Tot_Q>  (280) 
0

>  <i_epik_Tot_abs_Q>  (280) 
0

>  <s_lp_Force_Field>  (280) 
OPLS3e

>  <r_lp_Energy>  (280) 
155.699

>  <b_lp_Chiralities_Consistent>  (280) 
1

>  <s_lp_Variant>  (280) 
99:0-1

>  <s_i_glide_gridfile>  (280) 
pfpi4k_grid

>  <i_i_glide_lignum>  (280) 
15

>  <i_i_glide_rotatable_bonds>  (280) 
0

>  <r_i_docking_score>  (280) 
-1.91587

>  <r_i_glide_ligand_efficiency>  (280) 
-0.0766347

>  <r_i_glide_ligand_efficiency_sa>  (280) 
-0.224081

>  <r_i_glide_ligand_efficiency_ln>  (280) 
-0.454118

>  <r_i_glide_gscore>  (280) 
-1.91587

>  <r_i_glide_lipo>  (280) 
-0.0827483

>  <r_i_glide_hbond>  (280) 
0

>  <r_i_glide_metal>  (280) 
-0

>  <r_i_glide_rewards>  (280) 
-1.08692

>  <r_i_glide_evdw>  (280) 
-15.9709

>  <r_i_glide_ecoul>  (280) 
0.34896

>  <r_i_glide_erotb>  (280) 
0

>  <r_i_glide_esite>  (280) 
0

>  <r_i_glide_emodel>  (280) 
-17.4516

>  <r_i_glide_energy>  (280) 
-15.6219

>  <r_i_glide_einternal>  (280) 
0

>  <r_i_glide_intrahb_reward>  (280) 
-0

>  <i_i_glide_confnum>  (280) 
1

>  <i_i_glide_posenum>  (280) 
33

>  <r_i_glide_eff_state_penalty>  (280) 
0

>  <ligand_id>  (280) 
99

>  <original_smiles>  (280) 
CC1CCC23CCC4(C)C(C1C)C1C5CC2C(C3)C(C)C5CCC14C

>  <smiles>  (280) 
[H]C([H])([H])C1([H])C([H])([H])C([H])([H])C23C([H])([H])C([H])([H])C4(C([H])([H])[H])C([H])(C1([H])C([H])([H])[H])C1([H])C5([H])C([H])([H])C2([H])C([H])(C3([H])[H])C([H])(C([H])([H])[H])C5([H])C([H])([H])C([H])([H])C14C([H])([H])[H]

$$$$
99:1:0
     RDKit          3D

 65 70  0  0  1  0  0  0  0  0999 V2000
    3.6879   -1.3752   -1.9152 C   0  0  0  0  0  0  0  0  0  0  0  0
    4.5738   -2.4905   -1.3358 C   0  0  2  0  0  0  0  0  0  0  0  0
    3.7840   -3.8349   -1.1068 C   0  0  0  0  0  0  0  0  0  0  0  0
    2.4339   -3.9200   -0.2760 C   0  0  0  0  0  0  0  0  0  0  0  0
    2.4991   -4.1849    1.2691 C   0  0  2  0  0  0  0  0  0  0  0  0
    2.0945   -2.8484    2.0404 C   0  0  0  0  0  0  0  0  0  0  0  0
    2.5956   -1.4110    1.7214 C   0  0  0  0  0  0  0  0  0  0  0  0
    4.0865   -1.1025    1.8594 C   0  0  2  0  0  0  0  0  0  0  0  0
    4.2397    0.3059    1.3005 C   0  0  0  0  0  0  0  0  0  0  0  0
    4.9741   -2.1259    1.1721 C   0  0  1  0  0  0  0  0  0  0  0  0
    5.5651   -1.9986   -0.2223 C   0  0  1  0  0  0  0  0  0  0  0  0
    6.9391   -2.6844   -0.3768 C   0  0  0  0  0  0  0  0  0  0  0  0
    5.5576   -2.5556    2.5190 C   0  0  2  0  0  0  0  0  0  0  0  0
    5.3449   -3.9978    3.0306 C   0  0  2  0  0  0  0  0  0  0  0  0
    5.0827   -5.0484    1.9481 C   0  0  0  0  0  0  0  0  0  0  0  0
    3.6289   -5.2535    1.6555 C   0  0  1  0  0  0  0  0  0  0  0  0
    2.8080   -5.6756    2.8542 C   0  0  2  0  0  0  0  0  0  0  0  0
    1.6335   -5.2996    1.9253 C   0  0  0  0  0  0  0  0  0  0  0  0
    3.1111   -5.0138    4.2191 C   0  0  1  0  0  0  0  0  0  0  0  0
    3.0066   -6.0513    5.3509 C   0  0  0  0  0  0  0  0  0  0  0  0
    4.4843   -4.2211    4.3218 C   0  0  2  0  0  0  0  0  0  0  0  0
    4.4612   -2.9636    5.2082 C   0  0  0  0  0  0  0  0  0  0  0  0
    4.0410   -1.6608    4.4995 C   0  0  0  0  0  0  0  0  0  0  0  0
    4.8577   -1.3645    3.2050 C   0  0  2  0  0  0  0  0  0  0  0  0
    5.8009   -0.2454    3.6647 C   0  0  0  0  0  0  0  0  0  0  0  0
    2.9178   -1.0755   -1.2228 H   0  0  0  0  0  0  0  0  0  0  0  0
    3.1855   -1.7047   -2.8260 H   0  0  0  0  0  0  0  0  0  0  0  0
    4.2606   -0.4817   -2.1596 H   0  0  0  0  0  0  0  0  0  0  0  0
    5.2230   -2.7255   -2.1800 H   0  0  0  0  0  0  0  0  0  0  0  0
    3.4882   -4.0892   -2.1183 H   0  0  0  0  0  0  0  0  0  0  0  0
    4.4690   -4.6290   -0.8233 H   0  0  0  0  0  0  0  0  0  0  0  0
    1.8079   -3.0697   -0.5210 H   0  0  0  0  0  0  0  0  0  0  0  0
    1.9130   -4.7781   -0.7161 H   0  0  0  0  0  0  0  0  0  0  0  0
    1.0275   -2.6922    1.9626 H   0  0  0  0  0  0  0  0  0  0  0  0
    2.1783   -2.9794    3.0943 H   0  0  0  0  0  0  0  0  0  0  0  0
    2.2447   -1.1518    0.7323 H   0  0  0  0  0  0  0  0  0  0  0  0
    2.0555   -0.7320    2.3862 H   0  0  0  0  0  0  0  0  0  0  0  0
    5.2948    0.5468    1.1574 H   0  0  0  0  0  0  0  0  0  0  0  0
    3.8056    1.0449    1.9712 H   0  0  0  0  0  0  0  0  0  0  0  0
    3.7967    0.4103    0.3223 H   0  0  0  0  0  0  0  0  0  0  0  0
    4.3429   -2.9497    1.0249 H   0  0  0  0  0  0  0  0  0  0  0  0
    5.7826   -0.9505   -0.4426 H   0  0  0  0  0  0  0  0  0  0  0  0
    6.8735   -3.7656   -0.3454 H   0  0  0  0  0  0  0  0  0  0  0  0
    7.6347   -2.3625    0.3915 H   0  0  0  0  0  0  0  0  0  0  0  0
    7.3942   -2.4366   -1.3292 H   0  0  0  0  0  0  0  0  0  0  0  0
    6.6343   -2.3452    2.3852 H   0  0  0  0  0  0  0  0  0  0  0  0
    6.3142   -4.3170    3.3619 H   0  0  0  0  0  0  0  0  0  0  0  0
    5.6660   -4.8376    1.0560 H   0  0  0  0  0  0  0  0  0  0  0  0
    5.5065   -5.9875    2.2998 H   0  0  0  0  0  0  0  0  0  0  0  0
    3.5786   -6.0606    0.9095 H   0  0  0  0  0  0  0  0  0  0  0  0
    2.8829   -6.7733    2.9194 H   0  0  0  0  0  0  0  0  0  0  0  0
    0.7621   -4.9551    2.4954 H   0  0  0  0  0  0  0  0  0  0  0  0
    1.3894   -6.1076    1.2475 H   0  0  0  0  0  0  0  0  0  0  0  0
    2.3056   -4.3364    4.5084 H   0  0  0  0  0  0  0  0  0  0  0  0
    3.7625   -6.8334    5.2621 H   0  0  0  0  0  0  0  0  0  0  0  0
    2.0314   -6.5392    5.3454 H   0  0  0  0  0  0  0  0  0  0  0  0
    3.1319   -5.5863    6.3298 H   0  0  0  0  0  0  0  0  0  0  0  0
    5.1009   -4.9274    4.8921 H   0  0  0  0  0  0  0  0  0  0  0  0
    3.8192   -3.1193    6.0691 H   0  0  0  0  0  0  0  0  0  0  0  0
    5.4639   -2.8168    5.6103 H   0  0  0  0  0  0  0  0  0  0  0  0
    2.9708   -1.6558    4.3350 H   0  0  0  0  0  0  0  0  0  0  0  0
    4.1388   -0.8545    5.2189 H   0  0  0  0  0  0  0  0  0  0  0  0
    6.2725   -0.4806    4.6145 H   0  0  0  0  0  0  0  0  0  0  0  0
    5.2708    0.6917    3.8306 H   0  0  0  0  0  0  0  0  0  0  0  0
    6.5736   -0.0756    2.9129 H   0  0  0  0  0  0  0  0  0  0  0  0
  1  2  1  0
  1 26  1  0
  1 27  1  0
  1 28  1  0
  2 11  1  0
  2  3  1  0
  2 29  1  6
  3  4  1  0
  3 30  1  0
  3 31  1  0
  5  4  1  6
  4 32  1  0
  4 33  1  0
  5 16  1  0
  5 18  1  0
  5  6  1  0
  6  7  1  0
  6 34  1  0
  6 35  1  0
  7  8  1  0
  7 36  1  0
  7 37  1  0
  8 24  1  0
  8  9  1  6
  8 10  1  0
  9 38  1  0
  9 39  1  0
  9 40  1  0
 10 11  1  0
 10 13  1  0
 10 41  1  6
 11 12  1  0
 11 42  1  6
 12 43  1  0
 12 44  1  0
 12 45  1  0
 13 24  1  0
 13 14  1  0
 13 46  1  6
 14 21  1  0
 14 15  1  0
 14 47  1  1
 15 16  1  0
 15 48  1  0
 15 49  1  0
 16 17  1  0
 16 50  1  6
 17 18  1  0
 17 19  1  0
 17 51  1  1
 18 52  1  0
 18 53  1  0
 19 20  1  0
 19 21  1  0
 19 54  1  1
 20 55  1  0
 20 56  1  0
 20 57  1  0
 21 22  1  0
 21 58  1  1
 22 23  1  0
 22 59  1  0
 22 60  1  0
 23 24  1  0
 23 61  1  0
 23 62  1  0
 24 25  1  1
 25 63  1  0
 25 64  1  0
 25 65  1  0
M  END
>  <i_m_ct_stereo_status>  (281) 
1

>  <s_m_source_file>  (281) 
/var/tmp/pbs.5076255.sched01/tmp_gsyjirk/108c9vsds16.sdf

>  <i_m_source_file_index>  (281) 
16

>  <i_lp_mmshare_version>  (281) 
48012

>  <i_f3d_flags>  (281) 
0

>  <s_epik_input>  (281) 
W0NIMl0xW0NIMl1bQ0BASF0oW0NIM10pW0NASF0oW0NIM10pW0NIXShbQ0BAXShbQ0gzXSkoW0NIMl1bQ0gyXTIpW0NAQF0zKFtDSDNdKVtDSDJdW0NIMl00KVtDQEBIXTNbQ0hdKFtDSDJdNSlbQ0BASF00W0NASF0oW0NIM10pW0NASF0oW0NASF01W0NAXTEyNilbQ0gyXTY=

>  <s_epik_cmdline>  (281) 
J2VwaWtfcHl0aG9uJywgJy1waHQnLCAnMi4wJywgJy1waCcsICc3LjAnLCAnLXRuJywgJzgnLCAnLW1hJywgJzIwMCcsICctaW1hZScsICc8aW5maWxlLm1hZT4nLCAnLW9tYWUnLCAnPG91dGZpbGUubWFlPic=

>  <r_lp_tautomer_probability>  (281) 
1

>  <r_epik_Ionization_Penalty>  (281) 
0

>  <r_epik_Ionization_Penalty_Charging>  (281) 
0

>  <r_epik_Ionization_Penalty_Neutral>  (281) 
0

>  <r_epik_State_Penalty>  (281) 
-0

>  <r_epik_Charging_Adjusted_Penalty>  (281) 
0

>  <i_epik_Tot_Q>  (281) 
0

>  <i_epik_Tot_abs_Q>  (281) 
0

>  <s_lp_Force_Field>  (281) 
OPLS3e

>  <r_lp_Energy>  (281) 
143.078

>  <b_lp_Chiralities_Consistent>  (281) 
1

>  <s_lp_Variant>  (281) 
99:0-2

>  <s_i_glide_gridfile>  (281) 
pfpi4k_grid

>  <i_i_glide_lignum>  (281) 
16

>  <i_i_glide_rotatable_bonds>  (281) 
0

>  <r_i_docking_score>  (281) 
-2.123

>  <r_i_glide_ligand_efficiency>  (281) 
-0.0849199

>  <r_i_glide_ligand_efficiency_sa>  (281) 
-0.248307

>  <r_i_glide_ligand_efficiency_ln>  (281) 
-0.503214

>  <r_i_glide_gscore>  (281) 
-2.123

>  <r_i_glide_lipo>  (281) 
-0.354508

>  <r_i_glide_hbond>  (281) 
0

>  <r_i_glide_metal>  (281) 
-0

>  <r_i_glide_rewards>  (281) 
-1.08692

>  <r_i_glide_evdw>  (281) 
-10.9255

>  <r_i_glide_ecoul>  (281) 
-0.901961

>  <r_i_glide_erotb>  (281) 
0

>  <r_i_glide_esite>  (281) 
0

>  <r_i_glide_emodel>  (281) 
-10.8588

>  <r_i_glide_energy>  (281) 
-11.8275

>  <r_i_glide_einternal>  (281) 
0

>  <r_i_glide_intrahb_reward>  (281) 
-0

>  <i_i_glide_confnum>  (281) 
1

>  <i_i_glide_posenum>  (281) 
7

>  <r_i_glide_eff_state_penalty>  (281) 
0

>  <ligand_id>  (281) 
99

>  <original_smiles>  (281) 
CC1CCC23CCC4(C)C(C1C)C1C5CC2C(C3)C(C)C5CCC14C

>  <smiles>  (281) 
[H]C([H])([H])C1([H])C([H])([H])C([H])([H])C23C([H])([H])C([H])([H])C4(C([H])([H])[H])C([H])(C1([H])C([H])([H])[H])C1([H])C5([H])C([H])([H])C2([H])C([H])(C3([H])[H])C([H])(C([H])([H])[H])C5([H])C([H])([H])C([H])([H])C14C([H])([H])[H]

$$$$
99:1:1
     RDKit          3D

 65 70  0  0  1  0  0  0  0  0999 V2000
    3.8465   -1.1447   -2.9901 C   0  0  0  0  0  0  0  0  0  0  0  0
    4.7218   -2.3387   -2.5579 C   0  0  2  0  0  0  0  0  0  0  0  0
    3.8687   -3.6601   -2.4028 C   0  0  0  0  0  0  0  0  0  0  0  0
    2.5614   -3.7526   -1.4818 C   0  0  0  0  0  0  0  0  0  0  0  0
    2.7556   -4.1851    0.0148 C   0  0  2  0  0  0  0  0  0  0  0  0
    2.4626   -2.9229    0.9045 C   0  0  0  0  0  0  0  0  0  0  0  0
    3.0066   -1.5101    0.6850 C   0  0  0  0  0  0  0  0  0  0  0  0
    4.5005   -1.2720    0.8062 C   0  0  2  0  0  0  0  0  0  0  0  0
    4.6447    0.1655    0.4034 C   0  0  0  0  0  0  0  0  0  0  0  0
    5.2890   -2.2635   -0.0234 C   0  0  1  0  0  0  0  0  0  0  0  0
    5.8139   -1.9931   -1.4596 C   0  0  1  0  0  0  0  0  0  0  0  0
    7.1698   -2.6789   -1.7526 C   0  0  0  0  0  0  0  0  0  0  0  0
    5.9860   -2.7895    1.2342 C   0  0  2  0  0  0  0  0  0  0  0  0
    5.7936   -4.2666    1.6306 C   0  0  2  0  0  0  0  0  0  0  0  0
    5.4091   -5.1837    0.4626 C   0  0  0  0  0  0  0  0  0  0  0  0
    3.9027   -5.3037    0.2334 C   0  0  1  0  0  0  0  0  0  0  0  0
    3.1520   -5.8438    1.4115 C   0  0  2  0  0  0  0  0  0  0  0  0
    1.9285   -5.3454    0.6275 C   0  0  0  0  0  0  0  0  0  0  0  0
    3.5496   -5.2897    2.8150 C   0  0  1  0  0  0  0  0  0  0  0  0
    3.4622   -6.4028    3.8721 C   0  0  0  0  0  0  0  0  0  0  0  0
    4.9632   -4.5750    2.9195 C   0  0  2  0  0  0  0  0  0  0  0  0
    4.9988   -3.3977    3.9273 C   0  0  0  0  0  0  0  0  0  0  0  0
    4.5650   -2.0414    3.3584 C   0  0  0  0  0  0  0  0  0  0  0  0
    5.3180   -1.6790    2.0769 C   0  0  2  0  0  0  0  0  0  0  0  0
    6.3150   -0.5938    2.4605 C   0  0  0  0  0  0  0  0  0  0  0  0
    3.0942   -0.8829   -2.2575 H   0  0  0  0  0  0  0  0  0  0  0  0
    3.3075   -1.3698   -3.9085 H   0  0  0  0  0  0  0  0  0  0  0  0
    4.4396   -0.2521   -3.1781 H   0  0  0  0  0  0  0  0  0  0  0  0
    5.3175   -2.5145   -3.4566 H   0  0  0  0  0  0  0  0  0  0  0  0
    3.5105   -3.8537   -3.4084 H   0  0  0  0  0  0  0  0  0  0  0  0
    4.5748   -4.4765   -2.2230 H   0  0  0  0  0  0  0  0  0  0  0  0
    2.0225   -2.8081   -1.5520 H   0  0  0  0  0  0  0  0  0  0  0  0
    1.8268   -4.4415   -1.9151 H   0  0  0  0  0  0  0  0  0  0  0  0
    1.4551   -2.6457    0.7442 H   0  0  0  0  0  0  0  0  0  0  0  0
    2.4919   -3.1358    1.9441 H   0  0  0  0  0  0  0  0  0  0  0  0
    2.6388   -1.1420   -0.2625 H   0  0  0  0  0  0  0  0  0  0  0  0
    2.5338   -0.8677    1.4186 H   0  0  0  0  0  0  0  0  0  0  0  0
    5.6939    0.4127    0.2853 H   0  0  0  0  0  0  0  0  0  0  0  0
    4.1810    0.8085    1.1573 H   0  0  0  0  0  0  0  0  0  0  0  0
    4.2293    0.2809   -0.5822 H   0  0  0  0  0  0  0  0  0  0  0  0
    4.6497   -3.0520   -0.2488 H   0  0  0  0  0  0  0  0  0  0  0  0
    6.0279   -0.9320   -1.6012 H   0  0  0  0  0  0  0  0  0  0  0  0
    7.0543   -3.7560   -1.8380 H   0  0  0  0  0  0  0  0  0  0  0  0
    7.8925   -2.4915   -0.9536 H   0  0  0  0  0  0  0  0  0  0  0  0
    7.5875   -2.3150   -2.7043 H   0  0  0  0  0  0  0  0  0  0  0  0
    7.0556   -2.5936    1.1317 H   0  0  0  0  0  0  0  0  0  0  0  0
    6.8066   -4.5890    1.8760 H   0  0  0  0  0  0  0  0  0  0  0  0
    5.9243   -4.9203   -0.4542 H   0  0  0  0  0  0  0  0  0  0  0  0
    5.8036   -6.1792    0.6963 H   0  0  0  0  0  0  0  0  0  0  0  0
    3.8075   -6.0411   -0.5664 H   0  0  0  0  0  0  0  0  0  0  0  0
    3.1902   -6.9407    1.4013 H   0  0  0  0  0  0  0  0  0  0  0  0
    1.1512   -5.1098    1.3580 H   0  0  0  0  0  0  0  0  0  0  0  0
    1.6303   -6.0773   -0.1215 H   0  0  0  0  0  0  0  0  0  0  0  0
    2.7959   -4.6033    3.1977 H   0  0  0  0  0  0  0  0  0  0  0  0
    4.1743   -7.2069    3.6777 H   0  0  0  0  0  0  0  0  0  0  0  0
    2.4683   -6.8460    3.8893 H   0  0  0  0  0  0  0  0  0  0  0  0
    3.6642   -6.0221    4.8752 H   0  0  0  0  0  0  0  0  0  0  0  0
    5.5837   -5.3317    3.3994 H   0  0  0  0  0  0  0  0  0  0  0  0
    4.3855   -3.6038    4.8011 H   0  0  0  0  0  0  0  0  0  0  0  0
    6.0196   -3.2825    4.3002 H   0  0  0  0  0  0  0  0  0  0  0  0
    3.4841   -1.9718    3.2490 H   0  0  0  0  0  0  0  0  0  0  0  0
    4.7700   -1.2784    4.1112 H   0  0  0  0  0  0  0  0  0  0  0  0
    7.0284   -0.7143    3.2478 H   0  0  0  0  0  0  0  0  0  0  0  0
    5.7491    0.3242    2.6889 H   0  0  0  0  0  0  0  0  0  0  0  0
    6.9578   -0.4588    1.5831 H   0  0  0  0  0  0  0  0  0  0  0  0
  1  2  1  0
  1 26  1  0
  1 27  1  0
  1 28  1  0
  2 11  1  0
  2  3  1  0
  2 29  1  6
  3  4  1  0
  3 30  1  0
  3 31  1  0
  5  4  1  6
  4 32  1  0
  4 33  1  0
  5 16  1  0
  5 18  1  0
  5  6  1  0
  6  7  1  0
  6 34  1  0
  6 35  1  0
  7  8  1  0
  7 36  1  0
  7 37  1  0
  8 24  1  0
  8  9  1  6
  8 10  1  0
  9 38  1  0
  9 39  1  0
  9 40  1  0
 10 11  1  0
 10 13  1  0
 10 41  1  6
 11 12  1  0
 11 42  1  1
 12 43  1  0
 12 44  1  0
 12 45  1  0
 13 24  1  0
 13 14  1  0
 13 46  1  6
 14 21  1  0
 14 15  1  0
 14 47  1  1
 15 16  1  0
 15 48  1  0
 15 49  1  0
 16 17  1  0
 16 50  1  6
 17 18  1  0
 17 19  1  0
 17 51  1  1
 18 52  1  0
 18 53  1  0
 19 20  1  0
 19 21  1  0
 19 54  1  1
 20 55  1  0
 20 56  1  0
 20 57  1  0
 21 22  1  0
 21 58  1  1
 22 23  1  0
 22 59  1  0
 22 60  1  0
 23 24  1  0
 23 61  1  0
 23 62  1  0
 24 25  1  1
 25 63  1  0
 25 64  1  0
 25 65  1  0
M  END
>  <i_m_ct_stereo_status>  (282) 
1

>  <s_m_source_file>  (282) 
/var/tmp/pbs.5076255.sched01/tmp_gsyjirk/108c9vsds16.sdf

>  <i_m_source_file_index>  (282) 
16

>  <i_lp_mmshare_version>  (282) 
48012

>  <i_f3d_flags>  (282) 
0

>  <s_epik_input>  (282) 
W0NIMl0xW0NIMl1bQ0BASF0oW0NIM10pW0NASF0oW0NIM10pW0NIXShbQ0BAXShbQ0gzXSkoW0NIMl1bQ0gyXTIpW0NAQF0zKFtDSDNdKVtDSDJdW0NIMl00KVtDQEBIXTNbQ0hdKFtDSDJdNSlbQ0BASF00W0NASF0oW0NIM10pW0NASF0oW0NASF01W0NAXTEyNilbQ0gyXTY=

>  <s_epik_cmdline>  (282) 
J2VwaWtfcHl0aG9uJywgJy1waHQnLCAnMi4wJywgJy1waCcsICc3LjAnLCAnLXRuJywgJzgnLCAnLW1hJywgJzIwMCcsICctaW1hZScsICc8aW5maWxlLm1hZT4nLCAnLW9tYWUnLCAnPG91dGZpbGUubWFlPic=

>  <r_lp_tautomer_probability>  (282) 
1

>  <r_epik_Ionization_Penalty>  (282) 
0

>  <r_epik_Ionization_Penalty_Charging>  (282) 
0

>  <r_epik_Ionization_Penalty_Neutral>  (282) 
0

>  <r_epik_State_Penalty>  (282) 
-0

>  <r_epik_Charging_Adjusted_Penalty>  (282) 
0

>  <i_epik_Tot_Q>  (282) 
0

>  <i_epik_Tot_abs_Q>  (282) 
0

>  <s_lp_Force_Field>  (282) 
OPLS3e

>  <r_lp_Energy>  (282) 
143.078

>  <b_lp_Chiralities_Consistent>  (282) 
1

>  <s_lp_Variant>  (282) 
99:0-2

>  <s_i_glide_gridfile>  (282) 
pfpi4k_grid

>  <i_i_glide_lignum>  (282) 
16

>  <i_i_glide_rotatable_bonds>  (282) 
0

>  <r_i_docking_score>  (282) 
-2.11491

>  <r_i_glide_ligand_efficiency>  (282) 
-0.0845963

>  <r_i_glide_ligand_efficiency_sa>  (282) 
-0.247361

>  <r_i_glide_ligand_efficiency_ln>  (282) 
-0.501297

>  <r_i_glide_gscore>  (282) 
-2.11491

>  <r_i_glide_lipo>  (282) 
-0.726815

>  <r_i_glide_hbond>  (282) 
0

>  <r_i_glide_metal>  (282) 
-0

>  <r_i_glide_rewards>  (282) 
-1.08692

>  <r_i_glide_evdw>  (282) 
-4.689

>  <r_i_glide_ecoul>  (282) 
-0.444823

>  <r_i_glide_erotb>  (282) 
0

>  <r_i_glide_esite>  (282) 
0

>  <r_i_glide_emodel>  (282) 
-3.39129

>  <r_i_glide_energy>  (282) 
-5.13382

>  <r_i_glide_einternal>  (282) 
0

>  <r_i_glide_intrahb_reward>  (282) 
-0

>  <i_i_glide_confnum>  (282) 
2

>  <i_i_glide_posenum>  (282) 
18

>  <r_i_glide_eff_state_penalty>  (282) 
0

>  <ligand_id>  (282) 
99

>  <original_smiles>  (282) 
CC1CCC23CCC4(C)C(C1C)C1C5CC2C(C3)C(C)C5CCC14C

>  <smiles>  (282) 
[H]C([H])([H])C1([H])C([H])([H])C([H])([H])C23C([H])([H])C([H])([H])C4(C([H])([H])[H])C([H])(C1([H])C([H])([H])[H])C1([H])C5([H])C([H])([H])C2([H])C([H])(C3([H])[H])C([H])(C([H])([H])[H])C5([H])C([H])([H])C([H])([H])C14C([H])([H])[H]

$$$$
100:0:0
     RDKit          3D

 24 26  0  0  1  0  0  0  0  0999 V2000
    9.6521   -3.0112    0.7075 C   0  0  0  0  0  0  0  0  0  0  0  0
    8.4769   -3.9236    0.8180 C   0  0  0  0  0  0  0  0  0  0  0  0
    8.2753   -5.0573    1.5669 C   0  0  0  0  0  0  0  0  0  0  0  0
    6.9964   -5.5873    1.3740 N   0  0  0  0  0  0  0  0  0  0  0  0
    6.4503   -4.7763    0.5129 C   0  0  0  0  0  0  0  0  0  0  0  0
    4.9133   -4.6101   -0.3241 S   0  0  0  0  0  0  0  0  0  0  0  0
    5.5808   -3.1722   -1.1140 C   0  0  0  0  0  0  0  0  0  0  0  0
    4.7933   -2.4031   -2.0931 C   0  0  0  0  0  0  0  0  0  0  0  0
    4.8600   -0.9933   -2.1369 C   0  0  0  0  0  0  0  0  0  0  0  0
    4.0982   -0.2666   -3.0780 C   0  0  0  0  0  0  0  0  0  0  0  0
    3.2442   -0.9367   -3.9653 C   0  0  0  0  0  0  0  0  0  0  0  0
    2.5257   -0.2233   -4.8632 F   0  0  0  0  0  0  0  0  0  0  0  0
    3.1573   -2.3405   -3.9189 C   0  0  0  0  0  0  0  0  0  0  0  0
    3.9337   -3.0636   -2.9972 C   0  0  0  0  0  0  0  0  0  0  0  0
    6.8240   -2.8329   -0.7667 N   0  0  0  0  0  0  0  0  0  0  0  0
    7.2887   -3.7476    0.1298 N   0  0  0  0  0  0  0  0  0  0  0  0
   10.4604   -3.3294    1.3643 H   0  0  0  0  0  0  0  0  0  0  0  0
    9.3963   -1.9815    0.9485 H   0  0  0  0  0  0  0  0  0  0  0  0
    9.9993   -3.0053   -0.3174 H   0  0  0  0  0  0  0  0  0  0  0  0
    8.9551   -5.5308    2.2606 H   0  0  0  0  0  0  0  0  0  0  0  0
    5.4864   -0.4609   -1.4369 H   0  0  0  0  0  0  0  0  0  0  0  0
    4.1489    0.8106   -3.1135 H   0  0  0  0  0  0  0  0  0  0  0  0
    2.5018   -2.8737   -4.5934 H   0  0  0  0  0  0  0  0  0  0  0  0
    3.8703   -4.1442   -2.9837 H   0  0  0  0  0  0  0  0  0  0  0  0
  1  2  1  0
  1 17  1  0
  1 18  1  0
  1 19  1  0
  2 16  1  0
  2  3  2  0
  3  4  1  0
  3 20  1  0
  4  5  2  0
  5 16  1  0
  5  6  1  0
  6  7  1  0
  7  8  1  0
  7 15  2  0
  8 14  1  0
  8  9  2  0
  9 10  1  0
  9 21  1  0
 10 11  2  0
 10 22  1  0
 11 12  1  0
 11 13  1  0
 13 14  2  0
 13 23  1  0
 14 24  1  0
 15 16  1  0
M  END
>  <i_m_ct_stereo_status>  (283) 
1

>  <s_m_source_file>  (283) 
/var/tmp/pbs.5076255.sched01/tmp_gsyjirk/108c9vsds16.sdf

>  <i_m_source_file_index>  (283) 
17

>  <i_lp_mmshare_version>  (283) 
48012

>  <i_f3d_flags>  (283) 
0

>  <s_epik_input>  (283) 
bjFbY0hdYyhbQ0gzXSluKGMxMiluYyhzMiktYzNbY0hdW2NIXWMoRilbY0hdW2NIXTM=

>  <s_epik_cmdline>  (283) 
J2VwaWtfcHl0aG9uJywgJy1waHQnLCAnMi4wJywgJy1waCcsICc3LjAnLCAnLXRuJywgJzgnLCAnLW1hJywgJzIwMCcsICctaW1hZScsICc8aW5maWxlLm1hZT4nLCAnLW9tYWUnLCAnPG91dGZpbGUubWFlPic=

>  <r_epik_Ionization_Penalty>  (283) 
0.00539255

>  <r_epik_Ionization_Penalty_Charging>  (283) 
0.00539255

>  <r_epik_Ionization_Penalty_Neutral>  (283) 
2.04664e-10

>  <r_epik_State_Penalty>  (283) 
0.00394055

>  <r_epik_Charging_Adjusted_Penalty>  (283) 
0.0093331

>  <i_epik_Tot_Q>  (283) 
0

>  <i_epik_Tot_abs_Q>  (283) 
0

>  <s_lp_Force_Field>  (283) 
OPLS3e

>  <r_lp_Energy>  (283) 
11.9903

>  <b_lp_Chiralities_Consistent>  (283) 
1

>  <s_lp_Variant>  (283) 
100:0-1

>  <s_i_glide_gridfile>  (283) 
pfpi4k_grid

>  <i_i_glide_lignum>  (283) 
17

>  <i_i_glide_rotatable_bonds>  (283) 
1

>  <r_i_docking_score>  (283) 
-4.21984

>  <r_i_glide_ligand_efficiency>  (283) 
-0.26374

>  <r_i_glide_ligand_efficiency_sa>  (283) 
-0.664583

>  <r_i_glide_ligand_efficiency_ln>  (283) 
-1.11855

>  <r_i_glide_gscore>  (283) 
-4.21984

>  <r_i_glide_lipo>  (283) 
-0.775358

>  <r_i_glide_hbond>  (283) 
0

>  <r_i_glide_metal>  (283) 
-0

>  <r_i_glide_rewards>  (283) 
-2.26871

>  <r_i_glide_evdw>  (283) 
-24.4701

>  <r_i_glide_ecoul>  (283) 
-1.78282

>  <r_i_glide_erotb>  (283) 
0.315155

>  <r_i_glide_esite>  (283) 
0

>  <r_i_glide_emodel>  (283) 
-32.3339

>  <r_i_glide_energy>  (283) 
-26.253

>  <r_i_glide_einternal>  (283) 
0.840309

>  <r_i_glide_intrahb_reward>  (283) 
-0

>  <i_i_glide_confnum>  (283) 
2

>  <i_i_glide_posenum>  (283) 
4

>  <r_i_glide_eff_state_penalty>  (283) 
0

>  <ligand_id>  (283) 
100

>  <original_smiles>  (283) 
Cc1cnc2sc(-c3ccc(F)cc3)nn12

>  <smiles>  (283) 
[H]c1nc2sc(-c3c([H])c([H])c(F)c([H])c3[H])nn2c1C([H])([H])[H]

$$$$
100:0:1
     RDKit          3D

 24 26  0  0  1  0  0  0  0  0999 V2000
    7.8596   -5.8133    1.1146 C   0  0  0  0  0  0  0  0  0  0  0  0
    6.3833   -5.9296    1.3028 C   0  0  0  0  0  0  0  0  0  0  0  0
    5.6313   -6.7215    2.1349 C   0  0  0  0  0  0  0  0  0  0  0  0
    4.2582   -6.5028    1.9817 N   0  0  0  0  0  0  0  0  0  0  0  0
    4.1955   -5.5807    1.0603 C   0  0  0  0  0  0  0  0  0  0  0  0
    2.9558   -4.6640    0.2136 S   0  0  0  0  0  0  0  0  0  0  0  0
    4.2590   -3.8601   -0.6737 C   0  0  0  0  0  0  0  0  0  0  0  0
    3.9793   -2.8381   -1.6958 C   0  0  0  0  0  0  0  0  0  0  0  0
    2.9392   -3.0201   -2.6368 C   0  0  0  0  0  0  0  0  0  0  0  0
    2.6663   -2.0437   -3.6113 C   0  0  0  0  0  0  0  0  0  0  0  0
    3.4162   -0.8555   -3.6446 C   0  0  0  0  0  0  0  0  0  0  0  0
    3.1624    0.0910   -4.5785 F   0  0  0  0  0  0  0  0  0  0  0  0
    4.4402   -0.6570   -2.7021 C   0  0  0  0  0  0  0  0  0  0  0  0
    4.7290   -1.6442   -1.7388 C   0  0  0  0  0  0  0  0  0  0  0  0
    5.5000   -4.2200   -0.3502 N   0  0  0  0  0  0  0  0  0  0  0  0
    5.4422   -5.1841    0.6062 N   0  0  0  0  0  0  0  0  0  0  0  0
    8.3951   -6.4968    1.7752 H   0  0  0  0  0  0  0  0  0  0  0  0
    8.1954   -4.8003    1.3339 H   0  0  0  0  0  0  0  0  0  0  0  0
    8.1367   -6.0551    0.0894 H   0  0  0  0  0  0  0  0  0  0  0  0
    5.9801   -7.4497    2.8549 H   0  0  0  0  0  0  0  0  0  0  0  0
    2.3320   -3.9098   -2.6158 H   0  0  0  0  0  0  0  0  0  0  0  0
    1.8678   -2.1995   -4.3211 H   0  0  0  0  0  0  0  0  0  0  0  0
    5.0043    0.2616   -2.7196 H   0  0  0  0  0  0  0  0  0  0  0  0
    5.5105   -1.4773   -1.0084 H   0  0  0  0  0  0  0  0  0  0  0  0
  1  2  1  0
  1 17  1  0
  1 18  1  0
  1 19  1  0
  2 16  1  0
  2  3  2  0
  3  4  1  0
  3 20  1  0
  4  5  2  0
  5 16  1  0
  5  6  1  0
  6  7  1  0
  7  8  1  0
  7 15  2  0
  8 14  1  0
  8  9  2  0
  9 10  1  0
  9 21  1  0
 10 11  2  0
 10 22  1  0
 11 12  1  0
 11 13  1  0
 13 14  2  0
 13 23  1  0
 14 24  1  0
 15 16  1  0
M  END
>  <i_m_ct_stereo_status>  (284) 
1

>  <s_m_source_file>  (284) 
/var/tmp/pbs.5076255.sched01/tmp_gsyjirk/108c9vsds16.sdf

>  <i_m_source_file_index>  (284) 
17

>  <i_lp_mmshare_version>  (284) 
48012

>  <i_f3d_flags>  (284) 
0

>  <s_epik_input>  (284) 
bjFbY0hdYyhbQ0gzXSluKGMxMiluYyhzMiktYzNbY0hdW2NIXWMoRilbY0hdW2NIXTM=

>  <s_epik_cmdline>  (284) 
J2VwaWtfcHl0aG9uJywgJy1waHQnLCAnMi4wJywgJy1waCcsICc3LjAnLCAnLXRuJywgJzgnLCAnLW1hJywgJzIwMCcsICctaW1hZScsICc8aW5maWxlLm1hZT4nLCAnLW9tYWUnLCAnPG91dGZpbGUubWFlPic=

>  <r_epik_Ionization_Penalty>  (284) 
0.00539255

>  <r_epik_Ionization_Penalty_Charging>  (284) 
0.00539255

>  <r_epik_Ionization_Penalty_Neutral>  (284) 
2.04664e-10

>  <r_epik_State_Penalty>  (284) 
0.00394055

>  <r_epik_Charging_Adjusted_Penalty>  (284) 
0.0093331

>  <i_epik_Tot_Q>  (284) 
0

>  <i_epik_Tot_abs_Q>  (284) 
0

>  <s_lp_Force_Field>  (284) 
OPLS3e

>  <r_lp_Energy>  (284) 
11.9903

>  <b_lp_Chiralities_Consistent>  (284) 
1

>  <s_lp_Variant>  (284) 
100:0-1

>  <s_i_glide_gridfile>  (284) 
pfpi4k_grid

>  <i_i_glide_lignum>  (284) 
17

>  <i_i_glide_rotatable_bonds>  (284) 
1

>  <r_i_docking_score>  (284) 
-3.94312

>  <r_i_glide_ligand_efficiency>  (284) 
-0.246445

>  <r_i_glide_ligand_efficiency_sa>  (284) 
-0.621002

>  <r_i_glide_ligand_efficiency_ln>  (284) 
-1.0452

>  <r_i_glide_gscore>  (284) 
-3.94312

>  <r_i_glide_lipo>  (284) 
-0.667173

>  <r_i_glide_hbond>  (284) 
0

>  <r_i_glide_metal>  (284) 
-0

>  <r_i_glide_rewards>  (284) 
-2.17151

>  <r_i_glide_evdw>  (284) 
-22.8825

>  <r_i_glide_ecoul>  (284) 
-1.83641

>  <r_i_glide_erotb>  (284) 
0.315155

>  <r_i_glide_esite>  (284) 
0

>  <r_i_glide_emodel>  (284) 
-30.2135

>  <r_i_glide_energy>  (284) 
-24.7189

>  <r_i_glide_einternal>  (284) 
1.16317

>  <r_i_glide_intrahb_reward>  (284) 
-0

>  <i_i_glide_confnum>  (284) 
2

>  <i_i_glide_posenum>  (284) 
17

>  <r_i_glide_eff_state_penalty>  (284) 
0

>  <ligand_id>  (284) 
100

>  <original_smiles>  (284) 
Cc1cnc2sc(-c3ccc(F)cc3)nn12

>  <smiles>  (284) 
[H]c1nc2sc(-c3c([H])c([H])c(F)c([H])c3[H])nn2c1C([H])([H])[H]

$$$$
100:0:2
     RDKit          3D

 24 26  0  0  1  0  0  0  0  0999 V2000
   -1.8078   -4.2708    7.4869 C   0  0  0  0  0  0  0  0  0  0  0  0
   -0.7175   -4.0431    6.4959 C   0  0  0  0  0  0  0  0  0  0  0  0
    0.2857   -4.8661    6.0471 C   0  0  0  0  0  0  0  0  0  0  0  0
    1.0829   -4.2512    5.0812 N   0  0  0  0  0  0  0  0  0  0  0  0
    0.5636   -3.0595    4.9673 C   0  0  0  0  0  0  0  0  0  0  0  0
    0.8576   -1.5960    4.0452 S   0  0  0  0  0  0  0  0  0  0  0  0
   -0.5488   -0.8803    4.8568 C   0  0  0  0  0  0  0  0  0  0  0  0
   -0.9933    0.4977    4.5640 C   0  0  0  0  0  0  0  0  0  0  0  0
   -1.7248    1.2581    5.5075 C   0  0  0  0  0  0  0  0  0  0  0  0
   -2.1292    2.5791    5.2165 C   0  0  0  0  0  0  0  0  0  0  0  0
   -1.8066    3.1594    3.9741 C   0  0  0  0  0  0  0  0  0  0  0  0
   -2.1842    4.4294    3.6887 F   0  0  0  0  0  0  0  0  0  0  0  0
   -1.0836    2.4103    3.0302 C   0  0  0  0  0  0  0  0  0  0  0  0
   -0.6805    1.0945    3.3205 C   0  0  0  0  0  0  0  0  0  0  0  0
   -1.1723   -1.6632    5.7368 N   0  0  0  0  0  0  0  0  0  0  0  0
   -0.5344   -2.8647    5.7870 N   0  0  0  0  0  0  0  0  0  0  0  0
   -1.7505   -5.2749    7.9071 H   0  0  0  0  0  0  0  0  0  0  0  0
   -2.7866   -4.1573    7.0192 H   0  0  0  0  0  0  0  0  0  0  0  0
   -1.7220   -3.5667    8.3116 H   0  0  0  0  0  0  0  0  0  0  0  0
    0.4963   -5.8833    6.3445 H   0  0  0  0  0  0  0  0  0  0  0  0
   -1.9702    0.8322    6.4705 H   0  0  0  0  0  0  0  0  0  0  0  0
   -2.6825    3.1496    5.9468 H   0  0  0  0  0  0  0  0  0  0  0  0
   -0.8298    2.8493    2.0791 H   0  0  0  0  0  0  0  0  0  0  0  0
   -0.1249    0.5499    2.5700 H   0  0  0  0  0  0  0  0  0  0  0  0
  1  2  1  0
  1 17  1  0
  1 18  1  0
  1 19  1  0
  2 16  1  0
  2  3  2  0
  3  4  1  0
  3 20  1  0
  4  5  2  0
  5 16  1  0
  5  6  1  0
  6  7  1  0
  7  8  1  0
  7 15  2  0
  8 14  1  0
  8  9  2  0
  9 10  1  0
  9 21  1  0
 10 11  2  0
 10 22  1  0
 11 12  1  0
 11 13  1  0
 13 14  2  0
 13 23  1  0
 14 24  1  0
 15 16  1  0
M  END
>  <i_m_ct_stereo_status>  (285) 
1

>  <s_m_source_file>  (285) 
/var/tmp/pbs.5076255.sched01/tmp_gsyjirk/108c9vsds16.sdf

>  <i_m_source_file_index>  (285) 
17

>  <i_lp_mmshare_version>  (285) 
48012

>  <i_f3d_flags>  (285) 
0

>  <s_epik_input>  (285) 
bjFbY0hdYyhbQ0gzXSluKGMxMiluYyhzMiktYzNbY0hdW2NIXWMoRilbY0hdW2NIXTM=

>  <s_epik_cmdline>  (285) 
J2VwaWtfcHl0aG9uJywgJy1waHQnLCAnMi4wJywgJy1waCcsICc3LjAnLCAnLXRuJywgJzgnLCAnLW1hJywgJzIwMCcsICctaW1hZScsICc8aW5maWxlLm1hZT4nLCAnLW9tYWUnLCAnPG91dGZpbGUubWFlPic=

>  <r_epik_Ionization_Penalty>  (285) 
0.00539255

>  <r_epik_Ionization_Penalty_Charging>  (285) 
0.00539255

>  <r_epik_Ionization_Penalty_Neutral>  (285) 
2.04664e-10

>  <r_epik_State_Penalty>  (285) 
0.00394055

>  <r_epik_Charging_Adjusted_Penalty>  (285) 
0.0093331

>  <i_epik_Tot_Q>  (285) 
0

>  <i_epik_Tot_abs_Q>  (285) 
0

>  <s_lp_Force_Field>  (285) 
OPLS3e

>  <r_lp_Energy>  (285) 
11.9903

>  <b_lp_Chiralities_Consistent>  (285) 
1

>  <s_lp_Variant>  (285) 
100:0-1

>  <s_i_glide_gridfile>  (285) 
pfpi4k_grid

>  <i_i_glide_lignum>  (285) 
17

>  <i_i_glide_rotatable_bonds>  (285) 
1

>  <r_i_docking_score>  (285) 
-2.94952

>  <r_i_glide_ligand_efficiency>  (285) 
-0.184345

>  <r_i_glide_ligand_efficiency_sa>  (285) 
-0.46452

>  <r_i_glide_ligand_efficiency_ln>  (285) 
-0.781829

>  <r_i_glide_gscore>  (285) 
-2.94952

>  <r_i_glide_lipo>  (285) 
-0.0919877

>  <r_i_glide_hbond>  (285) 
0

>  <r_i_glide_metal>  (285) 
-0

>  <r_i_glide_rewards>  (285) 
-1.82456

>  <r_i_glide_evdw>  (285) 
-18.3195

>  <r_i_glide_ecoul>  (285) 
-2.06985

>  <r_i_glide_erotb>  (285) 
0.315155

>  <r_i_glide_esite>  (285) 
-0.121682

>  <r_i_glide_emodel>  (285) 
-24.7441

>  <r_i_glide_energy>  (285) 
-20.3893

>  <r_i_glide_einternal>  (285) 
0.350826

>  <r_i_glide_intrahb_reward>  (285) 
-0

>  <i_i_glide_confnum>  (285) 
2

>  <i_i_glide_posenum>  (285) 
7

>  <r_i_glide_eff_state_penalty>  (285) 
0

>  <ligand_id>  (285) 
100

>  <original_smiles>  (285) 
Cc1cnc2sc(-c3ccc(F)cc3)nn12

>  <smiles>  (285) 
[H]c1nc2sc(-c3c([H])c([H])c(F)c([H])c3[H])nn2c1C([H])([H])[H]

$$$$
101:0:0
     RDKit          3D

 69 76  0  0  1  0  0  0  0  0999 V2000
   -3.0972    3.3596    2.7022 C   0  0  0  0  0  0  0  0  0  0  0  0
   -3.0249    2.9470    4.0605 O   0  0  0  0  0  0  0  0  0  0  0  0
   -1.8149    3.2849    4.7323 C   0  0  2  0  0  0  0  0  0  0  0  0
   -0.6121    2.4332    4.2234 C   0  0  0  0  0  0  0  0  0  0  0  0
    0.6135    2.5244    5.2084 C   0  0  2  0  0  0  0  0  0  0  0  0
    0.6618    3.9568    5.1480 O   0  0  0  0  0  0  0  0  0  0  0  0
    2.0452    1.9496    4.9134 C   0  0  2  0  0  0  0  0  0  0  0  0
    2.4183    2.7948    3.7873 O   0  0  0  0  0  0  0  0  0  0  0  0
    2.1553    0.6930    4.1627 C   0  0  2  0  0  0  0  0  0  0  0  0
    1.0265   -0.1908    4.8553 C   0  0  1  0  0  0  0  0  0  0  0  0
    1.1499   -1.6008    4.6444 O   0  0  0  0  0  0  0  0  0  0  0  0
    1.3157   -2.0029    3.2826 C   0  0  0  0  0  0  0  0  0  0  0  0
    0.7145    0.2184    6.3896 C   0  0  1  0  0  0  0  0  0  0  0  0
   -0.5164   -0.6164    6.8639 C   0  0  0  0  0  0  0  0  0  0  0  0
   -0.3532   -2.0201    6.9790 O   0  0  0  0  0  0  0  0  0  0  0  0
    1.9439   -0.4791    7.0954 C   0  0  0  0  0  0  0  0  0  0  0  0
    3.2330   -0.0528    6.4369 C   0  0  1  0  0  0  0  0  0  0  0  0
    4.5067   -0.6186    6.7056 O   0  0  0  0  0  0  0  0  0  0  0  0
    4.0302   -0.6152    5.3283 C   0  0  1  0  0  0  0  0  0  0  0  0
    3.7954   -1.9184    4.8372 O   0  0  0  0  0  0  0  0  0  0  0  0
    3.7538    0.6097    4.4607 C   0  0  1  0  0  0  0  0  0  0  0  0
    4.5262    0.5413    3.2730 O   0  0  0  0  0  0  0  0  0  0  0  0
    4.3075    1.8346    5.4271 C   0  0  1  0  0  0  0  0  0  0  0  0
    3.9705    3.3925    5.9059 C   0  0  1  0  0  0  0  0  0  0  0  0
    4.2054    4.3874    4.9281 O   0  0  0  0  0  0  0  0  0  0  0  0
    2.7077    3.8801    6.8951 C   0  0  0  0  0  0  0  0  0  0  0  0
    1.3697    3.0032    7.4726 C   0  0  1  0  0  0  0  0  0  0  0  0
    0.5131    4.0411    7.9776 O   0  0  0  0  0  0  0  0  0  0  0  0
    0.8980    4.6598    9.2000 C   0  0  0  0  0  0  0  0  0  0  0  0
    0.4170    1.9243    6.5926 C   0  0  1  0  0  0  0  0  0  0  0  0
   -1.0598    2.1947    7.0744 C   0  0  2  0  0  0  0  0  0  0  0  0
   -2.4085    1.6647    6.5810 C   0  0  0  0  0  0  0  0  0  0  0  0
   -2.0210    3.0491    6.2205 C   0  0  2  0  0  0  0  0  0  0  0  0
    3.1786    1.4036    6.1467 C   0  0  1  0  0  0  0  0  0  0  0  0
    3.5461    1.5376    7.5559 O   0  0  0  0  0  0  0  0  0  0  0  0
   -4.0943    3.1436    2.3177 H   0  0  0  0  0  0  0  0  0  0  0  0
   -2.3808    2.8287    2.0843 H   0  0  0  0  0  0  0  0  0  0  0  0
   -2.9286    4.4317    2.6045 H   0  0  0  0  0  0  0  0  0  0  0  0
   -1.6537    4.3564    4.5952 H   0  0  0  0  0  0  0  0  0  0  0  0
   -1.0395    1.4503    4.1081 H   0  0  0  0  0  0  0  0  0  0  0  0
   -0.3356    2.7489    3.2172 H   0  0  0  0  0  0  0  0  0  0  0  0
    1.0006    4.2034    4.3042 H   0  0  0  0  0  0  0  0  0  0  0  0
    1.7589    2.7183    3.1166 H   0  0  0  0  0  0  0  0  0  0  0  0
    1.9268    0.7424    3.0937 H   0  0  0  0  0  0  0  0  0  0  0  0
    0.1197   -0.0615    4.2893 H   0  0  0  0  0  0  0  0  0  0  0  0
    1.3625   -3.0908    3.2427 H   0  0  0  0  0  0  0  0  0  0  0  0
    2.2505   -1.6286    2.8592 H   0  0  0  0  0  0  0  0  0  0  0  0
    0.5064   -1.6721    2.6328 H   0  0  0  0  0  0  0  0  0  0  0  0
   -0.8611   -0.2445    7.8288 H   0  0  0  0  0  0  0  0  0  0  0  0
   -1.3106   -0.5488    6.1322 H   0  0  0  0  0  0  0  0  0  0  0  0
    0.0897   -2.3217    6.1976 H   0  0  0  0  0  0  0  0  0  0  0  0
    1.9706   -0.2583    8.1620 H   0  0  0  0  0  0  0  0  0  0  0  0
    1.9448   -1.5655    7.0093 H   0  0  0  0  0  0  0  0  0  0  0  0
    4.4298   -2.1055    4.1599 H   0  0  0  0  0  0  0  0  0  0  0  0
    4.4801    1.3996    2.8749 H   0  0  0  0  0  0  0  0  0  0  0  0
    5.2846    1.5470    5.8235 H   0  0  0  0  0  0  0  0  0  0  0  0
    4.8321    3.5812    6.5458 H   0  0  0  0  0  0  0  0  0  0  0  0
    3.6475    4.1757    4.1910 H   0  0  0  0  0  0  0  0  0  0  0  0
    3.2353    4.1616    7.8047 H   0  0  0  0  0  0  0  0  0  0  0  0
    2.3820    4.8542    6.5378 H   0  0  0  0  0  0  0  0  0  0  0  0
    1.6107    2.4688    8.3921 H   0  0  0  0  0  0  0  0  0  0  0  0
    0.1374    5.3906    9.4735 H   0  0  0  0  0  0  0  0  0  0  0  0
    1.8423    5.1977    9.1215 H   0  0  0  0  0  0  0  0  0  0  0  0
    0.9718    3.9360   10.0127 H   0  0  0  0  0  0  0  0  0  0  0  0
   -1.1053    2.3287    8.1531 H   0  0  0  0  0  0  0  0  0  0  0  0
   -2.5242    1.0154    5.7207 H   0  0  0  0  0  0  0  0  0  0  0  0
   -3.1996    1.5879    7.3170 H   0  0  0  0  0  0  0  0  0  0  0  0
   -2.5800    3.8298    6.7310 H   0  0  0  0  0  0  0  0  0  0  0  0
    4.2741    0.9488    7.7007 H   0  0  0  0  0  0  0  0  0  0  0  0
  1  2  1  0
  1 36  1  0
  1 37  1  0
  1 38  1  0
  2  3  1  0
  3 33  1  0
  3  4  1  0
  3 39  1  1
  4  5  1  0
  4 40  1  0
  4 41  1  0
  5 30  1  0
  5  6  1  1
  5  7  1  0
  6 42  1  0
  7 34  1  0
  7  8  1  6
  7  9  1  0
  8 43  1  0
  9 21  1  0
  9 10  1  0
  9 44  1  6
 10 11  1  0
 10 13  1  0
 10 45  1  6
 11 12  1  0
 12 46  1  0
 12 47  1  0
 12 48  1  0
 30 13  1  6
 13 14  1  1
 13 16  1  0
 14 15  1  0
 14 49  1  0
 14 50  1  0
 15 51  1  0
 16 17  1  0
 16 52  1  0
 16 53  1  0
 17 19  1  0
 17 34  1  0
 17 18  1  1
 18 19  1  0
 19 20  1  6
 19 21  1  0
 20 54  1  0
 21 22  1  6
 21 23  1  0
 22 55  1  0
 23 24  1  0
 23 34  1  0
 23 56  1  1
 24 25  1  0
 24 26  1  0
 24 57  1  1
 25 58  1  0
 26 27  1  0
 26 59  1  0
 26 60  1  0
 27 28  1  0
 27 30  1  0
 27 61  1  1
 28 29  1  0
 29 62  1  0
 29 63  1  0
 29 64  1  0
 30 31  1  0
 31 33  1  0
 31 32  1  0
 31 65  1  1
 32 33  1  0
 32 66  1  0
 32 67  1  0
 33 68  1  1
 34 35  1  1
 35 69  1  0
M  END
>  <i_m_ct_stereo_status>  (286) 
1

>  <s_m_source_file>  (286) 
/var/tmp/pbs.5076255.sched01/tmp_gsyjirk/108c9vsds16.sdf

>  <i_m_source_file_index>  (286) 
18

>  <i_lp_mmshare_version>  (286) 
48012

>  <i_f3d_flags>  (286) 
0

>  <s_epik_input>  (286) 
W09IXVtDQF0xMltDQEBIXTNbQ0BASF0oW09IXSlbQ0gyXVtDQEBIXShPW0NIM10pW0NAQF0oW0NAQF0oW0NIMl00KShbQ0gyXVtPSF0pW0NAQEhdNU9bQ0gzXSkoW0NASF02W0NASF0oW0NIMl02KVtDQEBIXShbQ0gyXTcpT1tDSDNdKVtDQEBdNyhbT0hdKVtDQF0xKFtPSF0pW0NASF01W0NAXTMoW09IXSlbQ0BdKFtDQEBdMjQ4KShPOClbT0hd

>  <s_epik_cmdline>  (286) 
J2VwaWtfcHl0aG9uJywgJy1waHQnLCAnMi4wJywgJy1waCcsICc3LjAnLCAnLXRuJywgJzgnLCAnLW1hJywgJzIwMCcsICctaW1hZScsICc8aW5maWxlLm1hZT4nLCAnLW9tYWUnLCAnPG91dGZpbGUubWFlPic=

>  <r_lp_tautomer_probability>  (286) 
1

>  <r_epik_Ionization_Penalty>  (286) 
1.34203e-05

>  <r_epik_Ionization_Penalty_Charging>  (286) 
0

>  <r_epik_Ionization_Penalty_Neutral>  (286) 
1.34203e-05

>  <r_epik_State_Penalty>  (286) 
-0

>  <r_epik_Charging_Adjusted_Penalty>  (286) 
0

>  <i_epik_Tot_Q>  (286) 
0

>  <i_epik_Tot_abs_Q>  (286) 
0

>  <s_lp_Force_Field>  (286) 
OPLS3e

>  <r_lp_Energy>  (286) 
406.24

>  <b_lp_Chiralities_Consistent>  (286) 
1

>  <s_lp_Variant>  (286) 
101:0-1

>  <s_i_glide_gridfile>  (286) 
pfpi4k_grid

>  <i_i_glide_lignum>  (286) 
18

>  <i_i_glide_rotatable_bonds>  (286) 
11

>  <r_i_docking_score>  (286) 
-2.6263

>  <r_i_glide_ligand_efficiency>  (286) 
-0.0750372

>  <r_i_glide_ligand_efficiency_sa>  (286) 
-0.245452

>  <r_i_glide_ligand_efficiency_ln>  (286) 
-0.576531

>  <r_i_glide_gscore>  (286) 
-2.6263

>  <r_i_glide_lipo>  (286) 
-0.0969168

>  <r_i_glide_hbond>  (286) 
0

>  <r_i_glide_metal>  (286) 
-0

>  <r_i_glide_rewards>  (286) 
-1.01009

>  <r_i_glide_evdw>  (286) 
-14.7897

>  <r_i_glide_ecoul>  (286) 
-5.74613

>  <r_i_glide_erotb>  (286) 
0.0821116

>  <r_i_glide_esite>  (286) 
0

>  <r_i_glide_emodel>  (286) 
-31.6227

>  <r_i_glide_energy>  (286) 
-20.5358

>  <r_i_glide_einternal>  (286) 
1.33872

>  <r_i_glide_intrahb_reward>  (286) 
-1

>  <i_i_glide_confnum>  (286) 
3

>  <i_i_glide_posenum>  (286) 
32

>  <r_i_glide_eff_state_penalty>  (286) 
0

>  <ligand_id>  (286) 
101

>  <original_smiles>  (286) 
COC1CC2(O)C3(O)C4C(OC)C5(CO)CC67OC6(O)C4(O)C(C(O)CC(OC)C52C2CC12)C73O

>  <smiles>  (286) 
[H]OC([H])([H])C12C([H])([H])C34OC3(O[H])C3(O[H])C5([H])C([H])(O[H])C([H])([H])C([H])(OC([H])([H])[H])C16C1([H])C([H])([H])C1([H])C([H])(OC([H])([H])[H])C([H])([H])C6(O[H])C(O[H])(C3([H])C2([H])OC([H])([H])[H])C54O[H]

$$$$
102:0:0
     RDKit          3D

 56 61  0  0  1  0  0  0  0  0999 V2000
    7.6630   -6.2728    5.3709 C   0  0  0  0  0  0  0  0  0  0  0  0
    6.2726   -5.9026    4.8564 C   0  0  0  0  0  0  0  0  0  0  0  0
    5.3313   -5.8063    5.6370 O   0  0  0  0  0  0  0  0  0  0  0  0
    6.2454   -5.6949    3.5136 O   0  0  0  0  0  0  0  0  0  0  0  0
    4.9767   -5.5126    2.9394 C   0  0  2  0  0  0  0  0  0  0  0  0
    4.2961   -6.7245    2.7670 O   0  0  0  0  0  0  0  0  0  0  0  0
    3.1516   -6.9391    3.6205 C   0  0  2  0  0  0  0  0  0  0  0  0
    2.5286   -8.2895    3.1753 C   0  0  0  0  0  0  0  0  0  0  0  0
    1.4245   -8.1819    2.0671 C   0  0  0  0  0  0  0  0  0  0  0  0
    0.7056   -6.7951    2.0198 C   0  0  1  0  0  0  0  0  0  0  0  0
    0.0257   -6.7042    3.2692 O   0  0  0  0  0  0  0  0  0  0  0  0
    0.8046   -6.2091    4.2060 C   0  0  0  0  0  0  0  0  0  0  0  0
    0.5287   -6.0119    5.3877 O   0  0  0  0  0  0  0  0  0  0  0  0
    2.0704   -5.8767    3.5069 C   0  0  1  0  0  0  0  0  0  0  0  0
    2.0856   -4.5922    2.9512 O   0  0  0  0  0  0  0  0  0  0  0  0
    1.7795   -5.6900    2.0384 C   0  0  2  0  0  0  0  0  0  0  0  0
    2.6502   -5.6310    0.7865 C   0  0  1  0  0  0  0  0  0  0  0  0
    1.7681   -5.4634   -0.3149 O   0  0  0  0  0  0  0  0  0  0  0  0
    3.8161   -4.5862    0.7272 C   0  0  2  0  0  0  0  0  0  0  0  0
    5.1663   -4.8261    1.5147 C   0  0  2  0  0  0  0  0  0  0  0  0
    6.1201   -5.7681    0.7401 C   0  0  0  0  0  0  0  0  0  0  0  0
    5.6430   -3.3643    1.5803 C   0  0  0  0  0  0  0  0  0  0  0  0
    6.4121   -2.9273    0.5513 C   0  0  0  0  0  0  0  0  0  0  0  0
    5.7137   -2.0504   -0.4849 C   0  0  0  0  0  0  0  0  0  0  0  0
    4.1462   -2.2205   -0.5168 C   0  0  1  0  0  0  0  0  0  0  0  0
    3.6520   -2.6994   -1.9018 C   0  0  0  0  0  0  0  0  0  0  0  0
    3.5713   -3.0127    0.7274 C   0  0  1  0  0  0  0  0  0  0  0  0
    2.2266   -2.6347    0.9050 O   0  0  0  0  0  0  0  0  0  0  0  0
    4.4548   -2.4893    1.8625 C   0  0  1  0  0  0  0  0  0  0  0  0
    4.0286   -2.6525    3.1939 O   0  0  0  0  0  0  0  0  0  0  0  0
    8.3682   -5.5021    5.0842 H   0  0  0  0  0  0  0  0  0  0  0  0
    7.9894   -7.2392    4.9793 H   0  0  0  0  0  0  0  0  0  0  0  0
    7.6550   -6.3353    6.4591 H   0  0  0  0  0  0  0  0  0  0  0  0
    4.4195   -4.8878    3.6359 H   0  0  0  0  0  0  0  0  0  0  0  0
    3.4151   -7.0516    4.6712 H   0  0  0  0  0  0  0  0  0  0  0  0
    3.3249   -8.9681    2.8671 H   0  0  0  0  0  0  0  0  0  0  0  0
    2.0843   -8.7582    4.0610 H   0  0  0  0  0  0  0  0  0  0  0  0
    1.8695   -8.3974    1.0948 H   0  0  0  0  0  0  0  0  0  0  0  0
    0.6882   -8.9734    2.2355 H   0  0  0  0  0  0  0  0  0  0  0  0
    0.0367   -6.6849    1.1741 H   0  0  0  0  0  0  0  0  0  0  0  0
    3.0871   -6.6121    0.6242 H   0  0  0  0  0  0  0  0  0  0  0  0
    2.2728   -5.4616   -1.1141 H   0  0  0  0  0  0  0  0  0  0  0  0
    4.1459   -4.7624   -0.2969 H   0  0  0  0  0  0  0  0  0  0  0  0
    5.7323   -6.7810    0.7237 H   0  0  0  0  0  0  0  0  0  0  0  0
    7.1215   -5.8061    1.1680 H   0  0  0  0  0  0  0  0  0  0  0  0
    6.2315   -5.4702   -0.2920 H   0  0  0  0  0  0  0  0  0  0  0  0
    7.1672   -3.5606    0.1210 H   0  0  0  0  0  0  0  0  0  0  0  0
    5.9416   -1.0146   -0.2402 H   0  0  0  0  0  0  0  0  0  0  0  0
    6.1465   -2.2242   -1.4712 H   0  0  0  0  0  0  0  0  0  0  0  0
    3.7584   -1.2084   -0.4433 H   0  0  0  0  0  0  0  0  0  0  0  0
    4.1021   -3.6450   -2.2100 H   0  0  0  0  0  0  0  0  0  0  0  0
    3.9008   -1.9603   -2.6665 H   0  0  0  0  0  0  0  0  0  0  0  0
    2.5634   -2.8073   -1.9188 H   0  0  0  0  0  0  0  0  0  0  0  0
    1.9626   -1.9476    0.3061 H   0  0  0  0  0  0  0  0  0  0  0  0
    4.6779   -1.4196    1.7639 H   0  0  0  0  0  0  0  0  0  0  0  0
    3.4880   -3.4386    3.2104 H   0  0  0  0  0  0  0  0  0  0  0  0
  1  2  1  0
  1 31  1  0
  1 32  1  0
  1 33  1  0
  2  3  2  0
  2  4  1  0
  4  5  1  0
  5 20  1  0
  5  6  1  0
  5 34  1  1
  6  7  1  0
  7 14  1  0
  7  8  1  0
  7 35  1  1
  8  9  1  0
  8 36  1  0
  8 37  1  0
  9 10  1  0
  9 38  1  0
  9 39  1  0
 10 16  1  0
 10 11  1  0
 10 40  1  6
 11 12  1  0
 12 13  2  0
 12 14  1  0
 14 16  1  0
 14 15  1  1
 16 15  1  1
 16 17  1  0
 17 18  1  0
 17 19  1  0
 17 41  1  6
 18 42  1  0
 19 27  1  0
 19 20  1  0
 19 43  1  6
 20 21  1  6
 20 22  1  0
 21 44  1  0
 21 45  1  0
 21 46  1  0
 22 29  1  0
 22 23  2  0
 23 24  1  0
 23 47  1  0
 24 25  1  0
 24 48  1  0
 24 49  1  0
 25 26  1  0
 25 27  1  0
 25 50  1  1
 26 51  1  0
 26 52  1  0
 26 53  1  0
 27 28  1  1
 27 29  1  0
 28 54  1  0
 29 30  1  0
 29 55  1  6
 30 56  1  0
M  END
>  <i_m_ct_stereo_status>  (287) 
1

>  <s_m_source_file>  (287) 
/var/tmp/pbs.5076255.sched01/tmp_gsyjirk/108c9vsds16.sdf

>  <i_m_source_file_index>  (287) 
19

>  <i_lp_mmshare_version>  (287) 
48012

>  <i_f3d_flags>  (287) 
0

>  <s_epik_input>  (287) 
Tz1DMU9bQ0BASF0oW0NAXTIoW0NAQF0xMzQpTzQpW0NIMl1bQ0gyXVtDQEhdM09bQ0BASF0oT0MoPU8pW0NIM10pW0NAQF01KFtDSDNdKVtDQEBIXShbQ0BASF0yW09IXSlbQ0BdNihbT0hdKVtDQEhdKFtDSDNdKVtDSDJdW0NIXT1DNVtDQEBIXTZbT0hd

>  <s_epik_cmdline>  (287) 
J2VwaWtfcHl0aG9uJywgJy1waHQnLCAnMi4wJywgJy1waCcsICc3LjAnLCAnLXRuJywgJzgnLCAnLW1hJywgJzIwMCcsICctaW1hZScsICc8aW5maWxlLm1hZT4nLCAnLW9tYWUnLCAnPG91dGZpbGUubWFlPic=

>  <r_lp_tautomer_probability>  (287) 
1

>  <r_epik_Ionization_Penalty>  (287) 
8.38075e-07

>  <r_epik_Ionization_Penalty_Charging>  (287) 
0

>  <r_epik_Ionization_Penalty_Neutral>  (287) 
8.38075e-07

>  <r_epik_State_Penalty>  (287) 
-0

>  <r_epik_Charging_Adjusted_Penalty>  (287) 
0

>  <i_epik_Tot_Q>  (287) 
0

>  <i_epik_Tot_abs_Q>  (287) 
0

>  <s_epik_Chemistry_Notes>  (287) 
This compound has an ester and may undergo hydrolysis at high or low pH. This compound contains an acetal/aminal-like group ( X-CH(R)-Y where X, Y are N, S, or O) that may be acid/base labile, releasing an aldehyde.

>  <s_lp_Force_Field>  (287) 
OPLS3e

>  <r_lp_Energy>  (287) 
127.338

>  <b_lp_Chiralities_Consistent>  (287) 
1

>  <s_lp_Variant>  (287) 
102:0-1

>  <s_i_glide_gridfile>  (287) 
pfpi4k_grid

>  <i_i_glide_lignum>  (287) 
19

>  <i_i_glide_rotatable_bonds>  (287) 
5

>  <r_i_docking_score>  (287) 
-3.66792

>  <r_i_glide_ligand_efficiency>  (287) 
-0.122264

>  <r_i_glide_ligand_efficiency_sa>  (287) 
-0.379902

>  <r_i_glide_ligand_efficiency_ln>  (287) 
-0.83339

>  <r_i_glide_gscore>  (287) 
-3.66792

>  <r_i_glide_lipo>  (287) 
-0.303401

>  <r_i_glide_hbond>  (287) 
-0.0477588

>  <r_i_glide_metal>  (287) 
-0

>  <r_i_glide_rewards>  (287) 
-1.03005

>  <r_i_glide_evdw>  (287) 
-24.6706

>  <r_i_glide_ecoul>  (287) 
-7.42699

>  <r_i_glide_erotb>  (287) 
0.0777122

>  <r_i_glide_esite>  (287) 
-0.0168421

>  <r_i_glide_emodel>  (287) 
-44.557

>  <r_i_glide_energy>  (287) 
-32.0976

>  <r_i_glide_einternal>  (287) 
1.45413

>  <r_i_glide_intrahb_reward>  (287) 
-0.5

>  <i_i_glide_confnum>  (287) 
3

>  <i_i_glide_posenum>  (287) 
5

>  <r_i_glide_eff_state_penalty>  (287) 
0

>  <ligand_id>  (287) 
102

>  <original_smiles>  (287) 
CC(=O)OC1OC2CCC3OC(=O)C24OC34C(O)C2C1(C)C1=CCC(C)C2(O)C1O

>  <smiles>  (287) 
[H]OC1([H])C2=C([H])C([H])([H])C([H])(C([H])([H])[H])C1(O[H])C1([H])C([H])(O[H])C34OC35C(=O)OC4([H])C([H])([H])C([H])([H])C5([H])OC([H])(OC(=O)C([H])([H])[H])C21C([H])([H])[H]

$$$$
102:0:1
     RDKit          3D

 56 61  0  0  1  0  0  0  0  0999 V2000
    8.1689   -7.0996    4.1007 C   0  0  0  0  0  0  0  0  0  0  0  0
    6.8215   -7.0474    3.4039 C   0  0  0  0  0  0  0  0  0  0  0  0
    6.4384   -8.0310    2.7686 O   0  0  0  0  0  0  0  0  0  0  0  0
    6.1878   -5.8271    3.5612 O   0  0  0  0  0  0  0  0  0  0  0  0
    4.9679   -5.5605    2.8894 C   0  0  2  0  0  0  0  0  0  0  0  0
    4.1865   -6.6961    2.6894 O   0  0  0  0  0  0  0  0  0  0  0  0
    3.1436   -6.9219    3.6264 C   0  0  2  0  0  0  0  0  0  0  0  0
    2.5272   -8.2912    3.1858 C   0  0  0  0  0  0  0  0  0  0  0  0
    1.4257   -8.1902    2.0710 C   0  0  0  0  0  0  0  0  0  0  0  0
    0.6924   -6.8052    2.0243 C   0  0  1  0  0  0  0  0  0  0  0  0
   -0.0191   -6.7079    3.2559 O   0  0  0  0  0  0  0  0  0  0  0  0
    0.7575   -6.2108    4.2030 C   0  0  0  0  0  0  0  0  0  0  0  0
    0.4773   -6.0216    5.3837 O   0  0  0  0  0  0  0  0  0  0  0  0
    2.0426   -5.8689    3.5308 C   0  0  1  0  0  0  0  0  0  0  0  0
    2.0044   -4.5977    2.9483 O   0  0  0  0  0  0  0  0  0  0  0  0
    1.7516   -5.6890    2.0400 C   0  0  2  0  0  0  0  0  0  0  0  0
    2.6438   -5.6118    0.7824 C   0  0  1  0  0  0  0  0  0  0  0  0
    1.7699   -5.4234   -0.3152 O   0  0  0  0  0  0  0  0  0  0  0  0
    3.8293   -4.5747    0.7139 C   0  0  2  0  0  0  0  0  0  0  0  0
    5.1842   -4.8344    1.4923 C   0  0  2  0  0  0  0  0  0  0  0  0
    6.1144   -5.7279    0.6448 C   0  0  0  0  0  0  0  0  0  0  0  0
    5.6532   -3.3643    1.5611 C   0  0  0  0  0  0  0  0  0  0  0  0
    6.4135   -2.8995    0.5602 C   0  0  0  0  0  0  0  0  0  0  0  0
    5.7207   -2.0190   -0.4876 C   0  0  0  0  0  0  0  0  0  0  0  0
    4.1515   -2.2116   -0.5230 C   0  0  1  0  0  0  0  0  0  0  0  0
    3.6574   -2.6834   -1.9058 C   0  0  0  0  0  0  0  0  0  0  0  0
    3.5649   -3.0044    0.7254 C   0  0  1  0  0  0  0  0  0  0  0  0
    2.2198   -2.6079    0.9015 O   0  0  0  0  0  0  0  0  0  0  0  0
    4.4522   -2.4963    1.8657 C   0  0  1  0  0  0  0  0  0  0  0  0
    3.9736   -2.6686    3.1778 O   0  0  0  0  0  0  0  0  0  0  0  0
    8.0602   -6.9274    5.1734 H   0  0  0  0  0  0  0  0  0  0  0  0
    8.8604   -6.3792    3.6568 H   0  0  0  0  0  0  0  0  0  0  0  0
    8.5779   -8.0977    3.9438 H   0  0  0  0  0  0  0  0  0  0  0  0
    4.4491   -4.8949    3.5781 H   0  0  0  0  0  0  0  0  0  0  0  0
    3.5388   -6.9716    4.6474 H   0  0  0  0  0  0  0  0  0  0  0  0
    3.3229   -8.9582    2.8552 H   0  0  0  0  0  0  0  0  0  0  0  0
    2.0896   -8.7837    4.0564 H   0  0  0  0  0  0  0  0  0  0  0  0
    1.8681   -8.3952    1.0959 H   0  0  0  0  0  0  0  0  0  0  0  0
    0.6929   -8.9862    2.2173 H   0  0  0  0  0  0  0  0  0  0  0  0
    0.0266   -6.7097    1.1643 H   0  0  0  0  0  0  0  0  0  0  0  0
    3.0733   -6.5985    0.5951 H   0  0  0  0  0  0  0  0  0  0  0  0
    2.2968   -5.4589   -1.1136 H   0  0  0  0  0  0  0  0  0  0  0  0
    4.1370   -4.7498   -0.3163 H   0  0  0  0  0  0  0  0  0  0  0  0
    5.7178   -6.7401    0.5889 H   0  0  0  0  0  0  0  0  0  0  0  0
    7.1336   -5.7577    1.0342 H   0  0  0  0  0  0  0  0  0  0  0  0
    6.2030   -5.3854   -0.3809 H   0  0  0  0  0  0  0  0  0  0  0  0
    7.1784   -3.5261    0.1214 H   0  0  0  0  0  0  0  0  0  0  0  0
    5.9456   -0.9836   -0.2466 H   0  0  0  0  0  0  0  0  0  0  0  0
    6.1502   -2.2071   -1.4658 H   0  0  0  0  0  0  0  0  0  0  0  0
    3.7536   -1.1997   -0.4328 H   0  0  0  0  0  0  0  0  0  0  0  0
    4.1070   -3.6260   -2.2131 H   0  0  0  0  0  0  0  0  0  0  0  0
    3.9090   -1.9438   -2.6648 H   0  0  0  0  0  0  0  0  0  0  0  0
    2.5715   -2.7967   -1.9227 H   0  0  0  0  0  0  0  0  0  0  0  0
    1.9768   -1.9601    0.2515 H   0  0  0  0  0  0  0  0  0  0  0  0
    4.6697   -1.4254    1.7801 H   0  0  0  0  0  0  0  0  0  0  0  0
    3.1475   -2.2075    3.2319 H   0  0  0  0  0  0  0  0  0  0  0  0
  1  2  1  0
  1 31  1  0
  1 32  1  0
  1 33  1  0
  2  3  2  0
  2  4  1  0
  4  5  1  0
  5 20  1  0
  5  6  1  0
  5 34  1  1
  6  7  1  0
  7 14  1  0
  7  8  1  0
  7 35  1  1
  8  9  1  0
  8 36  1  0
  8 37  1  0
  9 10  1  0
  9 38  1  0
  9 39  1  0
 10 16  1  0
 10 11  1  0
 10 40  1  6
 11 12  1  0
 12 13  2  0
 12 14  1  0
 14 16  1  0
 14 15  1  1
 16 15  1  1
 16 17  1  0
 17 18  1  0
 17 19  1  0
 17 41  1  6
 18 42  1  0
 19 27  1  0
 19 20  1  0
 19 43  1  6
 20 21  1  6
 20 22  1  0
 21 44  1  0
 21 45  1  0
 21 46  1  0
 22 29  1  0
 22 23  2  0
 23 24  1  0
 23 47  1  0
 24 25  1  0
 24 48  1  0
 24 49  1  0
 25 26  1  0
 25 27  1  0
 25 50  1  1
 26 51  1  0
 26 52  1  0
 26 53  1  0
 27 28  1  1
 27 29  1  0
 28 54  1  0
 29 30  1  0
 29 55  1  6
 30 56  1  0
M  END
>  <i_m_ct_stereo_status>  (288) 
1

>  <s_m_source_file>  (288) 
/var/tmp/pbs.5076255.sched01/tmp_gsyjirk/108c9vsds16.sdf

>  <i_m_source_file_index>  (288) 
19

>  <i_lp_mmshare_version>  (288) 
48012

>  <i_f3d_flags>  (288) 
0

>  <s_epik_input>  (288) 
Tz1DMU9bQ0BASF0oW0NAXTIoW0NAQF0xMzQpTzQpW0NIMl1bQ0gyXVtDQEhdM09bQ0BASF0oT0MoPU8pW0NIM10pW0NAQF01KFtDSDNdKVtDQEBIXShbQ0BASF0yW09IXSlbQ0BdNihbT0hdKVtDQEhdKFtDSDNdKVtDSDJdW0NIXT1DNVtDQEBIXTZbT0hd

>  <s_epik_cmdline>  (288) 
J2VwaWtfcHl0aG9uJywgJy1waHQnLCAnMi4wJywgJy1waCcsICc3LjAnLCAnLXRuJywgJzgnLCAnLW1hJywgJzIwMCcsICctaW1hZScsICc8aW5maWxlLm1hZT4nLCAnLW9tYWUnLCAnPG91dGZpbGUubWFlPic=

>  <r_lp_tautomer_probability>  (288) 
1

>  <r_epik_Ionization_Penalty>  (288) 
8.38075e-07

>  <r_epik_Ionization_Penalty_Charging>  (288) 
0

>  <r_epik_Ionization_Penalty_Neutral>  (288) 
8.38075e-07

>  <r_epik_State_Penalty>  (288) 
-0

>  <r_epik_Charging_Adjusted_Penalty>  (288) 
0

>  <i_epik_Tot_Q>  (288) 
0

>  <i_epik_Tot_abs_Q>  (288) 
0

>  <s_epik_Chemistry_Notes>  (288) 
This compound has an ester and may undergo hydrolysis at high or low pH. This compound contains an acetal/aminal-like group ( X-CH(R)-Y where X, Y are N, S, or O) that may be acid/base labile, releasing an aldehyde.

>  <s_lp_Force_Field>  (288) 
OPLS3e

>  <r_lp_Energy>  (288) 
127.338

>  <b_lp_Chiralities_Consistent>  (288) 
1

>  <s_lp_Variant>  (288) 
102:0-1

>  <s_i_glide_gridfile>  (288) 
pfpi4k_grid

>  <i_i_glide_lignum>  (288) 
19

>  <i_i_glide_rotatable_bonds>  (288) 
5

>  <r_i_docking_score>  (288) 
-3.28642

>  <r_i_glide_ligand_efficiency>  (288) 
-0.109547

>  <r_i_glide_ligand_efficiency_sa>  (288) 
-0.340389

>  <r_i_glide_ligand_efficiency_ln>  (288) 
-0.746711

>  <r_i_glide_gscore>  (288) 
-3.28642

>  <r_i_glide_lipo>  (288) 
-0.300213

>  <r_i_glide_hbond>  (288) 
-0.0593244

>  <r_i_glide_metal>  (288) 
-0

>  <r_i_glide_rewards>  (288) 
-0.53005

>  <r_i_glide_evdw>  (288) 
-25.2344

>  <r_i_glide_ecoul>  (288) 
-7.96534

>  <r_i_glide_erotb>  (288) 
0.0777122

>  <r_i_glide_esite>  (288) 
-0.0180274

>  <r_i_glide_emodel>  (288) 
-36.7809

>  <r_i_glide_energy>  (288) 
-33.1997

>  <r_i_glide_einternal>  (288) 
7.54478

>  <r_i_glide_intrahb_reward>  (288) 
-0

>  <i_i_glide_confnum>  (288) 
3

>  <i_i_glide_posenum>  (288) 
20

>  <r_i_glide_eff_state_penalty>  (288) 
0

>  <ligand_id>  (288) 
102

>  <original_smiles>  (288) 
CC(=O)OC1OC2CCC3OC(=O)C24OC34C(O)C2C1(C)C1=CCC(C)C2(O)C1O

>  <smiles>  (288) 
[H]OC1([H])C2=C([H])C([H])([H])C([H])(C([H])([H])[H])C1(O[H])C1([H])C([H])(O[H])C34OC35C(=O)OC4([H])C([H])([H])C([H])([H])C5([H])OC([H])(OC(=O)C([H])([H])[H])C21C([H])([H])[H]

$$$$
102:0:2
     RDKit          3D

 56 61  0  0  1  0  0  0  0  0999 V2000
    7.6592   -6.2583    5.3917 C   0  0  0  0  0  0  0  0  0  0  0  0
    6.2632   -5.9230    4.8821 C   0  0  0  0  0  0  0  0  0  0  0  0
    5.3124   -5.8631    5.6626 O   0  0  0  0  0  0  0  0  0  0  0  0
    6.2343   -5.6985    3.5396 O   0  0  0  0  0  0  0  0  0  0  0  0
    4.9727   -5.4904    2.9487 C   0  0  2  0  0  0  0  0  0  0  0  0
    4.2958   -6.7054    2.7720 O   0  0  0  0  0  0  0  0  0  0  0  0
    3.1649   -6.9385    3.6192 C   0  0  2  0  0  0  0  0  0  0  0  0
    2.5410   -8.3005    3.1750 C   0  0  0  0  0  0  0  0  0  0  0  0
    1.4283   -8.1950    2.0735 C   0  0  0  0  0  0  0  0  0  0  0  0
    0.7014   -6.8073    2.0407 C   0  0  1  0  0  0  0  0  0  0  0  0
   -0.0027   -6.7080    3.2768 O   0  0  0  0  0  0  0  0  0  0  0  0
    0.7856   -6.2137    4.2131 C   0  0  0  0  0  0  0  0  0  0  0  0
    0.5193   -6.0241    5.3975 O   0  0  0  0  0  0  0  0  0  0  0  0
    2.0688   -5.8768    3.5266 C   0  0  1  0  0  0  0  0  0  0  0  0
    2.0232   -4.6047    2.9485 O   0  0  0  0  0  0  0  0  0  0  0  0
    1.7662   -5.6962    2.0464 C   0  0  2  0  0  0  0  0  0  0  0  0
    2.6552   -5.6242    0.7945 C   0  0  1  0  0  0  0  0  0  0  0  0
    1.7912   -5.4414   -0.3199 O   0  0  0  0  0  0  0  0  0  0  0  0
    3.8336   -4.5802    0.7330 C   0  0  2  0  0  0  0  0  0  0  0  0
    5.1764   -4.8263    1.5286 C   0  0  2  0  0  0  0  0  0  0  0  0
    6.1252   -5.7685    0.7329 C   0  0  0  0  0  0  0  0  0  0  0  0
    5.6469   -3.3592    1.5691 C   0  0  0  0  0  0  0  0  0  0  0  0
    6.4111   -2.9074    0.5553 C   0  0  0  0  0  0  0  0  0  0  0  0
    5.7155   -2.0167   -0.4784 C   0  0  0  0  0  0  0  0  0  0  0  0
    4.1508   -2.2131   -0.5084 C   0  0  1  0  0  0  0  0  0  0  0  0
    3.6474   -2.6806   -1.8884 C   0  0  0  0  0  0  0  0  0  0  0  0
    3.5702   -3.0105    0.7340 C   0  0  1  0  0  0  0  0  0  0  0  0
    2.2235   -2.6344    0.8885 O   0  0  0  0  0  0  0  0  0  0  0  0
    4.4476   -2.4947    1.8789 C   0  0  1  0  0  0  0  0  0  0  0  0
    3.9756   -2.6599    3.1934 O   0  0  0  0  0  0  0  0  0  0  0  0
    8.3549   -5.4715    5.1033 H   0  0  0  0  0  0  0  0  0  0  0  0
    8.0113   -7.2131    4.9970 H   0  0  0  0  0  0  0  0  0  0  0  0
    7.6540   -6.3282    6.4788 H   0  0  0  0  0  0  0  0  0  0  0  0
    4.3865   -4.8647    3.6189 H   0  0  0  0  0  0  0  0  0  0  0  0
    3.4596   -7.0528    4.6606 H   0  0  0  0  0  0  0  0  0  0  0  0
    3.3301   -8.9824    2.8544 H   0  0  0  0  0  0  0  0  0  0  0  0
    2.1025   -8.7747    4.0601 H   0  0  0  0  0  0  0  0  0  0  0  0
    1.8720   -8.3994    1.0981 H   0  0  0  0  0  0  0  0  0  0  0  0
    0.6949   -8.9874    2.2326 H   0  0  0  0  0  0  0  0  0  0  0  0
    0.0280   -6.7059    1.1862 H   0  0  0  0  0  0  0  0  0  0  0  0
    3.0985   -6.6033    0.6307 H   0  0  0  0  0  0  0  0  0  0  0  0
    2.3124   -5.4720   -1.1183 H   0  0  0  0  0  0  0  0  0  0  0  0
    4.1503   -4.7489   -0.2911 H   0  0  0  0  0  0  0  0  0  0  0  0
    5.7393   -6.7863    0.7145 H   0  0  0  0  0  0  0  0  0  0  0  0
    7.1270   -5.8117    1.1645 H   0  0  0  0  0  0  0  0  0  0  0  0
    6.2338   -5.4686   -0.3091 H   0  0  0  0  0  0  0  0  0  0  0  0
    7.1704   -3.5390    0.1193 H   0  0  0  0  0  0  0  0  0  0  0  0
    5.9426   -0.9810   -0.2357 H   0  0  0  0  0  0  0  0  0  0  0  0
    6.1419   -2.2042   -1.4613 H   0  0  0  0  0  0  0  0  0  0  0  0
    3.7498   -1.1987   -0.4175 H   0  0  0  0  0  0  0  0  0  0  0  0
    4.1004   -3.6226   -2.2012 H   0  0  0  0  0  0  0  0  0  0  0  0
    3.8958   -1.9385   -2.6496 H   0  0  0  0  0  0  0  0  0  0  0  0
    2.5623   -2.7996   -1.9036 H   0  0  0  0  0  0  0  0  0  0  0  0
    1.9880   -1.9317    0.2769 H   0  0  0  0  0  0  0  0  0  0  0  0
    4.6675   -1.4254    1.7942 H   0  0  0  0  0  0  0  0  0  0  0  0
    4.5327   -2.1596    3.7688 H   0  0  0  0  0  0  0  0  0  0  0  0
  1  2  1  0
  1 31  1  0
  1 32  1  0
  1 33  1  0
  2  3  2  0
  2  4  1  0
  4  5  1  0
  5 20  1  0
  5  6  1  0
  5 34  1  1
  6  7  1  0
  7 14  1  0
  7  8  1  0
  7 35  1  1
  8  9  1  0
  8 36  1  0
  8 37  1  0
  9 10  1  0
  9 38  1  0
  9 39  1  0
 10 16  1  0
 10 11  1  0
 10 40  1  6
 11 12  1  0
 12 13  2  0
 12 14  1  0
 14 16  1  0
 14 15  1  1
 16 15  1  1
 16 17  1  0
 17 18  1  0
 17 19  1  0
 17 41  1  6
 18 42  1  0
 19 27  1  0
 19 20  1  0
 19 43  1  6
 20 21  1  6
 20 22  1  0
 21 44  1  0
 21 45  1  0
 21 46  1  0
 22 29  1  0
 22 23  2  0
 23 24  1  0
 23 47  1  0
 24 25  1  0
 24 48  1  0
 24 49  1  0
 25 26  1  0
 25 27  1  0
 25 50  1  1
 26 51  1  0
 26 52  1  0
 26 53  1  0
 27 28  1  1
 27 29  1  0
 28 54  1  0
 29 30  1  0
 29 55  1  6
 30 56  1  0
M  END
>  <i_m_ct_stereo_status>  (289) 
1

>  <s_m_source_file>  (289) 
/var/tmp/pbs.5076255.sched01/tmp_gsyjirk/108c9vsds16.sdf

>  <i_m_source_file_index>  (289) 
19

>  <i_lp_mmshare_version>  (289) 
48012

>  <i_f3d_flags>  (289) 
0

>  <s_epik_input>  (289) 
Tz1DMU9bQ0BASF0oW0NAXTIoW0NAQF0xMzQpTzQpW0NIMl1bQ0gyXVtDQEhdM09bQ0BASF0oT0MoPU8pW0NIM10pW0NAQF01KFtDSDNdKVtDQEBIXShbQ0BASF0yW09IXSlbQ0BdNihbT0hdKVtDQEhdKFtDSDNdKVtDSDJdW0NIXT1DNVtDQEBIXTZbT0hd

>  <s_epik_cmdline>  (289) 
J2VwaWtfcHl0aG9uJywgJy1waHQnLCAnMi4wJywgJy1waCcsICc3LjAnLCAnLXRuJywgJzgnLCAnLW1hJywgJzIwMCcsICctaW1hZScsICc8aW5maWxlLm1hZT4nLCAnLW9tYWUnLCAnPG91dGZpbGUubWFlPic=

>  <r_lp_tautomer_probability>  (289) 
1

>  <r_epik_Ionization_Penalty>  (289) 
8.38075e-07

>  <r_epik_Ionization_Penalty_Charging>  (289) 
0

>  <r_epik_Ionization_Penalty_Neutral>  (289) 
8.38075e-07

>  <r_epik_State_Penalty>  (289) 
-0

>  <r_epik_Charging_Adjusted_Penalty>  (289) 
0

>  <i_epik_Tot_Q>  (289) 
0

>  <i_epik_Tot_abs_Q>  (289) 
0

>  <s_epik_Chemistry_Notes>  (289) 
This compound has an ester and may undergo hydrolysis at high or low pH. This compound contains an acetal/aminal-like group ( X-CH(R)-Y where X, Y are N, S, or O) that may be acid/base labile, releasing an aldehyde.

>  <s_lp_Force_Field>  (289) 
OPLS3e

>  <r_lp_Energy>  (289) 
127.338

>  <b_lp_Chiralities_Consistent>  (289) 
1

>  <s_lp_Variant>  (289) 
102:0-1

>  <s_i_glide_gridfile>  (289) 
pfpi4k_grid

>  <i_i_glide_lignum>  (289) 
19

>  <i_i_glide_rotatable_bonds>  (289) 
5

>  <r_i_docking_score>  (289) 
-3.10423

>  <r_i_glide_ligand_efficiency>  (289) 
-0.103474

>  <r_i_glide_ligand_efficiency_sa>  (289) 
-0.321518

>  <r_i_glide_ligand_efficiency_ln>  (289) 
-0.705314

>  <r_i_glide_gscore>  (289) 
-3.10423

>  <r_i_glide_lipo>  (289) 
-0.304674

>  <r_i_glide_hbond>  (289) 
-0.0523934

>  <r_i_glide_metal>  (289) 
-0

>  <r_i_glide_rewards>  (289) 
-0.529987

>  <r_i_glide_evdw>  (289) 
-24.6282

>  <r_i_glide_ecoul>  (289) 
-6.97563

>  <r_i_glide_erotb>  (289) 
0.0777122

>  <r_i_glide_esite>  (289) 
-0.0171294

>  <r_i_glide_emodel>  (289) 
-37.6965

>  <r_i_glide_energy>  (289) 
-31.6038

>  <r_i_glide_einternal>  (289) 
1.794

>  <r_i_glide_intrahb_reward>  (289) 
-0

>  <i_i_glide_confnum>  (289) 
1

>  <i_i_glide_posenum>  (289) 
27

>  <r_i_glide_eff_state_penalty>  (289) 
0

>  <ligand_id>  (289) 
102

>  <original_smiles>  (289) 
CC(=O)OC1OC2CCC3OC(=O)C24OC34C(O)C2C1(C)C1=CCC(C)C2(O)C1O

>  <smiles>  (289) 
[H]OC1([H])C2=C([H])C([H])([H])C([H])(C([H])([H])[H])C1(O[H])C1([H])C([H])(O[H])C34OC35C(=O)OC4([H])C([H])([H])C([H])([H])C5([H])OC([H])(OC(=O)C([H])([H])[H])C21C([H])([H])[H]

$$$$
104:0:0
     RDKit          3D

 46 51  0  0  1  0  0  0  0  0999 V2000
    3.6182    0.4762   -4.6482 C   0  0  0  0  0  0  0  0  0  0  0  0
    3.7051   -0.6155   -3.6021 C   0  0  0  0  0  0  0  0  0  0  0  0
    3.0473   -0.6997   -2.5232 N   0  0  0  0  0  0  0  0  0  0  0  0
    3.6408   -1.7978   -1.7928 C   0  0  1  0  0  0  0  0  0  0  0  0
    2.7157   -2.7079   -0.9469 C   0  0  0  0  0  0  0  0  0  0  0  0
    3.5386   -3.9205   -0.4574 C   0  0  0  0  0  0  0  0  0  0  0  0
    5.0184   -3.9914   -1.0002 C   0  0  1  0  0  0  0  0  0  0  0  0
    5.0267   -3.8302   -2.5494 C   0  0  0  0  0  0  0  0  0  0  0  0
    4.0756   -2.6917   -2.9920 C   0  0  1  0  0  0  0  0  0  0  0  0
    2.8970   -3.3506   -3.7877 C   0  0  0  0  0  0  0  0  0  0  0  0
    4.5136   -1.6842   -3.8933 O   0  0  0  0  0  0  0  0  0  0  0  0
    6.0994   -3.0306   -0.3481 C   0  0  2  0  0  0  0  0  0  0  0  0
    7.4326   -3.7821   -0.0974 C   0  0  0  0  0  0  0  0  0  0  0  0
    7.2614   -4.8836    0.9959 C   0  0  0  0  0  0  0  0  0  0  0  0
    6.2411   -4.5566    2.0616 C   0  0  0  0  0  0  0  0  0  0  0  0
    5.9281   -5.2336    3.1451 N   0  0  0  0  0  0  0  0  0  0  0  0
    5.0047   -4.4170    3.7823 N   0  0  0  0  0  0  0  0  0  0  0  0
    4.7896   -3.3240    3.1045 N   0  0  0  0  0  0  0  0  0  0  0  0
    5.5389   -3.4197    1.9860 N   0  0  0  0  0  0  0  0  0  0  0  0
    5.7325   -2.3952    1.0009 C   0  0  2  0  0  0  0  0  0  0  0  0
    4.6756   -1.3270    0.6772 C   0  0  0  0  0  0  0  0  0  0  0  0
    4.7853   -1.1584   -0.8804 C   0  0  1  0  0  0  0  0  0  0  0  0
    6.1804   -1.7363   -1.1423 C   0  0  0  0  0  0  0  0  0  0  0  0
    2.9499    1.2679   -4.3259 H   0  0  0  0  0  0  0  0  0  0  0  0
    3.2787    0.0781   -5.6030 H   0  0  0  0  0  0  0  0  0  0  0  0
    4.5828    0.9447   -4.7762 H   0  0  0  0  0  0  0  0  0  0  0  0
    2.2507   -2.2521   -0.0804 H   0  0  0  0  0  0  0  0  0  0  0  0
    1.8534   -3.0369   -1.5217 H   0  0  0  0  0  0  0  0  0  0  0  0
    3.4850   -3.9796    0.6266 H   0  0  0  0  0  0  0  0  0  0  0  0
    2.9932   -4.8085   -0.7537 H   0  0  0  0  0  0  0  0  0  0  0  0
    5.3227   -5.0121   -0.7936 H   0  0  0  0  0  0  0  0  0  0  0  0
    6.0315   -3.7325   -2.9614 H   0  0  0  0  0  0  0  0  0  0  0  0
    4.6746   -4.7588   -2.9804 H   0  0  0  0  0  0  0  0  0  0  0  0
    2.4346   -4.2241   -3.3107 H   0  0  0  0  0  0  0  0  0  0  0  0
    3.3268   -3.6863   -4.7223 H   0  0  0  0  0  0  0  0  0  0  0  0
    2.0679   -2.6670   -4.0253 H   0  0  0  0  0  0  0  0  0  0  0  0
    7.8857   -4.1649   -1.0120 H   0  0  0  0  0  0  0  0  0  0  0  0
    8.1612   -3.0585    0.2695 H   0  0  0  0  0  0  0  0  0  0  0  0
    6.9374   -5.8111    0.5301 H   0  0  0  0  0  0  0  0  0  0  0  0
    8.2167   -5.0840    1.4819 H   0  0  0  0  0  0  0  0  0  0  0  0
    6.5922   -1.8244    1.3606 H   0  0  0  0  0  0  0  0  0  0  0  0
    3.6947   -1.5061    1.1089 H   0  0  0  0  0  0  0  0  0  0  0  0
    4.9903   -0.3939    1.1430 H   0  0  0  0  0  0  0  0  0  0  0  0
    4.8234   -0.0934   -1.0801 H   0  0  0  0  0  0  0  0  0  0  0  0
    6.9214   -1.0963   -0.6790 H   0  0  0  0  0  0  0  0  0  0  0  0
    6.4635   -1.8272   -2.1858 H   0  0  0  0  0  0  0  0  0  0  0  0
  1  2  1  0
  1 24  1  0
  1 25  1  0
  1 26  1  0
  2 11  1  0
  2  3  2  0
  4  3  1  6
  4  9  1  0
  4 22  1  0
  4  5  1  0
  5  6  1  0
  5 27  1  0
  5 28  1  0
  6  7  1  0
  6 29  1  0
  6 30  1  0
  7  8  1  0
  7 12  1  0
  7 31  1  6
  8  9  1  0
  8 32  1  0
  8 33  1  0
  9 10  1  6
  9 11  1  0
 10 34  1  0
 10 35  1  0
 10 36  1  0
 12 20  1  0
 12 23  1  0
 12 13  1  1
 13 14  1  0
 13 37  1  0
 13 38  1  0
 14 15  1  0
 14 39  1  0
 14 40  1  0
 15 19  1  0
 15 16  2  0
 16 17  1  0
 17 18  2  0
 18 19  1  0
 19 20  1  0
 20 21  1  0
 20 41  1  1
 21 22  1  0
 21 42  1  0
 21 43  1  0
 22 23  1  0
 22 44  1  1
 23 45  1  0
 23 46  1  0
M  END
>  <i_m_ct_stereo_status>  (290) 
1

>  <s_m_source_file>  (290) 
/var/tmp/pbs.5076255.sched01/tmp_gsyjirk/108c9vsds16.sdf

>  <i_m_source_file_index>  (290) 
21

>  <i_lp_mmshare_version>  (290) 
48012

>  <i_f3d_flags>  (290) 
0

>  <s_epik_input>  (290) 
W0NIM11DKD1OMSlPW0NAQF0oW0NAQF0xMjMpKFtDSDNdKVtDSDJdW0NASF0oW0NIMl1bQ0gyXTIpW0NAQF00NVtDQEBIXShbQ0gyXVtDQEhdM1tDSDJdNSluNmMoW0NIMl1bQ0gyXTQpbm5uNg==

>  <s_epik_cmdline>  (290) 
J2VwaWtfcHl0aG9uJywgJy1waHQnLCAnMi4wJywgJy1waCcsICc3LjAnLCAnLXRuJywgJzgnLCAnLW1hJywgJzIwMCcsICctaW1hZScsICc8aW5maWxlLm1hZT4nLCAnLW9tYWUnLCAnPG91dGZpbGUubWFlPic=

>  <r_lp_tautomer_probability>  (290) 
0.999601

>  <r_epik_Ionization_Penalty>  (290) 
0.0133753

>  <r_epik_Ionization_Penalty_Charging>  (290) 
0

>  <r_epik_Ionization_Penalty_Neutral>  (290) 
0.0133753

>  <r_epik_State_Penalty>  (290) 
0.0104059

>  <r_epik_Charging_Adjusted_Penalty>  (290) 
0.0104059

>  <i_epik_Tot_Q>  (290) 
0

>  <i_epik_Tot_abs_Q>  (290) 
0

>  <s_epik_Chemistry_Notes>  (290) 
This compound has an imine and may undergo hydrolysis.

>  <s_lp_Force_Field>  (290) 
OPLS3e

>  <r_lp_Energy>  (290) 
81.0669

>  <b_lp_Chiralities_Consistent>  (290) 
1

>  <s_lp_Variant>  (290) 
104:0-1

>  <s_i_glide_gridfile>  (290) 
pfpi4k_grid

>  <i_i_glide_lignum>  (290) 
21

>  <i_i_glide_rotatable_bonds>  (290) 
0

>  <r_i_docking_score>  (290) 
-3.55347

>  <r_i_glide_ligand_efficiency>  (290) 
-0.154499

>  <r_i_glide_ligand_efficiency_sa>  (290) 
-0.439374

>  <r_i_glide_ligand_efficiency_ln>  (290) 
-0.859262

>  <r_i_glide_gscore>  (290) 
-3.55347

>  <r_i_glide_lipo>  (290) 
-0.751343

>  <r_i_glide_hbond>  (290) 
-0.0406987

>  <r_i_glide_metal>  (290) 
-0

>  <r_i_glide_rewards>  (290) 
-1.72278

>  <r_i_glide_evdw>  (290) 
-19.749

>  <r_i_glide_ecoul>  (290) 
-0.341328

>  <r_i_glide_erotb>  (290) 
0

>  <r_i_glide_esite>  (290) 
0

>  <r_i_glide_emodel>  (290) 
-25.0636

>  <r_i_glide_energy>  (290) 
-20.0903

>  <r_i_glide_einternal>  (290) 
0

>  <r_i_glide_intrahb_reward>  (290) 
-0

>  <i_i_glide_confnum>  (290) 
1

>  <i_i_glide_posenum>  (290) 
20

>  <r_i_glide_eff_state_penalty>  (290) 
0

>  <ligand_id>  (290) 
104

>  <original_smiles>  (290) 
CC1=NC23CCC(CC2(C)O1)C12CCc4nnnn4C1CC3C2

>  <smiles>  (290) 
[H]C([H])([H])C1=NC23C([H])([H])C([H])([H])C([H])(C([H])([H])C2(C([H])([H])[H])O1)C12C([H])([H])C([H])([H])c4nnnn4C1([H])C([H])([H])C3([H])C2([H])[H]

$$$$
104:0:1
     RDKit          3D

 46 51  0  0  1  0  0  0  0  0999 V2000
    3.0084   -2.8910    6.2252 C   0  0  0  0  0  0  0  0  0  0  0  0
    3.1745   -2.4197    4.7992 C   0  0  0  0  0  0  0  0  0  0  0  0
    2.2719   -2.2671    3.9147 N   0  0  0  0  0  0  0  0  0  0  0  0
    3.0317   -2.0310    2.7070 C   0  0  1  0  0  0  0  0  0  0  0  0
    2.4401   -1.0453    1.6848 C   0  0  0  0  0  0  0  0  0  0  0  0
    3.5077   -0.8075    0.5708 C   0  0  0  0  0  0  0  0  0  0  0  0
    4.8940   -1.5322    0.7894 C   0  0  1  0  0  0  0  0  0  0  0  0
    5.4304   -1.1869    2.2082 C   0  0  0  0  0  0  0  0  0  0  0  0
    4.2974   -1.2855    3.2732 C   0  0  1  0  0  0  0  0  0  0  0  0
    4.0747    0.1644    3.8298 C   0  0  0  0  0  0  0  0  0  0  0  0
    4.4522   -2.0636    4.4486 O   0  0  0  0  0  0  0  0  0  0  0  0
    4.9887   -3.0974    0.5269 C   0  0  2  0  0  0  0  0  0  0  0  0
    6.2972   -3.4508   -0.2312 C   0  0  0  0  0  0  0  0  0  0  0  0
    6.2949   -2.8882   -1.6870 C   0  0  0  0  0  0  0  0  0  0  0  0
    4.9242   -2.8307   -2.3163 C   0  0  0  0  0  0  0  0  0  0  0  0
    4.6066   -2.4560   -3.5426 N   0  0  0  0  0  0  0  0  0  0  0  0
    3.2296   -2.6151   -3.5841 N   0  0  0  0  0  0  0  0  0  0  0  0
    2.7627   -3.0473   -2.4426 N   0  0  0  0  0  0  0  0  0  0  0  0
    3.8359   -3.1542   -1.6236 N   0  0  0  0  0  0  0  0  0  0  0  0
    3.8548   -3.7273   -0.2983 C   0  0  2  0  0  0  0  0  0  0  0  0
    2.6337   -3.7422    0.6310 C   0  0  0  0  0  0  0  0  0  0  0  0
    3.2425   -3.4869    2.0558 C   0  0  1  0  0  0  0  0  0  0  0  0
    4.7161   -3.8617    1.8268 C   0  0  0  0  0  0  0  0  0  0  0  0
    1.9658   -3.1375    6.4316 H   0  0  0  0  0  0  0  0  0  0  0  0
    3.3309   -2.1158    6.9215 H   0  0  0  0  0  0  0  0  0  0  0  0
    3.6140   -3.7827    6.3942 H   0  0  0  0  0  0  0  0  0  0  0  0
    1.4810   -1.3632    1.2836 H   0  0  0  0  0  0  0  0  0  0  0  0
    2.1836   -0.0940    2.1472 H   0  0  0  0  0  0  0  0  0  0  0  0
    3.0756   -1.0280   -0.4052 H   0  0  0  0  0  0  0  0  0  0  0  0
    3.7037    0.2642    0.5308 H   0  0  0  0  0  0  0  0  0  0  0  0
    5.5632   -1.0444    0.0826 H   0  0  0  0  0  0  0  0  0  0  0  0
    6.3091   -1.7719    2.4738 H   0  0  0  0  0  0  0  0  0  0  0  0
    5.8083   -0.1665    2.1684 H   0  0  0  0  0  0  0  0  0  0  0  0
    3.9976    0.9129    3.0401 H   0  0  0  0  0  0  0  0  0  0  0  0
    4.9127    0.4595    4.4632 H   0  0  0  0  0  0  0  0  0  0  0  0
    3.1724    0.2631    4.4357 H   0  0  0  0  0  0  0  0  0  0  0  0
    7.1892   -3.1441    0.3196 H   0  0  0  0  0  0  0  0  0  0  0  0
    6.3583   -4.5381   -0.2970 H   0  0  0  0  0  0  0  0  0  0  0  0
    6.6800   -1.8708   -1.6784 H   0  0  0  0  0  0  0  0  0  0  0  0
    6.9571   -3.4682   -2.3300 H   0  0  0  0  0  0  0  0  0  0  0  0
    4.0901   -4.7790   -0.4719 H   0  0  0  0  0  0  0  0  0  0  0  0
    1.8277   -3.0964    0.2926 H   0  0  0  0  0  0  0  0  0  0  0  0
    2.2153   -4.7477    0.6089 H   0  0  0  0  0  0  0  0  0  0  0  0
    2.8324   -4.2461    2.7231 H   0  0  0  0  0  0  0  0  0  0  0  0
    4.8056   -4.9376    1.6634 H   0  0  0  0  0  0  0  0  0  0  0  0
    5.3803   -3.6651    2.6652 H   0  0  0  0  0  0  0  0  0  0  0  0
  1  2  1  0
  1 24  1  0
  1 25  1  0
  1 26  1  0
  2 11  1  0
  2  3  2  0
  4  3  1  1
  4  9  1  0
  4 22  1  0
  4  5  1  0
  5  6  1  0
  5 27  1  0
  5 28  1  0
  6  7  1  0
  6 29  1  0
  6 30  1  0
  7  8  1  0
  7 12  1  0
  7 31  1  6
  8  9  1  0
  8 32  1  0
  8 33  1  0
  9 10  1  1
  9 11  1  0
 10 34  1  0
 10 35  1  0
 10 36  1  0
 12 20  1  0
 12 23  1  0
 12 13  1  6
 13 14  1  0
 13 37  1  0
 13 38  1  0
 14 15  1  0
 14 39  1  0
 14 40  1  0
 15 19  1  0
 15 16  2  0
 16 17  1  0
 17 18  2  0
 18 19  1  0
 19 20  1  0
 20 21  1  0
 20 41  1  6
 21 22  1  0
 21 42  1  0
 21 43  1  0
 22 23  1  0
 22 44  1  1
 23 45  1  0
 23 46  1  0
M  END
>  <i_m_ct_stereo_status>  (291) 
1

>  <s_m_source_file>  (291) 
/var/tmp/pbs.5076255.sched01/tmp_gsyjirk/108c9vsds16.sdf

>  <i_m_source_file_index>  (291) 
21

>  <i_lp_mmshare_version>  (291) 
48012

>  <i_f3d_flags>  (291) 
0

>  <s_epik_input>  (291) 
W0NIM11DKD1OMSlPW0NAQF0oW0NAQF0xMjMpKFtDSDNdKVtDSDJdW0NASF0oW0NIMl1bQ0gyXTIpW0NAQF00NVtDQEBIXShbQ0gyXVtDQEhdM1tDSDJdNSluNmMoW0NIMl1bQ0gyXTQpbm5uNg==

>  <s_epik_cmdline>  (291) 
J2VwaWtfcHl0aG9uJywgJy1waHQnLCAnMi4wJywgJy1waCcsICc3LjAnLCAnLXRuJywgJzgnLCAnLW1hJywgJzIwMCcsICctaW1hZScsICc8aW5maWxlLm1hZT4nLCAnLW9tYWUnLCAnPG91dGZpbGUubWFlPic=

>  <r_lp_tautomer_probability>  (291) 
0.999601

>  <r_epik_Ionization_Penalty>  (291) 
0.0133753

>  <r_epik_Ionization_Penalty_Charging>  (291) 
0

>  <r_epik_Ionization_Penalty_Neutral>  (291) 
0.0133753

>  <r_epik_State_Penalty>  (291) 
0.0104059

>  <r_epik_Charging_Adjusted_Penalty>  (291) 
0.0104059

>  <i_epik_Tot_Q>  (291) 
0

>  <i_epik_Tot_abs_Q>  (291) 
0

>  <s_epik_Chemistry_Notes>  (291) 
This compound has an imine and may undergo hydrolysis.

>  <s_lp_Force_Field>  (291) 
OPLS3e

>  <r_lp_Energy>  (291) 
81.0669

>  <b_lp_Chiralities_Consistent>  (291) 
1

>  <s_lp_Variant>  (291) 
104:0-1

>  <s_i_glide_gridfile>  (291) 
pfpi4k_grid

>  <i_i_glide_lignum>  (291) 
21

>  <i_i_glide_rotatable_bonds>  (291) 
0

>  <r_i_docking_score>  (291) 
-2.96371

>  <r_i_glide_ligand_efficiency>  (291) 
-0.128857

>  <r_i_glide_ligand_efficiency_sa>  (291) 
-0.366452

>  <r_i_glide_ligand_efficiency_ln>  (291) 
-0.716652

>  <r_i_glide_gscore>  (291) 
-2.96371

>  <r_i_glide_lipo>  (291) 
-0.334949

>  <r_i_glide_hbond>  (291) 
0

>  <r_i_glide_metal>  (291) 
-0

>  <r_i_glide_rewards>  (291) 
-1.41862

>  <r_i_glide_evdw>  (291) 
-24.135

>  <r_i_glide_ecoul>  (291) 
0.11246

>  <r_i_glide_erotb>  (291) 
0

>  <r_i_glide_esite>  (291) 
-0.0202615

>  <r_i_glide_emodel>  (291) 
-28.2922

>  <r_i_glide_energy>  (291) 
-24.0225

>  <r_i_glide_einternal>  (291) 
0

>  <r_i_glide_intrahb_reward>  (291) 
-0

>  <i_i_glide_confnum>  (291) 
1

>  <i_i_glide_posenum>  (291) 
1

>  <r_i_glide_eff_state_penalty>  (291) 
0

>  <ligand_id>  (291) 
104

>  <original_smiles>  (291) 
CC1=NC23CCC(CC2(C)O1)C12CCc4nnnn4C1CC3C2

>  <smiles>  (291) 
[H]C([H])([H])C1=NC23C([H])([H])C([H])([H])C([H])(C([H])([H])C2(C([H])([H])[H])O1)C12C([H])([H])C([H])([H])c4nnnn4C1([H])C([H])([H])C3([H])C2([H])[H]

$$$$
104:0:2
     RDKit          3D

 46 51  0  0  1  0  0  0  0  0999 V2000
    4.1528   -0.8079   -4.0655 C   0  0  0  0  0  0  0  0  0  0  0  0
    4.4784   -1.6008   -2.8109 C   0  0  0  0  0  0  0  0  0  0  0  0
    4.0073   -2.7168   -2.4424 N   0  0  0  0  0  0  0  0  0  0  0  0
    4.4867   -2.8353   -1.0842 C   0  0  1  0  0  0  0  0  0  0  0  0
    4.7631   -4.2566   -0.5779 C   0  0  0  0  0  0  0  0  0  0  0  0
    5.4296   -4.1317    0.8241 C   0  0  0  0  0  0  0  0  0  0  0  0
    5.7116   -2.6557    1.3269 C   0  0  1  0  0  0  0  0  0  0  0  0
    6.4904   -1.8750    0.2314 C   0  0  0  0  0  0  0  0  0  0  0  0
    5.8838   -2.1398   -1.1799 C   0  0  1  0  0  0  0  0  0  0  0  0
    6.9743   -2.9001   -2.0096 C   0  0  0  0  0  0  0  0  0  0  0  0
    5.4448   -1.0585   -1.9964 O   0  0  0  0  0  0  0  0  0  0  0  0
    4.4904   -1.7817    1.8576 C   0  0  2  0  0  0  0  0  0  0  0  0
    4.8784   -1.0044    3.1443 C   0  0  0  0  0  0  0  0  0  0  0  0
    5.0888   -1.9710    4.3507 C   0  0  0  0  0  0  0  0  0  0  0  0
    4.2394   -3.2049    4.3301 C   0  0  0  0  0  0  0  0  0  0  0  0
    4.1915   -4.1746    5.2308 N   0  0  0  0  0  0  0  0  0  0  0  0
    3.2551   -5.0436    4.6902 N   0  0  0  0  0  0  0  0  0  0  0  0
    2.7869   -4.6147    3.5621 N   0  0  0  0  0  0  0  0  0  0  0  0
    3.4517   -3.4658    3.2971 N   0  0  0  0  0  0  0  0  0  0  0  0
    3.2098   -2.5438    2.2111 C   0  0  2  0  0  0  0  0  0  0  0  0
    2.6171   -2.9727    0.8623 C   0  0  0  0  0  0  0  0  0  0  0  0
    3.3905   -2.0981   -0.1859 C   0  0  1  0  0  0  0  0  0  0  0  0
    3.9130   -0.9623    0.7058 C   0  0  0  0  0  0  0  0  0  0  0  0
    3.3697   -1.2948   -4.6482 H   0  0  0  0  0  0  0  0  0  0  0  0
    5.0112   -0.7607   -4.7226 H   0  0  0  0  0  0  0  0  0  0  0  0
    3.8631    0.2151   -3.8169 H   0  0  0  0  0  0  0  0  0  0  0  0
    3.8732   -4.8854   -0.5760 H   0  0  0  0  0  0  0  0  0  0  0  0
    5.4173   -4.7867   -1.2651 H   0  0  0  0  0  0  0  0  0  0  0  0
    4.8676   -4.7144    1.5519 H   0  0  0  0  0  0  0  0  0  0  0  0
    6.3910   -4.6415    0.7632 H   0  0  0  0  0  0  0  0  0  0  0  0
    6.3944   -2.7830    2.1594 H   0  0  0  0  0  0  0  0  0  0  0  0
    6.5871   -0.8135    0.4652 H   0  0  0  0  0  0  0  0  0  0  0  0
    7.5163   -2.2382    0.2601 H   0  0  0  0  0  0  0  0  0  0  0  0
    7.4152   -3.7255   -1.4463 H   0  0  0  0  0  0  0  0  0  0  0  0
    7.8008   -2.2481   -2.2830 H   0  0  0  0  0  0  0  0  0  0  0  0
    6.5905   -3.3262   -2.9406 H   0  0  0  0  0  0  0  0  0  0  0  0
    5.7272   -0.3440    2.9809 H   0  0  0  0  0  0  0  0  0  0  0  0
    4.0408   -0.3441    3.3967 H   0  0  0  0  0  0  0  0  0  0  0  0
    6.1061   -2.3670    4.3195 H   0  0  0  0  0  0  0  0  0  0  0  0
    4.9631   -1.4440    5.2993 H   0  0  0  0  0  0  0  0  0  0  0  0
    2.4815   -1.8410    2.6307 H   0  0  0  0  0  0  0  0  0  0  0  0
    2.5432   -4.0448    0.7194 H   0  0  0  0  0  0  0  0  0  0  0  0
    1.5946   -2.6167    0.8662 H   0  0  0  0  0  0  0  0  0  0  0  0
    2.6843   -1.6321   -0.8463 H   0  0  0  0  0  0  0  0  0  0  0  0
    3.0736   -0.3560    1.0487 H   0  0  0  0  0  0  0  0  0  0  0  0
    4.5679   -0.2524    0.2130 H   0  0  0  0  0  0  0  0  0  0  0  0
  1  2  1  0
  1 24  1  0
  1 25  1  0
  1 26  1  0
  2 11  1  0
  2  3  2  0
  4  3  1  6
  4  9  1  0
  4 22  1  0
  4  5  1  0
  5  6  1  0
  5 27  1  0
  5 28  1  0
  6  7  1  0
  6 29  1  0
  6 30  1  0
  7  8  1  0
  7 12  1  0
  7 31  1  1
  8  9  1  0
  8 32  1  0
  8 33  1  0
  9 10  1  6
  9 11  1  0
 10 34  1  0
 10 35  1  0
 10 36  1  0
 12 20  1  0
 12 23  1  0
 12 13  1  1
 13 14  1  0
 13 37  1  0
 13 38  1  0
 14 15  1  0
 14 39  1  0
 14 40  1  0
 15 19  1  0
 15 16  2  0
 16 17  1  0
 17 18  2  0
 18 19  1  0
 19 20  1  0
 20 21  1  0
 20 41  1  1
 21 22  1  0
 21 42  1  0
 21 43  1  0
 22 23  1  0
 22 44  1  6
 23 45  1  0
 23 46  1  0
M  END
>  <i_m_ct_stereo_status>  (292) 
1

>  <s_m_source_file>  (292) 
/var/tmp/pbs.5076255.sched01/tmp_gsyjirk/108c9vsds16.sdf

>  <i_m_source_file_index>  (292) 
21

>  <i_lp_mmshare_version>  (292) 
48012

>  <i_f3d_flags>  (292) 
0

>  <s_epik_input>  (292) 
W0NIM11DKD1OMSlPW0NAQF0oW0NAQF0xMjMpKFtDSDNdKVtDSDJdW0NASF0oW0NIMl1bQ0gyXTIpW0NAQF00NVtDQEBIXShbQ0gyXVtDQEhdM1tDSDJdNSluNmMoW0NIMl1bQ0gyXTQpbm5uNg==

>  <s_epik_cmdline>  (292) 
J2VwaWtfcHl0aG9uJywgJy1waHQnLCAnMi4wJywgJy1waCcsICc3LjAnLCAnLXRuJywgJzgnLCAnLW1hJywgJzIwMCcsICctaW1hZScsICc8aW5maWxlLm1hZT4nLCAnLW9tYWUnLCAnPG91dGZpbGUubWFlPic=

>  <r_lp_tautomer_probability>  (292) 
0.999601

>  <r_epik_Ionization_Penalty>  (292) 
0.0133753

>  <r_epik_Ionization_Penalty_Charging>  (292) 
0

>  <r_epik_Ionization_Penalty_Neutral>  (292) 
0.0133753

>  <r_epik_State_Penalty>  (292) 
0.0104059

>  <r_epik_Charging_Adjusted_Penalty>  (292) 
0.0104059

>  <i_epik_Tot_Q>  (292) 
0

>  <i_epik_Tot_abs_Q>  (292) 
0

>  <s_epik_Chemistry_Notes>  (292) 
This compound has an imine and may undergo hydrolysis.

>  <s_lp_Force_Field>  (292) 
OPLS3e

>  <r_lp_Energy>  (292) 
81.0669

>  <b_lp_Chiralities_Consistent>  (292) 
1

>  <s_lp_Variant>  (292) 
104:0-1

>  <s_i_glide_gridfile>  (292) 
pfpi4k_grid

>  <i_i_glide_lignum>  (292) 
21

>  <i_i_glide_rotatable_bonds>  (292) 
0

>  <r_i_docking_score>  (292) 
-2.63776

>  <r_i_glide_ligand_efficiency>  (292) 
-0.114685

>  <r_i_glide_ligand_efficiency_sa>  (292) 
-0.32615

>  <r_i_glide_ligand_efficiency_ln>  (292) 
-0.637835

>  <r_i_glide_gscore>  (292) 
-2.63776

>  <r_i_glide_lipo>  (292) 
-0.484974

>  <r_i_glide_hbond>  (292) 
-0.00975049

>  <r_i_glide_metal>  (292) 
-0

>  <r_i_glide_rewards>  (292) 
-1.27928

>  <r_i_glide_evdw>  (292) 
-18.0313

>  <r_i_glide_ecoul>  (292) 
0.313521

>  <r_i_glide_erotb>  (292) 
0

>  <r_i_glide_esite>  (292) 
-0.00922162

>  <r_i_glide_emodel>  (292) 
-21.156

>  <r_i_glide_energy>  (292) 
-17.7177

>  <r_i_glide_einternal>  (292) 
0

>  <r_i_glide_intrahb_reward>  (292) 
-0

>  <i_i_glide_confnum>  (292) 
2

>  <i_i_glide_posenum>  (292) 
28

>  <r_i_glide_eff_state_penalty>  (292) 
0

>  <ligand_id>  (292) 
104

>  <original_smiles>  (292) 
CC1=NC23CCC(CC2(C)O1)C12CCc4nnnn4C1CC3C2

>  <smiles>  (292) 
[H]C([H])([H])C1=NC23C([H])([H])C([H])([H])C([H])(C([H])([H])C2(C([H])([H])[H])O1)C12C([H])([H])C([H])([H])c4nnnn4C1([H])C([H])([H])C3([H])C2([H])[H]

$$$$
104:1:0
     RDKit          3D

 47 52  0  0  1  0  0  0  0  0999 V2000
    3.0068   -2.6900   -3.6578 C   0  0  0  0  0  0  0  0  0  0  0  0
    3.7066   -2.8343   -2.3494 C   0  0  0  0  0  0  0  0  0  0  0  0
    3.8003   -3.8549   -1.5735 N   0  0  0  0  0  0  0  0  0  0  0  0
    4.3536   -3.4139   -0.2977 C   0  0  1  0  0  0  0  0  0  0  0  0
    5.3432   -4.3071    0.4704 C   0  0  0  0  0  0  0  0  0  0  0  0
    5.9743   -3.4458    1.6105 C   0  0  0  0  0  0  0  0  0  0  0  0
    5.5378   -1.9256    1.6485 C   0  0  1  0  0  0  0  0  0  0  0  0
    5.7621   -1.2907    0.2490 C   0  0  0  0  0  0  0  0  0  0  0  0
    5.2567   -2.2492   -0.8706 C   0  0  1  0  0  0  0  0  0  0  0  0
    6.5237   -2.6881   -1.6878 C   0  0  0  0  0  0  0  0  0  0  0  0
    4.4033   -1.7596   -1.9055 O   0  0  0  0  0  0  0  0  0  0  0  0
    4.0857   -1.5672    2.1917 C   0  0  2  0  0  0  0  0  0  0  0  0
    4.1354   -0.3199    3.1106 C   0  0  0  0  0  0  0  0  0  0  0  0
    4.9226   -0.5942    4.4336 C   0  0  0  0  0  0  0  0  0  0  0  0
    4.7870   -2.0141    4.9272 C   0  0  0  0  0  0  0  0  0  0  0  0
    5.2753   -2.5467    6.0384 N   0  0  0  0  0  0  0  0  0  0  0  0
    4.8399   -3.8623    5.9758 N   0  0  0  0  0  0  0  0  0  0  0  0
    4.1331   -4.0911    4.8997 N   0  0  0  0  0  0  0  0  0  0  0  0
    4.1362   -2.9313    4.2102 N   0  0  0  0  0  0  0  0  0  0  0  0
    3.3720   -2.6477    3.0170 C   0  0  2  0  0  0  0  0  0  0  0  0
    2.9421   -3.7260    2.0008 C   0  0  0  0  0  0  0  0  0  0  0  0
    3.0979   -3.0110    0.6115 C   0  0  1  0  0  0  0  0  0  0  0  0
    3.0848   -1.5307    1.0348 C   0  0  0  0  0  0  0  0  0  0  0  0
    2.4038   -3.5708   -3.8820 H   0  0  0  0  0  0  0  0  0  0  0  0
    3.7451   -2.5602   -4.4454 H   0  0  0  0  0  0  0  0  0  0  0  0
    2.3600   -1.8134   -3.6508 H   0  0  0  0  0  0  0  0  0  0  0  0
    4.8951   -5.2249    0.8410 H   0  0  0  0  0  0  0  0  0  0  0  0
    6.1299   -4.6848   -0.1795 H   0  0  0  0  0  0  0  0  0  0  0  0
    5.8298   -3.9371    2.5708 H   0  0  0  0  0  0  0  0  0  0  0  0
    7.0560   -3.4725    1.4756 H   0  0  0  0  0  0  0  0  0  0  0  0
    6.2555   -1.4534    2.3153 H   0  0  0  0  0  0  0  0  0  0  0  0
    5.3367   -0.2891    0.1754 H   0  0  0  0  0  0  0  0  0  0  0  0
    6.8321   -1.1199    0.1409 H   0  0  0  0  0  0  0  0  0  0  0  0
    7.3524   -3.0130   -1.0588 H   0  0  0  0  0  0  0  0  0  0  0  0
    6.8911   -1.8630   -2.2944 H   0  0  0  0  0  0  0  0  0  0  0  0
    6.3277   -3.5008   -2.3883 H   0  0  0  0  0  0  0  0  0  0  0  0
    4.5310    0.5438    2.5834 H   0  0  0  0  0  0  0  0  0  0  0  0
    3.1143   -0.0521    3.3881 H   0  0  0  0  0  0  0  0  0  0  0  0
    5.9813   -0.3959    4.2656 H   0  0  0  0  0  0  0  0  0  0  0  0
    4.6029    0.0934    5.2169 H   0  0  0  0  0  0  0  0  0  0  0  0
    2.4320   -2.2348    3.3996 H   0  0  0  0  0  0  0  0  0  0  0  0
    3.4260   -4.6870    2.1405 H   0  0  0  0  0  0  0  0  0  0  0  0
    1.8855   -3.9362    2.1656 H   0  0  0  0  0  0  0  0  0  0  0  0
    2.1808   -3.1748    0.0470 H   0  0  0  0  0  0  0  0  0  0  0  0
    2.0911   -1.2539    1.3942 H   0  0  0  0  0  0  0  0  0  0  0  0
    3.2778   -0.8194    0.2363 H   0  0  0  0  0  0  0  0  0  0  0  0
    3.4218   -4.7905   -1.7776 H   0  0  0  0  0  0  0  0  0  0  0  0
  1  2  1  0
  1 24  1  0
  1 25  1  0
  1 26  1  0
  2 11  1  0
  2  3  2  0
  4  3  1  6
  3 47  1  0
  4  9  1  0
  4 22  1  0
  4  5  1  0
  5  6  1  0
  5 27  1  0
  5 28  1  0
  6  7  1  0
  6 29  1  0
  6 30  1  0
  7  8  1  0
  7 12  1  0
  7 31  1  1
  8  9  1  0
  8 32  1  0
  8 33  1  0
  9 10  1  6
  9 11  1  0
 10 34  1  0
 10 35  1  0
 10 36  1  0
 12 20  1  0
 12 23  1  0
 12 13  1  1
 13 14  1  0
 13 37  1  0
 13 38  1  0
 14 15  1  0
 14 39  1  0
 14 40  1  0
 15 19  1  0
 15 16  2  0
 16 17  1  0
 17 18  2  0
 18 19  1  0
 19 20  1  0
 20 21  1  0
 20 41  1  1
 21 22  1  0
 21 42  1  0
 21 43  1  0
 22 23  1  0
 22 44  1  6
 23 45  1  0
 23 46  1  0
M  CHG  1   3   1
M  END
>  <i_m_ct_stereo_status>  (293) 
1

>  <s_m_source_file>  (293) 
/var/tmp/pbs.5076255.sched01/tmp_gsyjirk/108c9vsds16.sdf

>  <i_m_source_file_index>  (293) 
22

>  <i_lp_mmshare_version>  (293) 
48012

>  <i_f3d_flags>  (293) 
0

>  <s_epik_input>  (293) 
W0NIM11DKD1OMSlPW0NAQF0oW0NAQF0xMjMpKFtDSDNdKVtDSDJdW0NASF0oW0NIMl1bQ0gyXTIpW0NAQF00NVtDQEBIXShbQ0gyXVtDQEhdM1tDSDJdNSluNmMoW0NIMl1bQ0gyXTQpbm5uNg==

>  <s_epik_cmdline>  (293) 
J2VwaWtfcHl0aG9uJywgJy1waHQnLCAnMi4wJywgJy1waCcsICc3LjAnLCAnLXRuJywgJzgnLCAnLW1hJywgJzIwMCcsICctaW1hZScsICc8aW5maWxlLm1hZT4nLCAnLW9tYWUnLCAnPG91dGZpbGUubWFlPic=

>  <r_lp_tautomer_probability>  (293) 
1

>  <r_epik_Ionization_Penalty>  (293) 
2.25275

>  <r_epik_Ionization_Penalty_Charging>  (293) 
2.25275

>  <r_epik_Ionization_Penalty_Neutral>  (293) 
9.56693e-07

>  <r_epik_State_Penalty>  (293) 
2.4

>  <r_epik_Charging_Adjusted_Penalty>  (293) 
4.65275

>  <i_epik_Tot_Q>  (293) 
1

>  <i_epik_Tot_abs_Q>  (293) 
1

>  <s_epik_Chemistry_Notes>  (293) 
This compound has an imine and may undergo hydrolysis.

>  <s_lp_Force_Field>  (293) 
OPLS3e

>  <r_lp_Energy>  (293) 
92.2024

>  <b_lp_Chiralities_Consistent>  (293) 
1

>  <s_lp_Variant>  (293) 
104:0-2

>  <s_i_glide_gridfile>  (293) 
pfpi4k_grid

>  <i_i_glide_lignum>  (293) 
22

>  <i_i_glide_rotatable_bonds>  (293) 
0

>  <r_i_docking_score>  (293) 
-4.44649

>  <r_i_glide_ligand_efficiency>  (293) 
-0.193326

>  <r_i_glide_ligand_efficiency_sa>  (293) 
-0.549793

>  <r_i_glide_ligand_efficiency_ln>  (293) 
-1.0752

>  <r_i_glide_gscore>  (293) 
-4.44649

>  <r_i_glide_lipo>  (293) 
-0.652697

>  <r_i_glide_hbond>  (293) 
0

>  <r_i_glide_metal>  (293) 
-0

>  <r_i_glide_rewards>  (293) 
-1.30271

>  <r_i_glide_evdw>  (293) 
-25.074

>  <r_i_glide_ecoul>  (293) 
-7.94666

>  <r_i_glide_erotb>  (293) 
0

>  <r_i_glide_esite>  (293) 
-0.0453859

>  <r_i_glide_emodel>  (293) 
-41.9734

>  <r_i_glide_energy>  (293) 
-33.0206

>  <r_i_glide_einternal>  (293) 
0

>  <r_i_glide_intrahb_reward>  (293) 
-0

>  <i_i_glide_confnum>  (293) 
1

>  <i_i_glide_posenum>  (293) 
1

>  <r_i_glide_eff_state_penalty>  (293) 
0

>  <ligand_id>  (293) 
104

>  <original_smiles>  (293) 
CC1=NC23CCC(CC2(C)O1)C12CCc4nnnn4C1CC3C2

>  <smiles>  (293) 
[H][N+]1=C(C([H])([H])[H])OC2(C([H])([H])[H])C([H])([H])C3([H])C([H])([H])C([H])([H])C12C1([H])C([H])([H])C2([H])n4nnnc4C([H])([H])C([H])([H])C23C1([H])[H]

$$$$
104:1:1
     RDKit          3D

 47 52  0  0  1  0  0  0  0  0999 V2000
    3.6144    0.5115   -4.7171 C   0  0  0  0  0  0  0  0  0  0  0  0
    3.6835   -0.5765   -3.6933 C   0  0  0  0  0  0  0  0  0  0  0  0
    3.0297   -0.7271   -2.5984 N   0  0  0  0  0  0  0  0  0  0  0  0
    3.6135   -1.8107   -1.8198 C   0  0  1  0  0  0  0  0  0  0  0  0
    2.7258   -2.7752   -1.0154 C   0  0  0  0  0  0  0  0  0  0  0  0
    3.5904   -3.9695   -0.5477 C   0  0  0  0  0  0  0  0  0  0  0  0
    5.0680   -3.9894   -1.0926 C   0  0  1  0  0  0  0  0  0  0  0  0
    5.0705   -3.7815   -2.6365 C   0  0  0  0  0  0  0  0  0  0  0  0
    4.0853   -2.6582   -3.0470 C   0  0  1  0  0  0  0  0  0  0  0  0
    2.9436   -3.3261   -3.8786 C   0  0  0  0  0  0  0  0  0  0  0  0
    4.5061   -1.6232   -3.9405 O   0  0  0  0  0  0  0  0  0  0  0  0
    6.1096   -3.0130   -0.4028 C   0  0  2  0  0  0  0  0  0  0  0  0
    7.4768   -3.7093   -0.1760 C   0  0  0  0  0  0  0  0  0  0  0  0
    7.3550   -4.8615    0.8744 C   0  0  0  0  0  0  0  0  0  0  0  0
    6.3242   -4.5910    1.9491 C   0  0  0  0  0  0  0  0  0  0  0  0
    6.0343   -5.3279    3.0095 N   0  0  0  0  0  0  0  0  0  0  0  0
    5.0610   -4.5801    3.6579 N   0  0  0  0  0  0  0  0  0  0  0  0
    4.7939   -3.4730    3.0202 N   0  0  0  0  0  0  0  0  0  0  0  0
    5.5630   -3.5007    1.9125 N   0  0  0  0  0  0  0  0  0  0  0  0
    5.7177   -2.4244    0.9616 C   0  0  2  0  0  0  0  0  0  0  0  0
    4.6237   -1.3763    0.6702 C   0  0  0  0  0  0  0  0  0  0  0  0
    4.7262   -1.1563   -0.8806 C   0  0  1  0  0  0  0  0  0  0  0  0
    6.1367   -1.6940   -1.1488 C   0  0  0  0  0  0  0  0  0  0  0  0
    3.0142    1.3395   -4.3437 H   0  0  0  0  0  0  0  0  0  0  0  0
    3.1825    0.1323   -5.6448 H   0  0  0  0  0  0  0  0  0  0  0  0
    4.6088    0.9043   -4.9347 H   0  0  0  0  0  0  0  0  0  0  0  0
    2.2346   -2.3011   -0.1710 H   0  0  0  0  0  0  0  0  0  0  0  0
    1.8777   -3.1182   -1.6054 H   0  0  0  0  0  0  0  0  0  0  0  0
    3.5291   -4.0858    0.5312 H   0  0  0  0  0  0  0  0  0  0  0  0
    3.0901   -4.8594   -0.8953 H   0  0  0  0  0  0  0  0  0  0  0  0
    5.4100   -5.0062   -0.9186 H   0  0  0  0  0  0  0  0  0  0  0  0
    6.0749   -3.6272   -3.0348 H   0  0  0  0  0  0  0  0  0  0  0  0
    4.7676   -4.7169   -3.0984 H   0  0  0  0  0  0  0  0  0  0  0  0
    2.5326   -4.2378   -3.4489 H   0  0  0  0  0  0  0  0  0  0  0  0
    3.3891   -3.5811   -4.8277 H   0  0  0  0  0  0  0  0  0  0  0  0
    2.0871   -2.6808   -4.0897 H   0  0  0  0  0  0  0  0  0  0  0  0
    7.9316   -4.0376   -1.1104 H   0  0  0  0  0  0  0  0  0  0  0  0
    8.1797   -2.9727    0.2177 H   0  0  0  0  0  0  0  0  0  0  0  0
    7.0634   -5.7827    0.3688 H   0  0  0  0  0  0  0  0  0  0  0  0
    8.3223   -5.0539    1.3403 H   0  0  0  0  0  0  0  0  0  0  0  0
    6.5608   -1.8460    1.3549 H   0  0  0  0  0  0  0  0  0  0  0  0
    3.6521   -1.6126    1.0906 H   0  0  0  0  0  0  0  0  0  0  0  0
    4.9051   -0.4468    1.1680 H   0  0  0  0  0  0  0  0  0  0  0  0
    4.7384   -0.0837   -1.0538 H   0  0  0  0  0  0  0  0  0  0  0  0
    6.8689   -1.0516   -0.6667 H   0  0  0  0  0  0  0  0  0  0  0  0
    6.4222   -1.7318   -2.1951 H   0  0  0  0  0  0  0  0  0  0  0  0
    2.3060   -0.1126   -2.2269 H   0  0  0  0  0  0  0  0  0  0  0  0
  1  2  1  0
  1 24  1  0
  1 25  1  0
  1 26  1  0
  2 11  1  0
  2  3  2  0
  4  3  1  6
  3 47  1  0
  4  9  1  0
  4 22  1  0
  4  5  1  0
  5  6  1  0
  5 27  1  0
  5 28  1  0
  6  7  1  0
  6 29  1  0
  6 30  1  0
  7  8  1  0
  7 12  1  0
  7 31  1  6
  8  9  1  0
  8 32  1  0
  8 33  1  0
  9 10  1  6
  9 11  1  0
 10 34  1  0
 10 35  1  0
 10 36  1  0
 12 20  1  0
 12 23  1  0
 12 13  1  1
 13 14  1  0
 13 37  1  0
 13 38  1  0
 14 15  1  0
 14 39  1  0
 14 40  1  0
 15 19  1  0
 15 16  2  0
 16 17  1  0
 17 18  2  0
 18 19  1  0
 19 20  1  0
 20 21  1  0
 20 41  1  1
 21 22  1  0
 21 42  1  0
 21 43  1  0
 22 23  1  0
 22 44  1  1
 23 45  1  0
 23 46  1  0
M  CHG  1   3   1
M  END
>  <i_m_ct_stereo_status>  (294) 
1

>  <s_m_source_file>  (294) 
/var/tmp/pbs.5076255.sched01/tmp_gsyjirk/108c9vsds16.sdf

>  <i_m_source_file_index>  (294) 
22

>  <i_lp_mmshare_version>  (294) 
48012

>  <i_f3d_flags>  (294) 
0

>  <s_epik_input>  (294) 
W0NIM11DKD1OMSlPW0NAQF0oW0NAQF0xMjMpKFtDSDNdKVtDSDJdW0NASF0oW0NIMl1bQ0gyXTIpW0NAQF00NVtDQEBIXShbQ0gyXVtDQEhdM1tDSDJdNSluNmMoW0NIMl1bQ0gyXTQpbm5uNg==

>  <s_epik_cmdline>  (294) 
J2VwaWtfcHl0aG9uJywgJy1waHQnLCAnMi4wJywgJy1waCcsICc3LjAnLCAnLXRuJywgJzgnLCAnLW1hJywgJzIwMCcsICctaW1hZScsICc8aW5maWxlLm1hZT4nLCAnLW9tYWUnLCAnPG91dGZpbGUubWFlPic=

>  <r_lp_tautomer_probability>  (294) 
1

>  <r_epik_Ionization_Penalty>  (294) 
2.25275

>  <r_epik_Ionization_Penalty_Charging>  (294) 
2.25275

>  <r_epik_Ionization_Penalty_Neutral>  (294) 
9.56693e-07

>  <r_epik_State_Penalty>  (294) 
2.4

>  <r_epik_Charging_Adjusted_Penalty>  (294) 
4.65275

>  <i_epik_Tot_Q>  (294) 
1

>  <i_epik_Tot_abs_Q>  (294) 
1

>  <s_epik_Chemistry_Notes>  (294) 
This compound has an imine and may undergo hydrolysis.

>  <s_lp_Force_Field>  (294) 
OPLS3e

>  <r_lp_Energy>  (294) 
92.2024

>  <b_lp_Chiralities_Consistent>  (294) 
1

>  <s_lp_Variant>  (294) 
104:0-2

>  <s_i_glide_gridfile>  (294) 
pfpi4k_grid

>  <i_i_glide_lignum>  (294) 
22

>  <i_i_glide_rotatable_bonds>  (294) 
0

>  <r_i_docking_score>  (294) 
-4.33461

>  <r_i_glide_ligand_efficiency>  (294) 
-0.188462

>  <r_i_glide_ligand_efficiency_sa>  (294) 
-0.535959

>  <r_i_glide_ligand_efficiency_ln>  (294) 
-1.04815

>  <r_i_glide_gscore>  (294) 
-4.33461

>  <r_i_glide_lipo>  (294) 
-0.741339

>  <r_i_glide_hbond>  (294) 
-0.0951972

>  <r_i_glide_metal>  (294) 
-0

>  <r_i_glide_rewards>  (294) 
-1.73343

>  <r_i_glide_evdw>  (294) 
-22.5987

>  <r_i_glide_ecoul>  (294) 
-3.8373

>  <r_i_glide_erotb>  (294) 
0

>  <r_i_glide_esite>  (294) 
-0.0591227

>  <r_i_glide_emodel>  (294) 
-34.9527

>  <r_i_glide_energy>  (294) 
-26.436

>  <r_i_glide_einternal>  (294) 
0

>  <r_i_glide_intrahb_reward>  (294) 
-0

>  <i_i_glide_confnum>  (294) 
1

>  <i_i_glide_posenum>  (294) 
18

>  <r_i_glide_eff_state_penalty>  (294) 
0

>  <ligand_id>  (294) 
104

>  <original_smiles>  (294) 
CC1=NC23CCC(CC2(C)O1)C12CCc4nnnn4C1CC3C2

>  <smiles>  (294) 
[H][N+]1=C(C([H])([H])[H])OC2(C([H])([H])[H])C([H])([H])C3([H])C([H])([H])C([H])([H])C12C1([H])C([H])([H])C2([H])n4nnnc4C([H])([H])C([H])([H])C23C1([H])[H]

$$$$
104:1:2
     RDKit          3D

 47 52  0  0  1  0  0  0  0  0999 V2000
    3.9063    0.2810   -3.7675 C   0  0  0  0  0  0  0  0  0  0  0  0
    3.8697   -0.8931   -2.8425 C   0  0  0  0  0  0  0  0  0  0  0  0
    2.8773   -1.4872   -2.3237 N   0  0  0  0  0  0  0  0  0  0  0  0
    3.3308   -2.3663   -1.2606 C   0  0  1  0  0  0  0  0  0  0  0  0
    2.5893   -3.6875   -1.0708 C   0  0  0  0  0  0  0  0  0  0  0  0
    3.4452   -4.5414   -0.0957 C   0  0  0  0  0  0  0  0  0  0  0  0
    4.8004   -3.8805    0.3668 C   0  0  1  0  0  0  0  0  0  0  0  0
    5.6291   -3.3907   -0.8579 C   0  0  0  0  0  0  0  0  0  0  0  0
    4.7141   -2.7041   -1.8983 C   0  0  1  0  0  0  0  0  0  0  0  0
    4.6960   -3.6015   -3.1814 C   0  0  0  0  0  0  0  0  0  0  0  0
    5.0497   -1.4309   -2.4628 O   0  0  0  0  0  0  0  0  0  0  0  0
    4.7147   -2.7310    1.4479 C   0  0  2  0  0  0  0  0  0  0  0  0
    5.8129   -2.9360    2.4936 C   0  0  0  0  0  0  0  0  0  0  0  0
    5.5660   -4.2221    3.3604 C   0  0  0  0  0  0  0  0  0  0  0  0
    4.1257   -4.5565    3.5979 C   0  0  0  0  0  0  0  0  0  0  0  0
    3.6263   -5.5260    4.3258 N   0  0  0  0  0  0  0  0  0  0  0  0
    2.2593   -5.3491    4.1901 N   0  0  0  0  0  0  0  0  0  0  0  0
    1.9789   -4.3211    3.4269 N   0  0  0  0  0  0  0  0  0  0  0  0
    3.1669   -3.8327    2.9989 N   0  0  0  0  0  0  0  0  0  0  0  0
    3.4221   -2.6200    2.2619 C   0  0  2  0  0  0  0  0  0  0  0  0
    2.4216   -2.0396    1.2763 C   0  0  0  0  0  0  0  0  0  0  0  0
    3.3117   -1.5091    0.0889 C   0  0  1  0  0  0  0  0  0  0  0  0
    4.6656   -1.3583    0.7732 C   0  0  0  0  0  0  0  0  0  0  0  0
    2.9092    0.6857   -3.9899 H   0  0  0  0  0  0  0  0  0  0  0  0
    4.3720   -0.0159   -4.7079 H   0  0  0  0  0  0  0  0  0  0  0  0
    4.5368    1.0493   -3.3030 H   0  0  0  0  0  0  0  0  0  0  0  0
    1.5546   -3.5671   -0.7575 H   0  0  0  0  0  0  0  0  0  0  0  0
    2.4570   -4.1796   -2.0276 H   0  0  0  0  0  0  0  0  0  0  0  0
    2.8208   -4.8980    0.7279 H   0  0  0  0  0  0  0  0  0  0  0  0
    3.7298   -5.4451   -0.6270 H   0  0  0  0  0  0  0  0  0  0  0  0
    5.3460   -4.7059    0.8090 H   0  0  0  0  0  0  0  0  0  0  0  0
    6.4967   -2.7984   -0.5653 H   0  0  0  0  0  0  0  0  0  0  0  0
    6.0455   -4.2758   -1.3139 H   0  0  0  0  0  0  0  0  0  0  0  0
    4.5685   -4.6558   -2.9563 H   0  0  0  0  0  0  0  0  0  0  0  0
    5.6461   -3.5062   -3.7099 H   0  0  0  0  0  0  0  0  0  0  0  0
    3.9056   -3.3191   -3.8795 H   0  0  0  0  0  0  0  0  0  0  0  0
    6.7843   -2.9288    2.0111 H   0  0  0  0  0  0  0  0  0  0  0  0
    5.7826   -2.0625    3.1483 H   0  0  0  0  0  0  0  0  0  0  0  0
    6.0303   -5.0810    2.8654 H   0  0  0  0  0  0  0  0  0  0  0  0
    6.0089   -4.0857    4.3461 H   0  0  0  0  0  0  0  0  0  0  0  0
    3.5515   -1.8350    3.0245 H   0  0  0  0  0  0  0  0  0  0  0  0
    1.5963   -2.6968    1.0435 H   0  0  0  0  0  0  0  0  0  0  0  0
    1.9434   -1.2044    1.7707 H   0  0  0  0  0  0  0  0  0  0  0  0
    2.9413   -0.5100   -0.1106 H   0  0  0  0  0  0  0  0  0  0  0  0
    4.6084   -0.5578    1.5124 H   0  0  0  0  0  0  0  0  0  0  0  0
    5.4740   -1.0774    0.1038 H   0  0  0  0  0  0  0  0  0  0  0  0
    1.9087   -1.1646   -2.2691 H   0  0  0  0  0  0  0  0  0  0  0  0
  1  2  1  0
  1 24  1  0
  1 25  1  0
  1 26  1  0
  2 11  1  0
  2  3  2  0
  4  3  1  6
  3 47  1  0
  4  9  1  0
  4 22  1  0
  4  5  1  0
  5  6  1  0
  5 27  1  0
  5 28  1  0
  6  7  1  0
  6 29  1  0
  6 30  1  0
  7  8  1  0
  7 12  1  0
  7 31  1  1
  8  9  1  0
  8 32  1  0
  8 33  1  0
  9 10  1  6
  9 11  1  0
 10 34  1  0
 10 35  1  0
 10 36  1  0
 12 20  1  0
 12 23  1  0
 12 13  1  1
 13 14  1  0
 13 37  1  0
 13 38  1  0
 14 15  1  0
 14 39  1  0
 14 40  1  0
 15 19  1  0
 15 16  2  0
 16 17  1  0
 17 18  2  0
 18 19  1  0
 19 20  1  0
 20 21  1  0
 20 41  1  1
 21 22  1  0
 21 42  1  0
 21 43  1  0
 22 23  1  0
 22 44  1  6
 23 45  1  0
 23 46  1  0
M  CHG  1   3   1
M  END
>  <i_m_ct_stereo_status>  (295) 
1

>  <s_m_source_file>  (295) 
/var/tmp/pbs.5076255.sched01/tmp_gsyjirk/108c9vsds16.sdf

>  <i_m_source_file_index>  (295) 
22

>  <i_lp_mmshare_version>  (295) 
48012

>  <i_f3d_flags>  (295) 
0

>  <s_epik_input>  (295) 
W0NIM11DKD1OMSlPW0NAQF0oW0NAQF0xMjMpKFtDSDNdKVtDSDJdW0NASF0oW0NIMl1bQ0gyXTIpW0NAQF00NVtDQEBIXShbQ0gyXVtDQEhdM1tDSDJdNSluNmMoW0NIMl1bQ0gyXTQpbm5uNg==

>  <s_epik_cmdline>  (295) 
J2VwaWtfcHl0aG9uJywgJy1waHQnLCAnMi4wJywgJy1waCcsICc3LjAnLCAnLXRuJywgJzgnLCAnLW1hJywgJzIwMCcsICctaW1hZScsICc8aW5maWxlLm1hZT4nLCAnLW9tYWUnLCAnPG91dGZpbGUubWFlPic=

>  <r_lp_tautomer_probability>  (295) 
1

>  <r_epik_Ionization_Penalty>  (295) 
2.25275

>  <r_epik_Ionization_Penalty_Charging>  (295) 
2.25275

>  <r_epik_Ionization_Penalty_Neutral>  (295) 
9.56693e-07

>  <r_epik_State_Penalty>  (295) 
2.4

>  <r_epik_Charging_Adjusted_Penalty>  (295) 
4.65275

>  <i_epik_Tot_Q>  (295) 
1

>  <i_epik_Tot_abs_Q>  (295) 
1

>  <s_epik_Chemistry_Notes>  (295) 
This compound has an imine and may undergo hydrolysis.

>  <s_lp_Force_Field>  (295) 
OPLS3e

>  <r_lp_Energy>  (295) 
92.2024

>  <b_lp_Chiralities_Consistent>  (295) 
1

>  <s_lp_Variant>  (295) 
104:0-2

>  <s_i_glide_gridfile>  (295) 
pfpi4k_grid

>  <i_i_glide_lignum>  (295) 
22

>  <i_i_glide_rotatable_bonds>  (295) 
0

>  <r_i_docking_score>  (295) 
-3.16823

>  <r_i_glide_ligand_efficiency>  (295) 
-0.137749

>  <r_i_glide_ligand_efficiency_sa>  (295) 
-0.39174

>  <r_i_glide_ligand_efficiency_ln>  (295) 
-0.766106

>  <r_i_glide_gscore>  (295) 
-3.16823

>  <r_i_glide_lipo>  (295) 
-0.283263

>  <r_i_glide_hbond>  (295) 
-0.133558

>  <r_i_glide_metal>  (295) 
-0

>  <r_i_glide_rewards>  (295) 
-1.3097

>  <r_i_glide_evdw>  (295) 
-13.4573

>  <r_i_glide_ecoul>  (295) 
-4.58355

>  <r_i_glide_erotb>  (295) 
0

>  <r_i_glide_esite>  (295) 
-0.0813119

>  <r_i_glide_emodel>  (295) 
-24.3436

>  <r_i_glide_energy>  (295) 
-18.0409

>  <r_i_glide_einternal>  (295) 
0

>  <r_i_glide_intrahb_reward>  (295) 
-0

>  <i_i_glide_confnum>  (295) 
2

>  <i_i_glide_posenum>  (295) 
13

>  <r_i_glide_eff_state_penalty>  (295) 
0

>  <ligand_id>  (295) 
104

>  <original_smiles>  (295) 
CC1=NC23CCC(CC2(C)O1)C12CCc4nnnn4C1CC3C2

>  <smiles>  (295) 
[H][N+]1=C(C([H])([H])[H])OC2(C([H])([H])[H])C([H])([H])C3([H])C([H])([H])C([H])([H])C12C1([H])C([H])([H])C2([H])n4nnnc4C([H])([H])C([H])([H])C23C1([H])[H]

$$$$
105:0:0
     RDKit          3D

 81 87  0  0  1  0  0  0  0  0999 V2000
    6.1911   -9.7108    1.1494 C   0  0  0  0  0  0  0  0  0  0  0  0
    5.6218   -8.2824    1.2816 C   0  0  0  0  0  0  0  0  0  0  0  0
    5.1354   -7.8951    2.7220 C   0  0  2  0  0  0  0  0  0  0  0  0
    3.7345   -8.5474    2.9302 C   0  0  0  0  0  0  0  0  0  0  0  0
    3.2019   -8.6542    4.3193 N   0  0  2  0  0  0  0  0  0  0  0  0
    1.8511   -9.2570    4.3639 C   0  0  0  0  0  0  0  0  0  0  0  0
    1.8300  -10.7357    3.9804 C   0  0  0  0  0  0  0  0  0  0  0  0
    0.6299  -11.3135    3.2579 C   0  0  0  0  0  0  0  0  0  0  0  0
    0.8855  -11.6856    4.6856 C   0  0  0  0  0  0  0  0  0  0  0  0
    3.3537   -7.4783    5.2250 C   0  0  1  0  0  0  0  0  0  0  0  0
    4.8007   -7.0094    5.4052 C   0  0  0  0  0  0  0  0  0  0  0  0
    5.0848   -5.7867    4.4985 C   0  0  1  0  0  0  0  0  0  0  0  0
    5.2224   -6.3208    2.9989 C   0  0  1  0  0  0  0  0  0  0  0  0
    6.5521   -5.9574    2.5828 O   0  0  0  0  0  0  0  0  0  0  0  0
    7.7071   -6.5734    3.1698 C   0  0  0  0  0  0  0  0  0  0  0  0
    4.1767   -5.5949    2.0953 C   0  0  1  0  0  0  0  0  0  0  0  0
    2.7788   -5.4124    2.7628 C   0  0  0  0  0  0  0  0  0  0  0  0
    2.6841   -5.0327    4.2796 C   0  0  1  0  0  0  0  0  0  0  0  0
    1.4987   -3.9828    4.3777 C   0  0  0  0  0  0  0  0  0  0  0  0
    1.4057   -2.7626    3.4282 C   0  0  0  0  0  0  0  0  0  0  0  0
    2.2931   -6.3065    5.1407 C   0  0  2  0  0  0  0  0  0  0  0  0
    2.0168   -5.9794    6.5517 N   0  0  0  0  0  0  0  0  0  0  0  0
    0.6123   -6.0158    6.9536 C   0  0  0  0  0  0  0  0  0  0  0  0
    2.7278   -4.8454    7.1432 C   0  0  0  0  0  0  0  0  0  0  0  0
    4.0293   -4.4332    6.4168 C   0  0  0  0  0  0  0  0  0  0  0  0
    4.0816   -4.5716    4.8273 C   0  0  1  0  0  0  0  0  0  0  0  0
    4.4791   -3.1920    4.2653 C   0  0  0  0  0  0  0  0  0  0  0  0
    4.1130   -2.0268    4.9325 N   0  0  0  0  0  0  0  0  0  0  0  0
    4.4723   -0.8777    4.3515 N   0  0  0  0  0  0  0  0  0  0  0  0
    5.0476   -1.2927    3.2478 C   0  0  0  0  0  0  0  0  0  0  0  0
    5.0689   -2.7174    3.1234 C   0  0  0  0  0  0  0  0  0  0  0  0
    5.6274   -3.3818    1.9092 C   0  0  0  0  0  0  0  0  0  0  0  0
    4.6687   -4.3831    1.2378 C   0  0  1  0  0  0  0  0  0  0  0  0
    5.2702   -4.8271   -0.1122 C   0  0  0  0  0  0  0  0  0  0  0  0
    3.5875   -2.0158    5.7891 H   0  0  0  0  0  0  0  0  0  0  0  0
    6.5990   -9.8775    0.1492 H   0  0  0  0  0  0  0  0  0  0  0  0
    5.4306  -10.4722    1.3235 H   0  0  0  0  0  0  0  0  0  0  0  0
    7.0114   -9.8773    1.8463 H   0  0  0  0  0  0  0  0  0  0  0  0
    6.4147   -7.6185    0.9395 H   0  0  0  0  0  0  0  0  0  0  0  0
    4.8222   -8.1557    0.5466 H   0  0  0  0  0  0  0  0  0  0  0  0
    5.8387   -8.4213    3.3628 H   0  0  0  0  0  0  0  0  0  0  0  0
    2.9959   -8.1505    2.2418 H   0  0  0  0  0  0  0  0  0  0  0  0
    3.8408   -9.5791    2.5973 H   0  0  0  0  0  0  0  0  0  0  0  0
    1.4251   -9.1841    5.3708 H   0  0  0  0  0  0  0  0  0  0  0  0
    1.1704   -8.7149    3.7049 H   0  0  0  0  0  0  0  0  0  0  0  0
    2.7986  -11.1702    3.7128 H   0  0  0  0  0  0  0  0  0  0  0  0
   -0.2072  -10.6503    3.0486 H   0  0  0  0  0  0  0  0  0  0  0  0
    0.8025  -12.0961    2.5273 H   0  0  0  0  0  0  0  0  0  0  0  0
    1.2630  -12.6849    4.8851 H   0  0  0  0  0  0  0  0  0  0  0  0
    0.2124  -11.2869    5.4417 H   0  0  0  0  0  0  0  0  0  0  0  0
    3.1601   -7.9793    6.1807 H   0  0  0  0  0  0  0  0  0  0  0  0
    4.9702   -6.8136    6.4545 H   0  0  0  0  0  0  0  0  0  0  0  0
    5.5129   -7.8202    5.2688 H   0  0  0  0  0  0  0  0  0  0  0  0
    6.0535   -5.4016    4.8174 H   0  0  0  0  0  0  0  0  0  0  0  0
    8.5833   -5.9956    2.8773 H   0  0  0  0  0  0  0  0  0  0  0  0
    7.8702   -7.5865    2.8056 H   0  0  0  0  0  0  0  0  0  0  0  0
    7.6917   -6.6041    4.2576 H   0  0  0  0  0  0  0  0  0  0  0  0
    3.9226   -6.2930    1.2993 H   0  0  0  0  0  0  0  0  0  0  0  0
    2.2224   -4.7223    2.1418 H   0  0  0  0  0  0  0  0  0  0  0  0
    2.1846   -6.3085    2.6221 H   0  0  0  0  0  0  0  0  0  0  0  0
    0.5650   -4.5351    4.2609 H   0  0  0  0  0  0  0  0  0  0  0  0
    1.4399   -3.5555    5.3678 H   0  0  0  0  0  0  0  0  0  0  0  0
    0.7590   -2.0024    3.8677 H   0  0  0  0  0  0  0  0  0  0  0  0
    0.9605   -3.0370    2.4807 H   0  0  0  0  0  0  0  0  0  0  0  0
    2.3421   -2.2830    3.1741 H   0  0  0  0  0  0  0  0  0  0  0  0
    1.3653   -6.7214    4.7453 H   0  0  0  0  0  0  0  0  0  0  0  0
    0.5206   -5.9408    8.0405 H   0  0  0  0  0  0  0  0  0  0  0  0
    0.1444   -6.9541    6.6553 H   0  0  0  0  0  0  0  0  0  0  0  0
    0.0422   -5.1943    6.5194 H   0  0  0  0  0  0  0  0  0  0  0  0
    2.0628   -3.9819    7.2189 H   0  0  0  0  0  0  0  0  0  0  0  0
    2.9540   -5.0721    8.1874 H   0  0  0  0  0  0  0  0  0  0  0  0
    4.2085   -3.4308    6.7871 H   0  0  0  0  0  0  0  0  0  0  0  0
    4.8912   -4.8836    6.8960 H   0  0  0  0  0  0  0  0  0  0  0  0
    5.4114   -0.5521    2.5535 H   0  0  0  0  0  0  0  0  0  0  0  0
    5.8361   -2.6124    1.1665 H   0  0  0  0  0  0  0  0  0  0  0  0
    6.6164   -3.7818    2.1017 H   0  0  0  0  0  0  0  0  0  0  0  0
    3.7852   -3.8096    0.9587 H   0  0  0  0  0  0  0  0  0  0  0  0
    6.1915   -5.3939    0.0250 H   0  0  0  0  0  0  0  0  0  0  0  0
    5.5089   -3.9643   -0.7358 H   0  0  0  0  0  0  0  0  0  0  0  0
    4.5788   -5.4429   -0.6888 H   0  0  0  0  0  0  0  0  0  0  0  0
    3.7913   -9.3489    4.7609 H   0  0  0  0  0  0  0  0  0  0  0  0
  1  2  1  0
  1 36  1  0
  1 37  1  0
  1 38  1  0
  2  3  1  0
  2 39  1  0
  2 40  1  0
  3 13  1  0
  3  4  1  0
  3 41  1  1
  4  5  1  0
  4 42  1  0
  4 43  1  0
  5  6  1  0
  5 10  1  0
  5 81  1  1
  6  7  1  0
  6 44  1  0
  6 45  1  0
  7  9  1  0
  7  8  1  0
  7 46  1  0
  8  9  1  0
  8 47  1  0
  8 48  1  0
  9 49  1  0
  9 50  1  0
 10 21  1  0
 10 11  1  0
 10 51  1  1
 11 12  1  0
 11 52  1  0
 11 53  1  0
 12 26  1  0
 12 13  1  0
 12 54  1  1
 13 14  1  6
 13 16  1  0
 14 15  1  0
 15 55  1  0
 15 56  1  0
 15 57  1  0
 16 33  1  0
 16 17  1  0
 16 58  1  6
 17 18  1  0
 17 59  1  0
 17 60  1  0
 18 26  1  0
 18 19  1  6
 18 21  1  0
 19 20  1  0
 19 61  1  0
 19 62  1  0
 20 63  1  0
 20 64  1  0
 20 65  1  0
 21 22  1  0
 21 66  1  6
 22 23  1  0
 22 24  1  0
 23 67  1  0
 23 68  1  0
 23 69  1  0
 24 25  1  0
 24 70  1  0
 24 71  1  0
 26 25  1  1
 25 72  1  0
 25 73  1  0
 26 27  1  0
 27 31  2  0
 27 28  1  0
 28 35  1  0
 28 29  1  0
 29 30  2  0
 30 31  1  0
 30 74  1  0
 31 32  1  0
 32 33  1  0
 32 75  1  0
 32 76  1  0
 33 34  1  0
 33 77  1  6
 34 78  1  0
 34 79  1  0
 34 80  1  0
M  CHG  1   5   1
M  END
>  <i_m_ct_stereo_status>  (296) 
1

>  <s_m_source_file>  (296) 
/var/tmp/pbs.5076255.sched01/tmp_gsyjirk/108c9vsds16.sdf

>  <i_m_source_file_index>  (296) 
23

>  <i_lp_mmshare_version>  (296) 
48012

>  <i_f3d_flags>  (296) 
0

>  <s_epik_input>  (296) 
W0NIM11bQ0gyXVtDQEBIXTFbQ0gyXU4oW0NIMl1bQ0hdMltDSDJdW0NIMl0yKVtDQEBIXShbQ0gyXTMpW0NAQEhdKE4oW0NIM10pW0NIMl1bQ0gyXTQpW0NAXTUoW0NIMl1bQ0gzXSlbQ0gyXVtDQEhdKFtDQF0xKFtDQEhdM1tDQF00NTYpT1tDSDNdKVtDQEhdKFtDSDNdKVtDSDJdYzdjNltuSF1uW2NIXTc=

>  <s_epik_cmdline>  (296) 
J2VwaWtfcHl0aG9uJywgJy1waHQnLCAnMi4wJywgJy1waCcsICc3LjAnLCAnLXRuJywgJzgnLCAnLW1hJywgJzIwMCcsICctaW1hZScsICc8aW5maWxlLm1hZT4nLCAnLW9tYWUnLCAnPG91dGZpbGUubWFlPic=

>  <r_lp_tautomer_probability>  (296) 
0.5

>  <r_epik_Ionization_Penalty>  (296) 
0.0408789

>  <r_epik_Ionization_Penalty_Charging>  (296) 
0.00386616

>  <r_epik_Ionization_Penalty_Neutral>  (296) 
0.0370128

>  <r_epik_State_Penalty>  (296) 
0.584053

>  <r_epik_Charging_Adjusted_Penalty>  (296) 
0.587919

>  <i_epik_Tot_Q>  (296) 
1

>  <i_epik_Tot_abs_Q>  (296) 
1

>  <s_lp_Force_Field>  (296) 
OPLS3e

>  <r_lp_Energy>  (296) 
132

>  <b_lp_Chiralities_Consistent>  (296) 
1

>  <s_lp_Variant>  (296) 
105:0-1

>  <s_i_glide_gridfile>  (296) 
pfpi4k_grid

>  <i_i_glide_lignum>  (296) 
23

>  <i_i_glide_rotatable_bonds>  (296) 
5

>  <r_i_docking_score>  (296) 
-1.95445

>  <r_i_glide_ligand_efficiency>  (296) 
-0.0574837

>  <r_i_glide_ligand_efficiency_sa>  (296) 
-0.186225

>  <r_i_glide_ligand_efficiency_ln>  (296) 
-0.431792

>  <r_i_glide_gscore>  (296) 
-1.95445

>  <r_i_glide_lipo>  (296) 
-0.543291

>  <r_i_glide_hbond>  (296) 
0

>  <r_i_glide_metal>  (296) 
-0

>  <r_i_glide_rewards>  (296) 
-0.220161

>  <r_i_glide_evdw>  (296) 
-20.7226

>  <r_i_glide_ecoul>  (296) 
-2.25241

>  <r_i_glide_erotb>  (296) 
0.184541

>  <r_i_glide_esite>  (296) 
-0.00154163

>  <r_i_glide_emodel>  (296) 
-24.6318

>  <r_i_glide_energy>  (296) 
-22.975

>  <r_i_glide_einternal>  (296) 
2.59548

>  <r_i_glide_intrahb_reward>  (296) 
-0

>  <i_i_glide_confnum>  (296) 
2

>  <i_i_glide_posenum>  (296) 
13

>  <r_i_glide_eff_state_penalty>  (296) 
0

>  <ligand_id>  (296) 
105

>  <original_smiles>  (296) 
CCC1CN(CC2CC2)C2CC3C1(OC)C1CC4(CC)C2N(C)CCC34c2[nH]ncc2CC1C

>  <smiles>  (296) 
[H]c1nn([H])c2c1C([H])([H])C([H])(C([H])([H])[H])C1([H])C([H])([H])C3(C([H])([H])C([H])([H])[H])C4([H])N(C([H])([H])[H])C([H])([H])C([H])([H])C23C2([H])C([H])([H])C4([H])[N+]([H])(C([H])([H])C3([H])C([H])([H])C3([H])[H])C([H])([H])C([H])(C([H])([H])C([H])([H])[H])C12OC([H])([H])[H]

$$$$
105:0:1
     RDKit          3D

 81 87  0  0  1  0  0  0  0  0999 V2000
    3.8566   -9.1385    0.6584 C   0  0  0  0  0  0  0  0  0  0  0  0
    4.1344   -7.6376    0.9072 C   0  0  0  0  0  0  0  0  0  0  0  0
    3.7284   -7.0961    2.3258 C   0  0  2  0  0  0  0  0  0  0  0  0
    2.1879   -7.2449    2.4668 C   0  0  0  0  0  0  0  0  0  0  0  0
    1.5559   -7.1685    3.8058 N   0  0  2  0  0  0  0  0  0  0  0  0
    0.0795   -7.3449    3.7717 C   0  0  0  0  0  0  0  0  0  0  0  0
   -0.4129   -8.4303    2.8224 C   0  0  0  0  0  0  0  0  0  0  0  0
   -1.7480   -9.0948    3.0176 C   0  0  0  0  0  0  0  0  0  0  0  0
   -0.4709   -9.8637    3.2792 C   0  0  0  0  0  0  0  0  0  0  0  0
    2.0230   -6.1099    4.7427 C   0  0  1  0  0  0  0  0  0  0  0  0
    3.5382   -6.1222    4.9930 C   0  0  0  0  0  0  0  0  0  0  0  0
    4.2445   -5.0664    4.1094 C   0  0  1  0  0  0  0  0  0  0  0  0
    4.2921   -5.6316    2.6149 C   0  0  1  0  0  0  0  0  0  0  0  0
    5.6853   -5.7257    2.2615 O   0  0  0  0  0  0  0  0  0  0  0  0
    6.5512   -6.6596    2.9181 C   0  0  0  0  0  0  0  0  0  0  0  0
    3.5769   -4.6227    1.6655 C   0  0  1  0  0  0  0  0  0  0  0  0
    2.2734   -4.0084    2.2586 C   0  0  0  0  0  0  0  0  0  0  0  0
    2.2208   -3.5933    3.7670 C   0  0  1  0  0  0  0  0  0  0  0  0
    1.4284   -2.2191    3.8026 C   0  0  0  0  0  0  0  0  0  0  0  0
    1.7108   -1.0887    2.7791 C   0  0  0  0  0  0  0  0  0  0  0  0
    1.4042   -4.6520    4.6089 C   0  0  2  0  0  0  0  0  0  0  0  0
    1.1723   -4.2470    6.0024 N   0  0  0  0  0  0  0  0  0  0  0  0
   -0.1923   -3.8322    6.3238 C   0  0  0  0  0  0  0  0  0  0  0  0
    2.1715   -3.3832    6.6282 C   0  0  0  0  0  0  0  0  0  0  0  0
    3.5719   -3.4150    5.9749 C   0  0  0  0  0  0  0  0  0  0  0  0
    3.6607   -3.5897    4.3887 C   0  0  1  0  0  0  0  0  0  0  0  0
    4.4899   -2.4112    3.8492 C   0  0  0  0  0  0  0  0  0  0  0  0
    4.4576   -1.1745    4.4895 N   0  0  0  0  0  0  0  0  0  0  0  0
    5.1973   -0.2101    3.9317 N   0  0  0  0  0  0  0  0  0  0  0  0
    5.6796   -0.8115    2.8687 C   0  0  0  0  0  0  0  0  0  0  0  0
    5.2593   -2.1662    2.7465 C   0  0  0  0  0  0  0  0  0  0  0  0
    5.6579   -2.9893    1.5688 C   0  0  0  0  0  0  0  0  0  0  0  0
    4.4698   -3.6415    0.8379 C   0  0  1  0  0  0  0  0  0  0  0  0
    4.9662   -4.2690   -0.4823 C   0  0  0  0  0  0  0  0  0  0  0  0
    3.9245   -0.9884    5.3219 H   0  0  0  0  0  0  0  0  0  0  0  0
    4.2206   -9.4345   -0.3174 H   0  0  0  0  0  0  0  0  0  0  0  0
    2.7932   -9.3992    0.6399 H   0  0  0  0  0  0  0  0  0  0  0  0
    4.3424   -9.7690    1.4040 H   0  0  0  0  0  0  0  0  0  0  0  0
    5.2012   -7.5073    0.7334 H   0  0  0  0  0  0  0  0  0  0  0  0
    3.6806   -7.0595    0.1029 H   0  0  0  0  0  0  0  0  0  0  0  0
    4.1840   -7.8193    2.9960 H   0  0  0  0  0  0  0  0  0  0  0  0
    1.6472   -6.6772    1.7131 H   0  0  0  0  0  0  0  0  0  0  0  0
    2.0059   -8.2836    2.2066 H   0  0  0  0  0  0  0  0  0  0  0  0
   -0.2830   -7.5728    4.7843 H   0  0  0  0  0  0  0  0  0  0  0  0
   -0.4285   -6.4374    3.4552 H   0  0  0  0  0  0  0  0  0  0  0  0
   -0.1841   -8.2512    1.7683 H   0  0  0  0  0  0  0  0  0  0  0  0
   -2.3475   -8.7941    3.8749 H   0  0  0  0  0  0  0  0  0  0  0  0
   -2.3079   -9.3737    2.1269 H   0  0  0  0  0  0  0  0  0  0  0  0
   -0.1771  -10.6226    2.5588 H   0  0  0  0  0  0  0  0  0  0  0  0
   -0.1861  -10.0580    4.3125 H   0  0  0  0  0  0  0  0  0  0  0  0
    1.6251   -6.5189    5.6782 H   0  0  0  0  0  0  0  0  0  0  0  0
    3.7134   -5.9799    6.0520 H   0  0  0  0  0  0  0  0  0  0  0  0
    3.9610   -7.1186    4.8901 H   0  0  0  0  0  0  0  0  0  0  0  0
    5.2678   -5.0006    4.4805 H   0  0  0  0  0  0  0  0  0  0  0  0
    7.5792   -6.3933    2.6788 H   0  0  0  0  0  0  0  0  0  0  0  0
    6.4093   -7.6824    2.5691 H   0  0  0  0  0  0  0  0  0  0  0  0
    6.4605   -6.6688    4.0025 H   0  0  0  0  0  0  0  0  0  0  0  0
    3.1393   -5.1949    0.8525 H   0  0  0  0  0  0  0  0  0  0  0  0
    1.9989   -3.2010    1.5970 H   0  0  0  0  0  0  0  0  0  0  0  0
    1.4379   -4.6773    2.0944 H   0  0  0  0  0  0  0  0  0  0  0  0
    0.3645   -2.4431    3.7121 H   0  0  0  0  0  0  0  0  0  0  0  0
    1.5320   -1.7465    4.7682 H   0  0  0  0  0  0  0  0  0  0  0  0
    1.3562   -0.1403    3.1761 H   0  0  0  0  0  0  0  0  0  0  0  0
    1.1931   -1.2421    1.8338 H   0  0  0  0  0  0  0  0  0  0  0  0
    2.7622   -0.9574    2.5431 H   0  0  0  0  0  0  0  0  0  0  0  0
    0.4139   -4.7231    4.1645 H   0  0  0  0  0  0  0  0  0  0  0  0
   -0.3148   -3.7201    7.4073 H   0  0  0  0  0  0  0  0  0  0  0  0
   -0.9150   -4.5804    6.0017 H   0  0  0  0  0  0  0  0  0  0  0  0
   -0.4518   -2.8811    5.8640 H   0  0  0  0  0  0  0  0  0  0  0  0
    1.8078   -2.3541    6.6659 H   0  0  0  0  0  0  0  0  0  0  0  0
    2.2570   -3.6552    7.6846 H   0  0  0  0  0  0  0  0  0  0  0  0
    4.0453   -2.5153    6.3491 H   0  0  0  0  0  0  0  0  0  0  0  0
    4.2192   -4.1127    6.4960 H   0  0  0  0  0  0  0  0  0  0  0  0
    6.3148   -0.2561    2.2007 H   0  0  0  0  0  0  0  0  0  0  0  0
    6.1430   -2.3373    0.8427 H   0  0  0  0  0  0  0  0  0  0  0  0
    6.4557   -3.6755    1.8316 H   0  0  0  0  0  0  0  0  0  0  0  0
    3.8311   -2.8204    0.5144 H   0  0  0  0  0  0  0  0  0  0  0  0
    5.6500   -5.1027   -0.3015 H   0  0  0  0  0  0  0  0  0  0  0  0
    5.5009   -3.5356   -1.0867 H   0  0  0  0  0  0  0  0  0  0  0  0
    4.1465   -4.6387   -1.0944 H   0  0  0  0  0  0  0  0  0  0  0  0
    1.8820   -8.0202    4.2500 H   0  0  0  0  0  0  0  0  0  0  0  0
  1  2  1  0
  1 36  1  0
  1 37  1  0
  1 38  1  0
  2  3  1  0
  2 39  1  0
  2 40  1  0
  3 13  1  0
  3  4  1  0
  3 41  1  1
  4  5  1  0
  4 42  1  0
  4 43  1  0
  5  6  1  0
  5 10  1  0
  5 81  1  1
  6  7  1  0
  6 44  1  0
  6 45  1  0
  7  9  1  0
  7  8  1  0
  7 46  1  0
  8  9  1  0
  8 47  1  0
  8 48  1  0
  9 49  1  0
  9 50  1  0
 10 21  1  0
 10 11  1  0
 10 51  1  1
 11 12  1  0
 11 52  1  0
 11 53  1  0
 12 26  1  0
 12 13  1  0
 12 54  1  1
 13 14  1  6
 13 16  1  0
 14 15  1  0
 15 55  1  0
 15 56  1  0
 15 57  1  0
 16 33  1  0
 16 17  1  0
 16 58  1  6
 17 18  1  0
 17 59  1  0
 17 60  1  0
 18 26  1  0
 18 19  1  6
 18 21  1  0
 19 20  1  0
 19 61  1  0
 19 62  1  0
 20 63  1  0
 20 64  1  0
 20 65  1  0
 21 22  1  0
 21 66  1  6
 22 23  1  0
 22 24  1  0
 23 67  1  0
 23 68  1  0
 23 69  1  0
 24 25  1  0
 24 70  1  0
 24 71  1  0
 26 25  1  1
 25 72  1  0
 25 73  1  0
 26 27  1  0
 27 31  2  0
 27 28  1  0
 28 35  1  0
 28 29  1  0
 29 30  2  0
 30 31  1  0
 30 74  1  0
 31 32  1  0
 32 33  1  0
 32 75  1  0
 32 76  1  0
 33 34  1  0
 33 77  1  6
 34 78  1  0
 34 79  1  0
 34 80  1  0
M  CHG  1   5   1
M  END
>  <i_m_ct_stereo_status>  (297) 
1

>  <s_m_source_file>  (297) 
/var/tmp/pbs.5076255.sched01/tmp_gsyjirk/108c9vsds16.sdf

>  <i_m_source_file_index>  (297) 
23

>  <i_lp_mmshare_version>  (297) 
48012

>  <i_f3d_flags>  (297) 
0

>  <s_epik_input>  (297) 
W0NIM11bQ0gyXVtDQEBIXTFbQ0gyXU4oW0NIMl1bQ0hdMltDSDJdW0NIMl0yKVtDQEBIXShbQ0gyXTMpW0NAQEhdKE4oW0NIM10pW0NIMl1bQ0gyXTQpW0NAXTUoW0NIMl1bQ0gzXSlbQ0gyXVtDQEhdKFtDQF0xKFtDQEhdM1tDQF00NTYpT1tDSDNdKVtDQEhdKFtDSDNdKVtDSDJdYzdjNltuSF1uW2NIXTc=

>  <s_epik_cmdline>  (297) 
J2VwaWtfcHl0aG9uJywgJy1waHQnLCAnMi4wJywgJy1waCcsICc3LjAnLCAnLXRuJywgJzgnLCAnLW1hJywgJzIwMCcsICctaW1hZScsICc8aW5maWxlLm1hZT4nLCAnLW9tYWUnLCAnPG91dGZpbGUubWFlPic=

>  <r_lp_tautomer_probability>  (297) 
0.5

>  <r_epik_Ionization_Penalty>  (297) 
0.0408789

>  <r_epik_Ionization_Penalty_Charging>  (297) 
0.00386616

>  <r_epik_Ionization_Penalty_Neutral>  (297) 
0.0370128

>  <r_epik_State_Penalty>  (297) 
0.584053

>  <r_epik_Charging_Adjusted_Penalty>  (297) 
0.587919

>  <i_epik_Tot_Q>  (297) 
1

>  <i_epik_Tot_abs_Q>  (297) 
1

>  <s_lp_Force_Field>  (297) 
OPLS3e

>  <r_lp_Energy>  (297) 
132

>  <b_lp_Chiralities_Consistent>  (297) 
1

>  <s_lp_Variant>  (297) 
105:0-1

>  <s_i_glide_gridfile>  (297) 
pfpi4k_grid

>  <i_i_glide_lignum>  (297) 
23

>  <i_i_glide_rotatable_bonds>  (297) 
5

>  <r_i_docking_score>  (297) 
-1.90101

>  <r_i_glide_ligand_efficiency>  (297) 
-0.055912

>  <r_i_glide_ligand_efficiency_sa>  (297) 
-0.181133

>  <r_i_glide_ligand_efficiency_ln>  (297) 
-0.419986

>  <r_i_glide_gscore>  (297) 
-1.90101

>  <r_i_glide_lipo>  (297) 
-0.446599

>  <r_i_glide_hbond>  (297) 
0

>  <r_i_glide_metal>  (297) 
-0

>  <r_i_glide_rewards>  (297) 
-0.220161

>  <r_i_glide_evdw>  (297) 
-23.4085

>  <r_i_glide_ecoul>  (297) 
-1.59605

>  <r_i_glide_erotb>  (297) 
0.184541

>  <r_i_glide_esite>  (297) 
-0.00895538

>  <r_i_glide_emodel>  (297) 
-25.5009

>  <r_i_glide_energy>  (297) 
-25.0046

>  <r_i_glide_einternal>  (297) 
4.30796

>  <r_i_glide_intrahb_reward>  (297) 
-0

>  <i_i_glide_confnum>  (297) 
4

>  <i_i_glide_posenum>  (297) 
17

>  <r_i_glide_eff_state_penalty>  (297) 
0

>  <ligand_id>  (297) 
105

>  <original_smiles>  (297) 
CCC1CN(CC2CC2)C2CC3C1(OC)C1CC4(CC)C2N(C)CCC34c2[nH]ncc2CC1C

>  <smiles>  (297) 
[H]c1nn([H])c2c1C([H])([H])C([H])(C([H])([H])[H])C1([H])C([H])([H])C3(C([H])([H])C([H])([H])[H])C4([H])N(C([H])([H])[H])C([H])([H])C([H])([H])C23C2([H])C([H])([H])C4([H])[N+]([H])(C([H])([H])C3([H])C([H])([H])C3([H])[H])C([H])([H])C([H])(C([H])([H])C([H])([H])[H])C12OC([H])([H])[H]

$$$$
105:0:2
     RDKit          3D

 81 87  0  0  1  0  0  0  0  0999 V2000
    3.8315    0.2432    1.1313 C   0  0  0  0  0  0  0  0  0  0  0  0
    3.3816   -0.6861    2.2778 C   0  0  0  0  0  0  0  0  0  0  0  0
    4.0553   -2.1081    2.3381 C   0  0  2  0  0  0  0  0  0  0  0  0
    3.8615   -2.7994    0.9595 C   0  0  0  0  0  0  0  0  0  0  0  0
    4.7013   -3.9669    0.5978 N   0  0  2  0  0  0  0  0  0  0  0  0
    4.4027   -4.4975   -0.7466 C   0  0  0  0  0  0  0  0  0  0  0  0
    4.3209   -3.4364   -1.8467 C   0  0  0  0  0  0  0  0  0  0  0  0
    4.6834   -3.7337   -3.2803 C   0  0  0  0  0  0  0  0  0  0  0  0
    5.5816   -2.8559   -2.4453 C   0  0  0  0  0  0  0  0  0  0  0  0
    4.9212   -5.0187    1.6236 C   0  0  1  0  0  0  0  0  0  0  0  0
    5.5034   -4.4903    2.9402 C   0  0  0  0  0  0  0  0  0  0  0  0
    4.3805   -4.2937    3.9897 C   0  0  1  0  0  0  0  0  0  0  0  0
    3.5733   -2.9682    3.5947 C   0  0  1  0  0  0  0  0  0  0  0  0
    3.7066   -2.0613    4.7042 O   0  0  0  0  0  0  0  0  0  0  0  0
    4.9878   -1.5355    5.0808 C   0  0  0  0  0  0  0  0  0  0  0  0
    2.0708   -3.3391    3.3947 C   0  0  1  0  0  0  0  0  0  0  0  0
    1.8420   -4.6841    2.6444 C   0  0  0  0  0  0  0  0  0  0  0  0
    2.7511   -5.9209    2.9589 C   0  0  1  0  0  0  0  0  0  0  0  0
    1.7833   -7.1761    2.9789 C   0  0  0  0  0  0  0  0  0  0  0  0
    0.3846   -7.1084    3.6407 C   0  0  0  0  0  0  0  0  0  0  0  0
    3.8148   -6.1372    1.8069 C   0  0  2  0  0  0  0  0  0  0  0  0
    4.5996   -7.3721    1.9536 N   0  0  0  0  0  0  0  0  0  0  0  0
    4.2624   -8.4506    1.0251 C   0  0  0  0  0  0  0  0  0  0  0  0
    4.8282   -7.8688    3.3092 C   0  0  0  0  0  0  0  0  0  0  0  0
    4.6914   -6.8095    4.4302 C   0  0  0  0  0  0  0  0  0  0  0  0
    3.5875   -5.6688    4.2581 C   0  0  1  0  0  0  0  0  0  0  0  0
    2.6898   -5.7122    5.5099 C   0  0  0  0  0  0  0  0  0  0  0  0
    2.4503   -6.9169    6.1611 N   0  0  0  0  0  0  0  0  0  0  0  0
    1.6458   -6.8552    7.2284 N   0  0  0  0  0  0  0  0  0  0  0  0
    1.3127   -5.5867    7.2559 C   0  0  0  0  0  0  0  0  0  0  0  0
    1.8995   -4.8280    6.1931 C   0  0  0  0  0  0  0  0  0  0  0  0
    1.5720   -3.3882    5.9982 C   0  0  0  0  0  0  0  0  0  0  0  0
    1.0866   -3.0478    4.5754 C   0  0  1  0  0  0  0  0  0  0  0  0
    0.5573   -1.5992    4.5549 C   0  0  0  0  0  0  0  0  0  0  0  0
    2.8555   -7.7958    5.8846 H   0  0  0  0  0  0  0  0  0  0  0  0
    3.3778    1.2281    1.2561 H   0  0  0  0  0  0  0  0  0  0  0  0
    3.5091   -0.1240    0.1557 H   0  0  0  0  0  0  0  0  0  0  0  0
    4.9131    0.3703    1.1101 H   0  0  0  0  0  0  0  0  0  0  0  0
    3.5812   -0.1394    3.1991 H   0  0  0  0  0  0  0  0  0  0  0  0
    2.2960   -0.7370    2.2172 H   0  0  0  0  0  0  0  0  0  0  0  0
    5.1098   -1.8585    2.4289 H   0  0  0  0  0  0  0  0  0  0  0  0
    2.8133   -2.9286    0.6984 H   0  0  0  0  0  0  0  0  0  0  0  0
    4.2394   -2.0715    0.2496 H   0  0  0  0  0  0  0  0  0  0  0  0
    5.1632   -5.2345   -1.0423 H   0  0  0  0  0  0  0  0  0  0  0  0
    3.4397   -5.0037   -0.7265 H   0  0  0  0  0  0  0  0  0  0  0  0
    3.4631   -2.7615   -1.7504 H   0  0  0  0  0  0  0  0  0  0  0  0
    5.0117   -4.7452   -3.5147 H   0  0  0  0  0  0  0  0  0  0  0  0
    4.0993   -3.2463   -4.0565 H   0  0  0  0  0  0  0  0  0  0  0  0
    5.5702   -1.7870   -2.6420 H   0  0  0  0  0  0  0  0  0  0  0  0
    6.5283   -3.2689   -2.0982 H   0  0  0  0  0  0  0  0  0  0  0  0
    5.7855   -5.5230    1.1707 H   0  0  0  0  0  0  0  0  0  0  0  0
    6.2834   -5.1629    3.2660 H   0  0  0  0  0  0  0  0  0  0  0  0
    6.1017   -3.5957    2.7830 H   0  0  0  0  0  0  0  0  0  0  0  0
    4.8847   -4.1281    4.9412 H   0  0  0  0  0  0  0  0  0  0  0  0
    4.8820   -1.0855    6.0679 H   0  0  0  0  0  0  0  0  0  0  0  0
    5.3331   -0.7501    4.4116 H   0  0  0  0  0  0  0  0  0  0  0  0
    5.7811   -2.2759    5.1573 H   0  0  0  0  0  0  0  0  0  0  0  0
    1.6650   -2.6628    2.6467 H   0  0  0  0  0  0  0  0  0  0  0  0
    0.7919   -4.9001    2.7601 H   0  0  0  0  0  0  0  0  0  0  0  0
    1.8817   -4.5317    1.5721 H   0  0  0  0  0  0  0  0  0  0  0  0
    1.6130   -7.4888    1.9486 H   0  0  0  0  0  0  0  0  0  0  0  0
    2.2709   -8.0187    3.4519 H   0  0  0  0  0  0  0  0  0  0  0  0
    0.0390   -8.1168    3.8672 H   0  0  0  0  0  0  0  0  0  0  0  0
   -0.3609   -6.6737    2.9781 H   0  0  0  0  0  0  0  0  0  0  0  0
    0.3677   -6.5462    4.5696 H   0  0  0  0  0  0  0  0  0  0  0  0
    3.2684   -6.2550    0.8736 H   0  0  0  0  0  0  0  0  0  0  0  0
    4.9984   -9.2567    1.0824 H   0  0  0  0  0  0  0  0  0  0  0  0
    4.2581   -8.0907   -0.0039 H   0  0  0  0  0  0  0  0  0  0  0  0
    3.2862   -8.8866    1.2396 H   0  0  0  0  0  0  0  0  0  0  0  0
    4.1608   -8.7090    3.5124 H   0  0  0  0  0  0  0  0  0  0  0  0
    5.8237   -8.3181    3.3532 H   0  0  0  0  0  0  0  0  0  0  0  0
    4.5756   -7.4051    5.3285 H   0  0  0  0  0  0  0  0  0  0  0  0
    5.6638   -6.4035    4.6848 H   0  0  0  0  0  0  0  0  0  0  0  0
    0.6332   -5.2553    8.0227 H   0  0  0  0  0  0  0  0  0  0  0  0
    0.7522   -3.1294    6.6690 H   0  0  0  0  0  0  0  0  0  0  0  0
    2.3780   -2.7563    6.3604 H   0  0  0  0  0  0  0  0  0  0  0  0
    0.1976   -3.6554    4.4096 H   0  0  0  0  0  0  0  0  0  0  0  0
    1.3531   -0.8759    4.7399 H   0  0  0  0  0  0  0  0  0  0  0  0
   -0.2032   -1.4491    5.3221 H   0  0  0  0  0  0  0  0  0  0  0  0
    0.0924   -1.3468    3.6021 H   0  0  0  0  0  0  0  0  0  0  0  0
    5.6229   -3.5569    0.4986 H   0  0  0  0  0  0  0  0  0  0  0  0
  1  2  1  0
  1 36  1  0
  1 37  1  0
  1 38  1  0
  2  3  1  0
  2 39  1  0
  2 40  1  0
  3 13  1  0
  3  4  1  0
  3 41  1  1
  4  5  1  0
  4 42  1  0
  4 43  1  0
  5  6  1  0
  5 10  1  0
  5 81  1  6
  6  7  1  0
  6 44  1  0
  6 45  1  0
  7  9  1  0
  7  8  1  0
  7 46  1  0
  8  9  1  0
  8 47  1  0
  8 48  1  0
  9 49  1  0
  9 50  1  0
 10 21  1  0
 10 11  1  0
 10 51  1  6
 11 12  1  0
 11 52  1  0
 11 53  1  0
 12 26  1  0
 12 13  1  0
 12 54  1  1
 13 14  1  1
 13 16  1  0
 14 15  1  0
 15 55  1  0
 15 56  1  0
 15 57  1  0
 16 33  1  0
 16 17  1  0
 16 58  1  6
 17 18  1  0
 17 59  1  0
 17 60  1  0
 18 26  1  0
 18 19  1  1
 18 21  1  0
 19 20  1  0
 19 61  1  0
 19 62  1  0
 20 63  1  0
 20 64  1  0
 20 65  1  0
 21 22  1  0
 21 66  1  6
 22 23  1  0
 22 24  1  0
 23 67  1  0
 23 68  1  0
 23 69  1  0
 24 25  1  0
 24 70  1  0
 24 71  1  0
 26 25  1  1
 25 72  1  0
 25 73  1  0
 26 27  1  0
 27 31  2  0
 27 28  1  0
 28 35  1  0
 28 29  1  0
 29 30  2  0
 30 31  1  0
 30 74  1  0
 31 32  1  0
 32 33  1  0
 32 75  1  0
 32 76  1  0
 33 34  1  0
 33 77  1  6
 34 78  1  0
 34 79  1  0
 34 80  1  0
M  CHG  1   5   1
M  END
>  <i_m_ct_stereo_status>  (298) 
1

>  <s_m_source_file>  (298) 
/var/tmp/pbs.5076255.sched01/tmp_gsyjirk/108c9vsds16.sdf

>  <i_m_source_file_index>  (298) 
23

>  <i_lp_mmshare_version>  (298) 
48012

>  <i_f3d_flags>  (298) 
0

>  <s_epik_input>  (298) 
W0NIM11bQ0gyXVtDQEBIXTFbQ0gyXU4oW0NIMl1bQ0hdMltDSDJdW0NIMl0yKVtDQEBIXShbQ0gyXTMpW0NAQEhdKE4oW0NIM10pW0NIMl1bQ0gyXTQpW0NAXTUoW0NIMl1bQ0gzXSlbQ0gyXVtDQEhdKFtDQF0xKFtDQEhdM1tDQF00NTYpT1tDSDNdKVtDQEhdKFtDSDNdKVtDSDJdYzdjNltuSF1uW2NIXTc=

>  <s_epik_cmdline>  (298) 
J2VwaWtfcHl0aG9uJywgJy1waHQnLCAnMi4wJywgJy1waCcsICc3LjAnLCAnLXRuJywgJzgnLCAnLW1hJywgJzIwMCcsICctaW1hZScsICc8aW5maWxlLm1hZT4nLCAnLW9tYWUnLCAnPG91dGZpbGUubWFlPic=

>  <r_lp_tautomer_probability>  (298) 
0.5

>  <r_epik_Ionization_Penalty>  (298) 
0.0408789

>  <r_epik_Ionization_Penalty_Charging>  (298) 
0.00386616

>  <r_epik_Ionization_Penalty_Neutral>  (298) 
0.0370128

>  <r_epik_State_Penalty>  (298) 
0.584053

>  <r_epik_Charging_Adjusted_Penalty>  (298) 
0.587919

>  <i_epik_Tot_Q>  (298) 
1

>  <i_epik_Tot_abs_Q>  (298) 
1

>  <s_lp_Force_Field>  (298) 
OPLS3e

>  <r_lp_Energy>  (298) 
132

>  <b_lp_Chiralities_Consistent>  (298) 
1

>  <s_lp_Variant>  (298) 
105:0-1

>  <s_i_glide_gridfile>  (298) 
pfpi4k_grid

>  <i_i_glide_lignum>  (298) 
23

>  <i_i_glide_rotatable_bonds>  (298) 
5

>  <r_i_docking_score>  (298) 
-1.86622

>  <r_i_glide_ligand_efficiency>  (298) 
-0.0548887

>  <r_i_glide_ligand_efficiency_sa>  (298) 
-0.177818

>  <r_i_glide_ligand_efficiency_ln>  (298) 
-0.4123

>  <r_i_glide_gscore>  (298) 
-1.86622

>  <r_i_glide_lipo>  (298) 
-0.3468

>  <r_i_glide_hbond>  (298) 
0

>  <r_i_glide_metal>  (298) 
-0

>  <r_i_glide_rewards>  (298) 
-0.220161

>  <r_i_glide_evdw>  (298) 
-21.7313

>  <r_i_glide_ecoul>  (298) 
-2.6482

>  <r_i_glide_erotb>  (298) 
0.184541

>  <r_i_glide_esite>  (298) 
0

>  <r_i_glide_emodel>  (298) 
-24.502

>  <r_i_glide_energy>  (298) 
-24.3796

>  <r_i_glide_einternal>  (298) 
5.02175

>  <r_i_glide_intrahb_reward>  (298) 
-0

>  <i_i_glide_confnum>  (298) 
3

>  <i_i_glide_posenum>  (298) 
12

>  <r_i_glide_eff_state_penalty>  (298) 
0

>  <ligand_id>  (298) 
105

>  <original_smiles>  (298) 
CCC1CN(CC2CC2)C2CC3C1(OC)C1CC4(CC)C2N(C)CCC34c2[nH]ncc2CC1C

>  <smiles>  (298) 
[H]c1nn([H])c2c1C([H])([H])C([H])(C([H])([H])[H])C1([H])C([H])([H])C3(C([H])([H])C([H])([H])[H])C4([H])N(C([H])([H])[H])C([H])([H])C([H])([H])C23C2([H])C([H])([H])C4([H])[N+]([H])(C([H])([H])C3([H])C([H])([H])C3([H])[H])C([H])([H])C([H])(C([H])([H])C([H])([H])[H])C12OC([H])([H])[H]

$$$$
105:1:0
     RDKit          3D

 81 87  0  0  1  0  0  0  0  0999 V2000
    3.4062    4.9003    3.1051 C   0  0  0  0  0  0  0  0  0  0  0  0
    2.1959    4.2977    3.8420 C   0  0  0  0  0  0  0  0  0  0  0  0
    2.5156    3.0767    4.7791 C   0  0  2  0  0  0  0  0  0  0  0  0
    2.9361    1.8464    3.8900 C   0  0  0  0  0  0  0  0  0  0  0  0
    3.5492    0.6206    4.4747 N   0  0  2  0  0  0  0  0  0  0  0  0
    3.7203   -0.4486    3.4910 C   0  0  0  0  0  0  0  0  0  0  0  0
    4.9415   -0.2588    2.5947 C   0  0  0  0  0  0  0  0  0  0  0  0
    4.8061   -0.1475    1.0893 C   0  0  0  0  0  0  0  0  0  0  0  0
    5.4065   -1.3828    1.6887 C   0  0  0  0  0  0  0  0  0  0  0  0
    3.1240    0.1468    5.8146 C   0  0  1  0  0  0  0  0  0  0  0  0
    3.1495    1.2471    6.8746 C   0  0  0  0  0  0  0  0  0  0  0  0
    1.7559    1.8694    7.0304 C   0  0  1  0  0  0  0  0  0  0  0  0
    1.3310    2.7750    5.7919 C   0  0  1  0  0  0  0  0  0  0  0  0
    0.8751    4.0150    6.3614 O   0  0  0  0  0  0  0  0  0  0  0  0
    1.7661    4.9032    7.0479 C   0  0  0  0  0  0  0  0  0  0  0  0
    0.1160    2.1707    4.9715 C   0  0  1  0  0  0  0  0  0  0  0  0
    0.1120    0.6303    4.8889 C   0  0  0  0  0  0  0  0  0  0  0  0
    0.4829   -0.1396    6.1903 C   0  0  1  0  0  0  0  0  0  0  0  0
   -0.6493   -1.1989    6.4374 C   0  0  0  0  0  0  0  0  0  0  0  0
   -0.7753   -2.3472    5.4252 C   0  0  0  0  0  0  0  0  0  0  0  0
    1.8729   -0.8307    5.9278 C   0  0  2  0  0  0  0  0  0  0  0  0
    2.0398   -1.8645    6.9566 N   0  0  0  0  0  0  0  0  0  0  0  0
    3.0300   -2.9031    6.6792 C   0  0  0  0  0  0  0  0  0  0  0  0
    2.1812   -1.3346    8.3057 C   0  0  0  0  0  0  0  0  0  0  0  0
    1.2105   -0.1556    8.6164 C   0  0  0  0  0  0  0  0  0  0  0  0
    0.7049    0.7905    7.4466 C   0  0  1  0  0  0  0  0  0  0  0  0
   -0.5080    1.5474    8.0379 C   0  0  0  0  0  0  0  0  0  0  0  0
   -0.4068    1.9309    9.3168 N   0  0  0  0  0  0  0  0  0  0  0  0
   -1.5395    2.5928    9.6096 N   0  0  0  0  0  0  0  0  0  0  0  0
   -2.3528    2.6977    8.5133 C   0  0  0  0  0  0  0  0  0  0  0  0
   -1.7310    2.0782    7.4808 C   0  0  0  0  0  0  0  0  0  0  0  0
   -2.2601    2.0602    6.0896 C   0  0  0  0  0  0  0  0  0  0  0  0
   -1.3391    2.7272    5.0658 C   0  0  1  0  0  0  0  0  0  0  0  0
   -1.5196    4.2515    5.0482 C   0  0  0  0  0  0  0  0  0  0  0  0
   -1.7189    2.9671   10.5309 H   0  0  0  0  0  0  0  0  0  0  0  0
    3.1151    5.7980    2.5563 H   0  0  0  0  0  0  0  0  0  0  0  0
    3.8134    4.2168    2.3621 H   0  0  0  0  0  0  0  0  0  0  0  0
    4.1919    5.1887    3.8038 H   0  0  0  0  0  0  0  0  0  0  0  0
    1.7669    5.1224    4.4090 H   0  0  0  0  0  0  0  0  0  0  0  0
    1.4357    4.0587    3.0960 H   0  0  0  0  0  0  0  0  0  0  0  0
    3.3894    3.4111    5.3312 H   0  0  0  0  0  0  0  0  0  0  0  0
    2.1553    1.6141    3.1625 H   0  0  0  0  0  0  0  0  0  0  0  0
    3.7515    2.2189    3.2800 H   0  0  0  0  0  0  0  0  0  0  0  0
    3.8608   -1.4274    3.9664 H   0  0  0  0  0  0  0  0  0  0  0  0
    2.8308   -0.5605    2.8559 H   0  0  0  0  0  0  0  0  0  0  0  0
    5.7645    0.2899    3.0693 H   0  0  0  0  0  0  0  0  0  0  0  0
    3.8056   -0.2218    0.6620 H   0  0  0  0  0  0  0  0  0  0  0  0
    5.4904    0.5093    0.5639 H   0  0  0  0  0  0  0  0  0  0  0  0
    6.4776   -1.5176    1.5515 H   0  0  0  0  0  0  0  0  0  0  0  0
    4.8141   -2.2975    1.6510 H   0  0  0  0  0  0  0  0  0  0  0  0
    3.9892   -0.4695    6.0846 H   0  0  0  0  0  0  0  0  0  0  0  0
    3.4763    0.8589    7.8285 H   0  0  0  0  0  0  0  0  0  0  0  0
    3.9393    1.9730    6.6750 H   0  0  0  0  0  0  0  0  0  0  0  0
    1.8754    2.4947    7.9089 H   0  0  0  0  0  0  0  0  0  0  0  0
    1.2260    5.8342    7.2157 H   0  0  0  0  0  0  0  0  0  0  0  0
    2.6582    5.1630    6.4806 H   0  0  0  0  0  0  0  0  0  0  0  0
    2.0747    4.5463    8.0271 H   0  0  0  0  0  0  0  0  0  0  0  0
    0.2969    2.4625    3.9374 H   0  0  0  0  0  0  0  0  0  0  0  0
   -0.8515    0.2966    4.5059 H   0  0  0  0  0  0  0  0  0  0  0  0
    0.7607    0.3076    4.0825 H   0  0  0  0  0  0  0  0  0  0  0  0
   -0.5433   -1.6677    7.4107 H   0  0  0  0  0  0  0  0  0  0  0  0
   -1.6121   -0.7035    6.4782 H   0  0  0  0  0  0  0  0  0  0  0  0
   -1.6047   -2.9890    5.7164 H   0  0  0  0  0  0  0  0  0  0  0  0
    0.1119   -2.9812    5.4114 H   0  0  0  0  0  0  0  0  0  0  0  0
   -0.9612   -1.9935    4.4130 H   0  0  0  0  0  0  0  0  0  0  0  0
    1.7924   -1.3948    4.9937 H   0  0  0  0  0  0  0  0  0  0  0  0
    2.9307   -3.7147    7.4053 H   0  0  0  0  0  0  0  0  0  0  0  0
    4.0569   -2.5397    6.7425 H   0  0  0  0  0  0  0  0  0  0  0  0
    2.8758   -3.3409    5.6913 H   0  0  0  0  0  0  0  0  0  0  0  0
    1.9791   -2.1428    9.0128 H   0  0  0  0  0  0  0  0  0  0  0  0
    3.2176   -1.0591    8.4927 H   0  0  0  0  0  0  0  0  0  0  0  0
    0.3419   -0.6089    9.0929 H   0  0  0  0  0  0  0  0  0  0  0  0
    1.6647    0.4362    9.4119 H   0  0  0  0  0  0  0  0  0  0  0  0
   -3.2932    3.2358    8.5589 H   0  0  0  0  0  0  0  0  0  0  0  0
   -3.2275    2.5642    6.0572 H   0  0  0  0  0  0  0  0  0  0  0  0
   -2.4949    1.0518    5.7700 H   0  0  0  0  0  0  0  0  0  0  0  0
   -1.7928    2.4432    4.1159 H   0  0  0  0  0  0  0  0  0  0  0  0
   -1.3784    4.6816    6.0403 H   0  0  0  0  0  0  0  0  0  0  0  0
   -2.5348    4.4864    4.7424 H   0  0  0  0  0  0  0  0  0  0  0  0
   -0.8349    4.7396    4.3526 H   0  0  0  0  0  0  0  0  0  0  0  0
    4.4979    0.9250    4.6680 H   0  0  0  0  0  0  0  0  0  0  0  0
  1  2  1  0
  1 36  1  0
  1 37  1  0
  1 38  1  0
  2  3  1  0
  2 39  1  0
  2 40  1  0
  3 13  1  0
  3  4  1  0
  3 41  1  1
  4  5  1  0
  4 42  1  0
  4 43  1  0
  5  6  1  0
  5 10  1  0
  5 81  1  1
  6  7  1  0
  6 44  1  0
  6 45  1  0
  7  9  1  0
  7  8  1  0
  7 46  1  0
  8  9  1  0
  8 47  1  0
  8 48  1  0
  9 49  1  0
  9 50  1  0
 10 21  1  0
 10 11  1  0
 10 51  1  1
 11 12  1  0
 11 52  1  0
 11 53  1  0
 12 26  1  0
 12 13  1  0
 12 54  1  1
 13 14  1  1
 13 16  1  0
 14 15  1  0
 15 55  1  0
 15 56  1  0
 15 57  1  0
 16 33  1  0
 16 17  1  0
 16 58  1  6
 17 18  1  0
 17 59  1  0
 17 60  1  0
 18 26  1  0
 18 19  1  1
 18 21  1  0
 19 20  1  0
 19 61  1  0
 19 62  1  0
 20 63  1  0
 20 64  1  0
 20 65  1  0
 21 22  1  0
 21 66  1  6
 22 23  1  0
 22 24  1  0
 23 67  1  0
 23 68  1  0
 23 69  1  0
 24 25  1  0
 24 70  1  0
 24 71  1  0
 26 25  1  1
 25 72  1  0
 25 73  1  0
 26 27  1  0
 27 28  2  0
 27 31  1  0
 28 29  1  0
 29 35  1  0
 29 30  1  0
 30 74  1  0
 30 31  2  0
 31 32  1  0
 32 33  1  0
 32 75  1  0
 32 76  1  0
 33 34  1  0
 33 77  1  6
 34 78  1  0
 34 79  1  0
 34 80  1  0
M  CHG  1   5   1
M  END
>  <i_m_ct_stereo_status>  (299) 
1

>  <s_m_source_file>  (299) 
/var/tmp/pbs.5076255.sched01/tmp_gsyjirk/108c9vsds16.sdf

>  <i_m_source_file_index>  (299) 
24

>  <i_lp_mmshare_version>  (299) 
48012

>  <i_f3d_flags>  (299) 
0

>  <s_epik_input>  (299) 
W0NIM11bQ0gyXVtDQEBIXTFbQ0gyXU4oW0NIMl1bQ0hdMltDSDJdW0NIMl0yKVtDQEBIXShbQ0gyXTMpW0NAQEhdKE4oW0NIM10pW0NIMl1bQ0gyXTQpW0NAXTUoW0NIMl1bQ0gzXSlbQ0gyXVtDQEhdKFtDQF0xKFtDQEhdM1tDQF00NTYpT1tDSDNdKVtDQEhdKFtDSDNdKVtDSDJdYzdjNltuSF1uW2NIXTc=

>  <s_epik_cmdline>  (299) 
J2VwaWtfcHl0aG9uJywgJy1waHQnLCAnMi4wJywgJy1waCcsICc3LjAnLCAnLXRuJywgJzgnLCAnLW1hJywgJzIwMCcsICctaW1hZScsICc8aW5maWxlLm1hZT4nLCAnLW9tYWUnLCAnPG91dGZpbGUubWFlPic=

>  <r_lp_tautomer_probability>  (299) 
0.5

>  <r_epik_Ionization_Penalty>  (299) 
0.052962

>  <r_epik_Ionization_Penalty_Charging>  (299) 
0.00322879

>  <r_epik_Ionization_Penalty_Neutral>  (299) 
0.0497332

>  <r_epik_State_Penalty>  (299) 
0.62805

>  <r_epik_Charging_Adjusted_Penalty>  (299) 
0.631279

>  <i_epik_Tot_Q>  (299) 
1

>  <i_epik_Tot_abs_Q>  (299) 
1

>  <s_lp_Force_Field>  (299) 
OPLS3e

>  <r_lp_Energy>  (299) 
122.526

>  <b_lp_Chiralities_Consistent>  (299) 
1

>  <s_lp_Variant>  (299) 
105:0-2

>  <s_i_glide_gridfile>  (299) 
pfpi4k_grid

>  <i_i_glide_lignum>  (299) 
24

>  <i_i_glide_rotatable_bonds>  (299) 
5

>  <r_i_docking_score>  (299) 
-2.01416

>  <r_i_glide_ligand_efficiency>  (299) 
-0.05924

>  <r_i_glide_ligand_efficiency_sa>  (299) 
-0.191915

>  <r_i_glide_ligand_efficiency_ln>  (299) 
-0.444985

>  <r_i_glide_gscore>  (299) 
-2.01416

>  <r_i_glide_lipo>  (299) 
-0.482504

>  <r_i_glide_hbond>  (299) 
0

>  <r_i_glide_metal>  (299) 
-0

>  <r_i_glide_rewards>  (299) 
-0.220161

>  <r_i_glide_evdw>  (299) 
-19.0913

>  <r_i_glide_ecoul>  (299) 
-3.34906

>  <r_i_glide_erotb>  (299) 
0.184541

>  <r_i_glide_esite>  (299) 
-0.0391129

>  <r_i_glide_emodel>  (299) 
-25.6118

>  <r_i_glide_energy>  (299) 
-22.4404

>  <r_i_glide_einternal>  (299) 
1.31038

>  <r_i_glide_intrahb_reward>  (299) 
-0

>  <i_i_glide_confnum>  (299) 
5

>  <i_i_glide_posenum>  (299) 
37

>  <r_i_glide_eff_state_penalty>  (299) 
0

>  <ligand_id>  (299) 
105

>  <original_smiles>  (299) 
CCC1CN(CC2CC2)C2CC3C1(OC)C1CC4(CC)C2N(C)CCC34c2[nH]ncc2CC1C

>  <smiles>  (299) 
[H]c1c2c(nn1[H])C13C([H])([H])C([H])([H])N(C([H])([H])[H])C4([H])C1(C([H])([H])C([H])([H])[H])C([H])([H])C([H])(C([H])(C([H])([H])[H])C2([H])[H])C1(OC([H])([H])[H])C3([H])C([H])([H])C4([H])[N+]([H])(C([H])([H])C2([H])C([H])([H])C2([H])[H])C([H])([H])C1([H])C([H])([H])C([H])([H])[H]

$$$$
105:1:1
     RDKit          3D

 81 87  0  0  1  0  0  0  0  0999 V2000
    2.6053   -2.3448    7.0536 C   0  0  0  0  0  0  0  0  0  0  0  0
    2.6346   -3.3387    5.8729 C   0  0  0  0  0  0  0  0  0  0  0  0
    3.5536   -2.9232    4.6693 C   0  0  2  0  0  0  0  0  0  0  0  0
    2.8719   -1.7238    3.9203 C   0  0  0  0  0  0  0  0  0  0  0  0
    3.5846   -0.8951    2.9010 N   0  0  2  0  0  0  0  0  0  0  0  0
    2.7092    0.0662    2.2227 C   0  0  0  0  0  0  0  0  0  0  0  0
    1.9527    1.0323    3.1478 C   0  0  0  0  0  0  0  0  0  0  0  0
    0.9592    2.0280    2.5983 C   0  0  0  0  0  0  0  0  0  0  0  0
    2.2647    2.5109    3.1680 C   0  0  0  0  0  0  0  0  0  0  0  0
    4.5786   -1.5425    2.0033 C   0  0  1  0  0  0  0  0  0  0  0  0
    5.5924   -2.3926    2.7622 C   0  0  0  0  0  0  0  0  0  0  0  0
    5.1740   -3.8694    2.7942 C   0  0  1  0  0  0  0  0  0  0  0  0
    3.9278   -4.1521    3.7441 C   0  0  1  0  0  0  0  0  0  0  0  0
    4.3057   -5.2652    4.5713 O   0  0  0  0  0  0  0  0  0  0  0  0
    5.3591   -5.1538    5.5348 C   0  0  0  0  0  0  0  0  0  0  0  0
    2.6311   -4.5854    2.9502 C   0  0  1  0  0  0  0  0  0  0  0  0
    2.4976   -3.8995    1.5770 C   0  0  0  0  0  0  0  0  0  0  0  0
    3.7767   -3.7469    0.7132 C   0  0  1  0  0  0  0  0  0  0  0  0
    3.4487   -4.3201   -0.7076 C   0  0  0  0  0  0  0  0  0  0  0  0
    2.3671   -3.5873   -1.5364 C   0  0  0  0  0  0  0  0  0  0  0  0
    4.0986   -2.2104    0.6400 C   0  0  2  0  0  0  0  0  0  0  0  0
    5.0514   -2.0367   -0.4628 N   0  0  0  0  0  0  0  0  0  0  0  0
    5.1729   -0.6905   -0.9883 C   0  0  0  0  0  0  0  0  0  0  0  0
    6.3502   -2.6504   -0.2384 C   0  0  0  0  0  0  0  0  0  0  0  0
    6.2636   -4.0627    0.4124 C   0  0  0  0  0  0  0  0  0  0  0  0
    5.0417   -4.4371    1.3474 C   0  0  1  0  0  0  0  0  0  0  0  0
    5.0766   -5.9806    1.4588 C   0  0  0  0  0  0  0  0  0  0  0  0
    6.2917   -6.5397    1.5676 N   0  0  0  0  0  0  0  0  0  0  0  0
    6.0895   -7.8620    1.6922 N   0  0  0  0  0  0  0  0  0  0  0  0
    4.7534   -8.1650    1.7262 C   0  0  0  0  0  0  0  0  0  0  0  0
    4.0668   -7.0033    1.6215 C   0  0  0  0  0  0  0  0  0  0  0  0
    2.5791   -6.9124    1.7190 C   0  0  0  0  0  0  0  0  0  0  0  0
    2.1020   -6.0585    2.9024 C   0  0  1  0  0  0  0  0  0  0  0  0
    2.0873   -6.8536    4.2244 C   0  0  0  0  0  0  0  0  0  0  0  0
    6.8517   -8.5124    1.7867 H   0  0  0  0  0  0  0  0  0  0  0  0
    2.0309   -2.7595    7.8862 H   0  0  0  0  0  0  0  0  0  0  0  0
    2.1335   -1.3968    6.7977 H   0  0  0  0  0  0  0  0  0  0  0  0
    3.6087   -2.1395    7.4277 H   0  0  0  0  0  0  0  0  0  0  0  0
    2.9542   -4.2893    6.2986 H   0  0  0  0  0  0  0  0  0  0  0  0
    1.6064   -3.5144    5.5516 H   0  0  0  0  0  0  0  0  0  0  0  0
    4.4504   -2.5532    5.1566 H   0  0  0  0  0  0  0  0  0  0  0  0
    1.8639   -1.9818    3.5863 H   0  0  0  0  0  0  0  0  0  0  0  0
    2.7151   -1.0305    4.7429 H   0  0  0  0  0  0  0  0  0  0  0  0
    3.2947    0.6817    1.5217 H   0  0  0  0  0  0  0  0  0  0  0  0
    1.9623   -0.4428    1.6052 H   0  0  0  0  0  0  0  0  0  0  0  0
    1.5842    0.6059    4.0824 H   0  0  0  0  0  0  0  0  0  0  0  0
    0.8123    2.0607    1.5170 H   0  0  0  0  0  0  0  0  0  0  0  0
    0.0646    2.1970    3.1926 H   0  0  0  0  0  0  0  0  0  0  0  0
    2.2540    2.9949    4.1405 H   0  0  0  0  0  0  0  0  0  0  0  0
    3.0129    2.8837    2.4703 H   0  0  0  0  0  0  0  0  0  0  0  0
    5.1720   -0.6735    1.6964 H   0  0  0  0  0  0  0  0  0  0  0  0
    6.5519   -2.3149    2.2917 H   0  0  0  0  0  0  0  0  0  0  0  0
    5.8076   -1.9742    3.7454 H   0  0  0  0  0  0  0  0  0  0  0  0
    6.0502   -4.3632    3.1989 H   0  0  0  0  0  0  0  0  0  0  0  0
    5.3208   -6.0513    6.1495 H   0  0  0  0  0  0  0  0  0  0  0  0
    5.2550   -4.3082    6.2132 H   0  0  0  0  0  0  0  0  0  0  0  0
    6.3521   -5.1229    5.0937 H   0  0  0  0  0  0  0  0  0  0  0  0
    1.7963   -4.1642    3.5107 H   0  0  0  0  0  0  0  0  0  0  0  0
    1.7805   -4.4611    1.0027 H   0  0  0  0  0  0  0  0  0  0  0  0
    2.0054   -2.9373    1.6787 H   0  0  0  0  0  0  0  0  0  0  0  0
    4.3354   -4.3710   -1.3383 H   0  0  0  0  0  0  0  0  0  0  0  0
    3.1628   -5.3625   -0.6062 H   0  0  0  0  0  0  0  0  0  0  0  0
    2.2040   -4.0824   -2.4942 H   0  0  0  0  0  0  0  0  0  0  0  0
    2.6613   -2.5677   -1.7794 H   0  0  0  0  0  0  0  0  0  0  0  0
    1.4047   -3.5585   -1.0406 H   0  0  0  0  0  0  0  0  0  0  0  0
    3.1984   -1.6943    0.2941 H   0  0  0  0  0  0  0  0  0  0  0  0
    5.7394   -0.6978   -1.9232 H   0  0  0  0  0  0  0  0  0  0  0  0
    5.6895   -0.0291   -0.2873 H   0  0  0  0  0  0  0  0  0  0  0  0
    4.1954   -0.2667   -1.2168 H   0  0  0  0  0  0  0  0  0  0  0  0
    6.8523   -2.7489   -1.2046 H   0  0  0  0  0  0  0  0  0  0  0  0
    6.9852   -1.9802    0.3391 H   0  0  0  0  0  0  0  0  0  0  0  0
    6.2627   -4.7643   -0.4185 H   0  0  0  0  0  0  0  0  0  0  0  0
    7.2079   -4.2423    0.9280 H   0  0  0  0  0  0  0  0  0  0  0  0
    4.4114   -9.1865    1.8627 H   0  0  0  0  0  0  0  0  0  0  0  0
    2.1444   -7.9086    1.8157 H   0  0  0  0  0  0  0  0  0  0  0  0
    2.1466   -6.5545    0.7907 H   0  0  0  0  0  0  0  0  0  0  0  0
    1.0372   -5.9488    2.7006 H   0  0  0  0  0  0  0  0  0  0  0  0
    3.0610   -7.2941    4.4444 H   0  0  0  0  0  0  0  0  0  0  0  0
    1.3821   -7.6831    4.1734 H   0  0  0  0  0  0  0  0  0  0  0  0
    1.7957   -6.2291    5.0695 H   0  0  0  0  0  0  0  0  0  0  0  0
    4.1846   -0.3127    3.4763 H   0  0  0  0  0  0  0  0  0  0  0  0
  1  2  1  0
  1 36  1  0
  1 37  1  0
  1 38  1  0
  2  3  1  0
  2 39  1  0
  2 40  1  0
  3 13  1  0
  3  4  1  0
  3 41  1  1
  4  5  1  0
  4 42  1  0
  4 43  1  0
  5  6  1  0
  5 10  1  0
  5 81  1  1
  6  7  1  0
  6 44  1  0
  6 45  1  0
  7  9  1  0
  7  8  1  0
  7 46  1  0
  8  9  1  0
  8 47  1  0
  8 48  1  0
  9 49  1  0
  9 50  1  0
 10 21  1  0
 10 11  1  0
 10 51  1  6
 11 12  1  0
 11 52  1  0
 11 53  1  0
 12 26  1  0
 12 13  1  0
 12 54  1  1
 13 14  1  1
 13 16  1  0
 14 15  1  0
 15 55  1  0
 15 56  1  0
 15 57  1  0
 16 33  1  0
 16 17  1  0
 16 58  1  1
 17 18  1  0
 17 59  1  0
 17 60  1  0
 18 26  1  0
 18 19  1  6
 18 21  1  0
 19 20  1  0
 19 61  1  0
 19 62  1  0
 20 63  1  0
 20 64  1  0
 20 65  1  0
 21 22  1  0
 21 66  1  6
 22 23  1  0
 22 24  1  0
 23 67  1  0
 23 68  1  0
 23 69  1  0
 24 25  1  0
 24 70  1  0
 24 71  1  0
 26 25  1  6
 25 72  1  0
 25 73  1  0
 26 27  1  0
 27 28  2  0
 27 31  1  0
 28 29  1  0
 29 35  1  0
 29 30  1  0
 30 74  1  0
 30 31  2  0
 31 32  1  0
 32 33  1  0
 32 75  1  0
 32 76  1  0
 33 34  1  0
 33 77  1  6
 34 78  1  0
 34 79  1  0
 34 80  1  0
M  CHG  1   5   1
M  END
>  <i_m_ct_stereo_status>  (300) 
1

>  <s_m_source_file>  (300) 
/var/tmp/pbs.5076255.sched01/tmp_gsyjirk/108c9vsds16.sdf

>  <i_m_source_file_index>  (300) 
24

>  <i_lp_mmshare_version>  (300) 
48012

>  <i_f3d_flags>  (300) 
0

>  <s_epik_input>  (300) 
W0NIM11bQ0gyXVtDQEBIXTFbQ0gyXU4oW0NIMl1bQ0hdMltDSDJdW0NIMl0yKVtDQEBIXShbQ0gyXTMpW0NAQEhdKE4oW0NIM10pW0NIMl1bQ0gyXTQpW0NAXTUoW0NIMl1bQ0gzXSlbQ0gyXVtDQEhdKFtDQF0xKFtDQEhdM1tDQF00NTYpT1tDSDNdKVtDQEhdKFtDSDNdKVtDSDJdYzdjNltuSF1uW2NIXTc=

>  <s_epik_cmdline>  (300) 
J2VwaWtfcHl0aG9uJywgJy1waHQnLCAnMi4wJywgJy1waCcsICc3LjAnLCAnLXRuJywgJzgnLCAnLW1hJywgJzIwMCcsICctaW1hZScsICc8aW5maWxlLm1hZT4nLCAnLW9tYWUnLCAnPG91dGZpbGUubWFlPic=

>  <r_lp_tautomer_probability>  (300) 
0.5

>  <r_epik_Ionization_Penalty>  (300) 
0.052962

>  <r_epik_Ionization_Penalty_Charging>  (300) 
0.00322879

>  <r_epik_Ionization_Penalty_Neutral>  (300) 
0.0497332

>  <r_epik_State_Penalty>  (300) 
0.62805

>  <r_epik_Charging_Adjusted_Penalty>  (300) 
0.631279

>  <i_epik_Tot_Q>  (300) 
1

>  <i_epik_Tot_abs_Q>  (300) 
1

>  <s_lp_Force_Field>  (300) 
OPLS3e

>  <r_lp_Energy>  (300) 
122.526

>  <b_lp_Chiralities_Consistent>  (300) 
1

>  <s_lp_Variant>  (300) 
105:0-2

>  <s_i_glide_gridfile>  (300) 
pfpi4k_grid

>  <i_i_glide_lignum>  (300) 
24

>  <i_i_glide_rotatable_bonds>  (300) 
5

>  <r_i_docking_score>  (300) 
-1.93389

>  <r_i_glide_ligand_efficiency>  (300) 
-0.0568791

>  <r_i_glide_ligand_efficiency_sa>  (300) 
-0.184266

>  <r_i_glide_ligand_efficiency_ln>  (300) 
-0.42725

>  <r_i_glide_gscore>  (300) 
-1.93389

>  <r_i_glide_lipo>  (300) 
-0.461849

>  <r_i_glide_hbond>  (300) 
0

>  <r_i_glide_metal>  (300) 
-0

>  <r_i_glide_rewards>  (300) 
-0.220161

>  <r_i_glide_evdw>  (300) 
-21.3233

>  <r_i_glide_ecoul>  (300) 
-2.46836

>  <r_i_glide_erotb>  (300) 
0.184541

>  <r_i_glide_esite>  (300) 
0

>  <r_i_glide_emodel>  (300) 
-27.0297

>  <r_i_glide_energy>  (300) 
-23.7917

>  <r_i_glide_einternal>  (300) 
0.820213

>  <r_i_glide_intrahb_reward>  (300) 
-0

>  <i_i_glide_confnum>  (300) 
5

>  <i_i_glide_posenum>  (300) 
4

>  <r_i_glide_eff_state_penalty>  (300) 
0

>  <ligand_id>  (300) 
105

>  <original_smiles>  (300) 
CCC1CN(CC2CC2)C2CC3C1(OC)C1CC4(CC)C2N(C)CCC34c2[nH]ncc2CC1C

>  <smiles>  (300) 
[H]c1c2c(nn1[H])C13C([H])([H])C([H])([H])N(C([H])([H])[H])C4([H])C1(C([H])([H])C([H])([H])[H])C([H])([H])C([H])(C([H])(C([H])([H])[H])C2([H])[H])C1(OC([H])([H])[H])C3([H])C([H])([H])C4([H])[N+]([H])(C([H])([H])C2([H])C([H])([H])C2([H])[H])C([H])([H])C1([H])C([H])([H])C([H])([H])[H]

$$$$
105:1:2
     RDKit          3D

 81 87  0  0  1  0  0  0  0  0999 V2000
    2.1322    5.6117    3.4205 C   0  0  0  0  0  0  0  0  0  0  0  0
    1.8227    4.1594    2.9690 C   0  0  0  0  0  0  0  0  0  0  0  0
    2.3757    2.9690    3.8597 C   0  0  2  0  0  0  0  0  0  0  0  0
    2.6585    1.7543    2.9079 C   0  0  0  0  0  0  0  0  0  0  0  0
    3.4582    0.5437    3.3776 N   0  0  2  0  0  0  0  0  0  0  0  0
    3.4765   -0.5751    2.3731 C   0  0  0  0  0  0  0  0  0  0  0  0
    4.1781   -0.1886    1.0795 C   0  0  0  0  0  0  0  0  0  0  0  0
    4.5465   -1.2556    0.0681 C   0  0  0  0  0  0  0  0  0  0  0  0
    5.6244   -0.5766    0.8594 C   0  0  0  0  0  0  0  0  0  0  0  0
    3.3532    0.0502    4.8022 C   0  0  1  0  0  0  0  0  0  0  0  0
    3.5268    1.1862    5.7917 C   0  0  0  0  0  0  0  0  0  0  0  0
    2.1632    1.7398    6.2258 C   0  0  1  0  0  0  0  0  0  0  0  0
    1.4497    2.6115    5.1163 C   0  0  1  0  0  0  0  0  0  0  0  0
    1.0830    3.8364    5.7577 O   0  0  0  0  0  0  0  0  0  0  0  0
    2.0643    4.7139    6.3307 C   0  0  0  0  0  0  0  0  0  0  0  0
    0.1223    1.9327    4.5382 C   0  0  1  0  0  0  0  0  0  0  0  0
    0.1811    0.3859    4.4970 C   0  0  0  0  0  0  0  0  0  0  0  0
    0.8443   -0.3350    5.7019 C   0  0  1  0  0  0  0  0  0  0  0  0
   -0.1637   -1.4367    6.2048 C   0  0  0  0  0  0  0  0  0  0  0  0
   -0.4822   -2.5827    5.2281 C   0  0  0  0  0  0  0  0  0  0  0  0
    2.1902   -0.9759    5.1623 C   0  0  2  0  0  0  0  0  0  0  0  0
    2.6196   -1.9734    6.1617 N   0  0  0  0  0  0  0  0  0  0  0  0
    3.5820   -2.9777    5.7044 C   0  0  0  0  0  0  0  0  0  0  0  0
    2.9948   -1.4014    7.4536 C   0  0  0  0  0  0  0  0  0  0  0  0
    2.0546   -0.2648    7.9284 C   0  0  0  0  0  0  0  0  0  0  0  0
    1.2675    0.6303    6.8773 C   0  0  1  0  0  0  0  0  0  0  0  0
    0.1603    1.3608    7.6926 C   0  0  0  0  0  0  0  0  0  0  0  0
    0.4984    1.7850    8.9096 N   0  0  0  0  0  0  0  0  0  0  0  0
   -0.5769    2.4009    9.4108 N   0  0  0  0  0  0  0  0  0  0  0  0
   -1.6053    2.4365    8.5184 C   0  0  0  0  0  0  0  0  0  0  0  0
   -1.1669    1.8062    7.3808 C   0  0  0  0  0  0  0  0  0  0  0  0
   -1.9752    1.7183    6.1255 C   0  0  0  0  0  0  0  0  0  0  0  0
   -1.3152    2.4231    4.9352 C   0  0  1  0  0  0  0  0  0  0  0  0
   -1.5692    3.9427    4.9426 C   0  0  0  0  0  0  0  0  0  0  0  0
   -0.5889    2.8057   10.3402 H   0  0  0  0  0  0  0  0  0  0  0  0
    1.7447    6.3206    2.6820 H   0  0  0  0  0  0  0  0  0  0  0  0
    3.2104    5.7685    3.4757 H   0  0  0  0  0  0  0  0  0  0  0  0
    1.7051    5.8489    4.3501 H   0  0  0  0  0  0  0  0  0  0  0  0
    0.7408    4.0858    2.8747 H   0  0  0  0  0  0  0  0  0  0  0  0
    2.1923    4.0438    1.9579 H   0  0  0  0  0  0  0  0  0  0  0  0
    3.3458    3.3327    4.2034 H   0  0  0  0  0  0  0  0  0  0  0  0
    1.7763    1.4212    2.3678 H   0  0  0  0  0  0  0  0  0  0  0  0
    3.2879    2.1535    2.1290 H   0  0  0  0  0  0  0  0  0  0  0  0
    3.9922   -1.4335    2.7922 H   0  0  0  0  0  0  0  0  0  0  0  0
    2.4618   -0.8929    2.1483 H   0  0  0  0  0  0  0  0  0  0  0  0
    3.8449    0.7411    0.6171 H   0  0  0  0  0  0  0  0  0  0  0  0
    4.3083   -2.2924    0.3070 H   0  0  0  0  0  0  0  0  0  0  0  0
    4.4680   -0.9942   -0.9893 H   0  0  0  0  0  0  0  0  0  0  0  0
    6.2567    0.1408    0.3361 H   0  0  0  0  0  0  0  0  0  0  0  0
    6.1189   -1.1412    1.6533 H   0  0  0  0  0  0  0  0  0  0  0  0
    4.2774   -0.5051    4.8723 H   0  0  0  0  0  0  0  0  0  0  0  0
    4.0673    0.8384    6.6804 H   0  0  0  0  0  0  0  0  0  0  0  0
    4.2194    1.9410    5.4300 H   0  0  0  0  0  0  0  0  0  0  0  0
    2.4381    2.3725    7.0598 H   0  0  0  0  0  0  0  0  0  0  0  0
    1.5506    5.6634    6.5242 H   0  0  0  0  0  0  0  0  0  0  0  0
    2.8496    4.9683    5.6066 H   0  0  0  0  0  0  0  0  0  0  0  0
    2.4722    4.4122    7.2703 H   0  0  0  0  0  0  0  0  0  0  0  0
    0.0793    2.1880    3.4887 H   0  0  0  0  0  0  0  0  0  0  0  0
   -0.8236    0.0105    4.3089 H   0  0  0  0  0  0  0  0  0  0  0  0
    0.6711    0.0716    3.5741 H   0  0  0  0  0  0  0  0  0  0  0  0
    0.1871   -1.9073    7.1177 H   0  0  0  0  0  0  0  0  0  0  0  0
   -1.0983   -0.9782    6.4936 H   0  0  0  0  0  0  0  0  0  0  0  0
   -1.1968   -3.2640    5.6882 H   0  0  0  0  0  0  0  0  0  0  0  0
    0.4019   -3.1734    4.9921 H   0  0  0  0  0  0  0  0  0  0  0  0
   -0.9152   -2.2341    4.2906 H   0  0  0  0  0  0  0  0  0  0  0  0
    1.9583   -1.5694    4.2879 H   0  0  0  0  0  0  0  0  0  0  0  0
    3.6730   -3.7706    6.4427 H   0  0  0  0  0  0  0  0  0  0  0  0
    4.5761   -2.5628    5.5497 H   0  0  0  0  0  0  0  0  0  0  0  0
    3.2506   -3.4419    4.7757 H   0  0  0  0  0  0  0  0  0  0  0  0
    2.9822   -2.2037    8.1882 H   0  0  0  0  0  0  0  0  0  0  0  0
    4.0310   -1.0746    7.4211 H   0  0  0  0  0  0  0  0  0  0  0  0
    1.3239   -0.7409    8.5854 H   0  0  0  0  0  0  0  0  0  0  0  0
    2.6299    0.3696    8.6036 H   0  0  0  0  0  0  0  0  0  0  0  0
   -2.5362    2.9308    8.7467 H   0  0  0  0  0  0  0  0  0  0  0  0
   -2.9612    2.1589    6.2813 H   0  0  0  0  0  0  0  0  0  0  0  0
   -2.1991    0.6910    5.8733 H   0  0  0  0  0  0  0  0  0  0  0  0
   -1.9370    2.0998    4.0936 H   0  0  0  0  0  0  0  0  0  0  0  0
   -1.2554    4.4081    5.8758 H   0  0  0  0  0  0  0  0  0  0  0  0
   -2.6361    4.1365    4.8380 H   0  0  0  0  0  0  0  0  0  0  0  0
   -1.0727    4.4516    4.1173 H   0  0  0  0  0  0  0  0  0  0  0  0
    4.4041    0.8919    3.3570 H   0  0  0  0  0  0  0  0  0  0  0  0
  1  2  1  0
  1 36  1  0
  1 37  1  0
  1 38  1  0
  2  3  1  0
  2 39  1  0
  2 40  1  0
  3 13  1  0
  3  4  1  0
  3 41  1  1
  4  5  1  0
  4 42  1  0
  4 43  1  0
  5  6  1  0
  5 10  1  0
  5 81  1  1
  6  7  1  0
  6 44  1  0
  6 45  1  0
  7  9  1  0
  7  8  1  0
  7 46  1  0
  8  9  1  0
  8 47  1  0
  8 48  1  0
  9 49  1  0
  9 50  1  0
 10 21  1  0
 10 11  1  0
 10 51  1  1
 11 12  1  0
 11 52  1  0
 11 53  1  0
 12 26  1  0
 12 13  1  0
 12 54  1  1
 13 14  1  1
 13 16  1  0
 14 15  1  0
 15 55  1  0
 15 56  1  0
 15 57  1  0
 16 33  1  0
 16 17  1  0
 16 58  1  6
 17 18  1  0
 17 59  1  0
 17 60  1  0
 18 26  1  0
 18 19  1  1
 18 21  1  0
 19 20  1  0
 19 61  1  0
 19 62  1  0
 20 63  1  0
 20 64  1  0
 20 65  1  0
 21 22  1  0
 21 66  1  6
 22 23  1  0
 22 24  1  0
 23 67  1  0
 23 68  1  0
 23 69  1  0
 24 25  1  0
 24 70  1  0
 24 71  1  0
 26 25  1  1
 25 72  1  0
 25 73  1  0
 26 27  1  0
 27 28  2  0
 27 31  1  0
 28 29  1  0
 29 35  1  0
 29 30  1  0
 30 74  1  0
 30 31  2  0
 31 32  1  0
 32 33  1  0
 32 75  1  0
 32 76  1  0
 33 34  1  0
 33 77  1  6
 34 78  1  0
 34 79  1  0
 34 80  1  0
M  CHG  1   5   1
M  END
>  <i_m_ct_stereo_status>  (301) 
1

>  <s_m_source_file>  (301) 
/var/tmp/pbs.5076255.sched01/tmp_gsyjirk/108c9vsds16.sdf

>  <i_m_source_file_index>  (301) 
24

>  <i_lp_mmshare_version>  (301) 
48012

>  <i_f3d_flags>  (301) 
0

>  <s_epik_input>  (301) 
W0NIM11bQ0gyXVtDQEBIXTFbQ0gyXU4oW0NIMl1bQ0hdMltDSDJdW0NIMl0yKVtDQEBIXShbQ0gyXTMpW0NAQEhdKE4oW0NIM10pW0NIMl1bQ0gyXTQpW0NAXTUoW0NIMl1bQ0gzXSlbQ0gyXVtDQEhdKFtDQF0xKFtDQEhdM1tDQF00NTYpT1tDSDNdKVtDQEhdKFtDSDNdKVtDSDJdYzdjNltuSF1uW2NIXTc=

>  <s_epik_cmdline>  (301) 
J2VwaWtfcHl0aG9uJywgJy1waHQnLCAnMi4wJywgJy1waCcsICc3LjAnLCAnLXRuJywgJzgnLCAnLW1hJywgJzIwMCcsICctaW1hZScsICc8aW5maWxlLm1hZT4nLCAnLW9tYWUnLCAnPG91dGZpbGUubWFlPic=

>  <r_lp_tautomer_probability>  (301) 
0.5

>  <r_epik_Ionization_Penalty>  (301) 
0.052962

>  <r_epik_Ionization_Penalty_Charging>  (301) 
0.00322879

>  <r_epik_Ionization_Penalty_Neutral>  (301) 
0.0497332

>  <r_epik_State_Penalty>  (301) 
0.62805

>  <r_epik_Charging_Adjusted_Penalty>  (301) 
0.631279

>  <i_epik_Tot_Q>  (301) 
1

>  <i_epik_Tot_abs_Q>  (301) 
1

>  <s_lp_Force_Field>  (301) 
OPLS3e

>  <r_lp_Energy>  (301) 
122.526

>  <b_lp_Chiralities_Consistent>  (301) 
1

>  <s_lp_Variant>  (301) 
105:0-2

>  <s_i_glide_gridfile>  (301) 
pfpi4k_grid

>  <i_i_glide_lignum>  (301) 
24

>  <i_i_glide_rotatable_bonds>  (301) 
5

>  <r_i_docking_score>  (301) 
-1.88892

>  <r_i_glide_ligand_efficiency>  (301) 
-0.0555564

>  <r_i_glide_ligand_efficiency_sa>  (301) 
-0.179981

>  <r_i_glide_ligand_efficiency_ln>  (301) 
-0.417315

>  <r_i_glide_gscore>  (301) 
-1.88892

>  <r_i_glide_lipo>  (301) 
-0.222182

>  <r_i_glide_hbond>  (301) 
0

>  <r_i_glide_metal>  (301) 
-0

>  <r_i_glide_rewards>  (301) 
-0.220161

>  <r_i_glide_evdw>  (301) 
-20.6936

>  <r_i_glide_ecoul>  (301) 
-3.84594

>  <r_i_glide_erotb>  (301) 
0.184541

>  <r_i_glide_esite>  (301) 
-0.019544

>  <r_i_glide_emodel>  (301) 
-26.4471

>  <r_i_glide_energy>  (301) 
-24.5396

>  <r_i_glide_einternal>  (301) 
1.42974

>  <r_i_glide_intrahb_reward>  (301) 
-0

>  <i_i_glide_confnum>  (301) 
5

>  <i_i_glide_posenum>  (301) 
39

>  <r_i_glide_eff_state_penalty>  (301) 
0

>  <ligand_id>  (301) 
105

>  <original_smiles>  (301) 
CCC1CN(CC2CC2)C2CC3C1(OC)C1CC4(CC)C2N(C)CCC34c2[nH]ncc2CC1C

>  <smiles>  (301) 
[H]c1c2c(nn1[H])C13C([H])([H])C([H])([H])N(C([H])([H])[H])C4([H])C1(C([H])([H])C([H])([H])[H])C([H])([H])C([H])(C([H])(C([H])([H])[H])C2([H])[H])C1(OC([H])([H])[H])C3([H])C([H])([H])C4([H])[N+]([H])(C([H])([H])C2([H])C([H])([H])C2([H])[H])C([H])([H])C1([H])C([H])([H])C([H])([H])[H]

$$$$
105:2:0
     RDKit          3D

 81 87  0  0  1  0  0  0  0  0999 V2000
    6.2496   -5.5041    1.2237 C   0  0  0  0  0  0  0  0  0  0  0  0
    5.6163   -5.0136    2.5410 C   0  0  0  0  0  0  0  0  0  0  0  0
    4.4853   -3.9403    2.3678 C   0  0  2  0  0  0  0  0  0  0  0  0
    5.1553   -2.5859    2.0041 C   0  0  0  0  0  0  0  0  0  0  0  0
    4.2778   -1.6779    1.2779 N   0  0  0  0  0  0  0  0  0  0  0  0
    4.9902   -0.6265    0.5354 C   0  0  0  0  0  0  0  0  0  0  0  0
    5.1076   -0.9984   -0.9396 C   0  0  0  0  0  0  0  0  0  0  0  0
    3.9378   -1.5578   -1.7182 C   0  0  0  0  0  0  0  0  0  0  0  0
    5.1523   -2.4238   -1.4542 C   0  0  0  0  0  0  0  0  0  0  0  0
    3.0151   -1.2831    1.8935 C   0  0  1  0  0  0  0  0  0  0  0  0
    2.0685   -2.4854    2.0364 C   0  0  0  0  0  0  0  0  0  0  0  0
    2.1129   -3.0571    3.4556 C   0  0  1  0  0  0  0  0  0  0  0  0
    3.4812   -3.8715    3.6023 C   0  0  1  0  0  0  0  0  0  0  0  0
    3.0910   -5.2372    3.8186 O   0  0  0  0  0  0  0  0  0  0  0  0
    2.4607   -6.0037    2.7861 C   0  0  0  0  0  0  0  0  0  0  0  0
    4.2507   -3.3543    4.8524 C   0  0  1  0  0  0  0  0  0  0  0  0
    4.2182   -1.8035    5.0485 C   0  0  0  0  0  0  0  0  0  0  0  0
    2.9666   -0.9850    4.5771 C   0  0  1  0  0  0  0  0  0  0  0  0
    2.8073    0.1419    5.6695 C   0  0  0  0  0  0  0  0  0  0  0  0
    3.9307    1.1974    5.7292 C   0  0  0  0  0  0  0  0  0  0  0  0
    3.0805   -0.3153    3.1379 C   0  0  2  0  0  0  0  0  0  0  0  0
    2.0154    0.6973    3.0085 N   0  0  1  0  0  0  0  0  0  0  0  0
    2.2146    1.7305    2.0011 C   0  0  0  0  0  0  0  0  0  0  0  0
    0.6837    0.0920    2.9656 C   0  0  0  0  0  0  0  0  0  0  0  0
    0.4744   -1.0616    4.0057 C   0  0  0  0  0  0  0  0  0  0  0  0
    1.7285   -1.9226    4.5222 C   0  0  1  0  0  0  0  0  0  0  0  0
    1.3497   -2.4638    5.9277 C   0  0  0  0  0  0  0  0  0  0  0  0
    0.4484   -1.7651    6.7292 N   0  0  0  0  0  0  0  0  0  0  0  0
    0.1998   -2.2913    7.9393 N   0  0  0  0  0  0  0  0  0  0  0  0
    0.9882   -3.3483    7.9457 C   0  0  0  0  0  0  0  0  0  0  0  0
    1.7332   -3.4988    6.7229 C   0  0  0  0  0  0  0  0  0  0  0  0
    2.6908   -4.6303    6.5551 C   0  0  0  0  0  0  0  0  0  0  0  0
    4.1155   -4.1879    6.1689 C   0  0  1  0  0  0  0  0  0  0  0  0
    5.0635   -5.4056    6.2062 C   0  0  0  0  0  0  0  0  0  0  0  0
   -0.0062   -0.9126    6.4522 H   0  0  0  0  0  0  0  0  0  0  0  0
    7.0031   -6.2688    1.4223 H   0  0  0  0  0  0  0  0  0  0  0  0
    6.7498   -4.7042    0.6783 H   0  0  0  0  0  0  0  0  0  0  0  0
    5.5015   -5.9468    0.5637 H   0  0  0  0  0  0  0  0  0  0  0  0
    5.2425   -5.9003    3.0488 H   0  0  0  0  0  0  0  0  0  0  0  0
    6.4122   -4.6532    3.1821 H   0  0  0  0  0  0  0  0  0  0  0  0
    3.9660   -4.2927    1.4828 H   0  0  0  0  0  0  0  0  0  0  0  0
    5.6457   -2.1037    2.8321 H   0  0  0  0  0  0  0  0  0  0  0  0
    5.9710   -2.7917    1.3135 H   0  0  0  0  0  0  0  0  0  0  0  0
    4.4810    0.3311    0.6059 H   0  0  0  0  0  0  0  0  0  0  0  0
    5.9860   -0.4872    0.9472 H   0  0  0  0  0  0  0  0  0  0  0  0
    5.7105   -0.2776   -1.4988 H   0  0  0  0  0  0  0  0  0  0  0  0
    3.0215   -1.7521   -1.1593 H   0  0  0  0  0  0  0  0  0  0  0  0
    3.7885   -1.2197   -2.7384 H   0  0  0  0  0  0  0  0  0  0  0  0
    5.8037   -2.6389   -2.2945 H   0  0  0  0  0  0  0  0  0  0  0  0
    5.0442   -3.2403   -0.7411 H   0  0  0  0  0  0  0  0  0  0  0  0
    2.5622   -0.7269    1.0677 H   0  0  0  0  0  0  0  0  0  0  0  0
    1.0555   -2.1906    1.8041 H   0  0  0  0  0  0  0  0  0  0  0  0
    2.2290   -3.2310    1.2594 H   0  0  0  0  0  0  0  0  0  0  0  0
    1.2827   -3.7573    3.5241 H   0  0  0  0  0  0  0  0  0  0  0  0
    2.0497   -6.9108    3.2333 H   0  0  0  0  0  0  0  0  0  0  0  0
    3.1658   -6.3315    2.0230 H   0  0  0  0  0  0  0  0  0  0  0  0
    1.6396   -5.4869    2.2928 H   0  0  0  0  0  0  0  0  0  0  0  0
    5.3124   -3.4953    4.6488 H   0  0  0  0  0  0  0  0  0  0  0  0
    4.3844   -1.6184    6.1060 H   0  0  0  0  0  0  0  0  0  0  0  0
    5.1042   -1.3476    4.6096 H   0  0  0  0  0  0  0  0  0  0  0  0
    1.8603    0.6726    5.5810 H   0  0  0  0  0  0  0  0  0  0  0  0
    2.7530   -0.3080    6.6617 H   0  0  0  0  0  0  0  0  0  0  0  0
    3.7505    1.8883    6.5555 H   0  0  0  0  0  0  0  0  0  0  0  0
    3.9920    1.7973    4.8212 H   0  0  0  0  0  0  0  0  0  0  0  0
    4.9098    0.7484    5.9040 H   0  0  0  0  0  0  0  0  0  0  0  0
    4.0391    0.2128    3.0896 H   0  0  0  0  0  0  0  0  0  0  0  0
    2.1214    1.3348    0.9855 H   0  0  0  0  0  0  0  0  0  0  0  0
    3.2005    2.1912    2.0827 H   0  0  0  0  0  0  0  0  0  0  0  0
    1.4770    2.5380    2.0952 H   0  0  0  0  0  0  0  0  0  0  0  0
   -0.0686    0.8709    3.1547 H   0  0  0  0  0  0  0  0  0  0  0  0
    0.4405   -0.2360    1.9474 H   0  0  0  0  0  0  0  0  0  0  0  0
    0.0305   -0.4894    4.8167 H   0  0  0  0  0  0  0  0  0  0  0  0
   -0.3242   -1.7268    3.6827 H   0  0  0  0  0  0  0  0  0  0  0  0
    1.0069   -3.9659    8.8253 H   0  0  0  0  0  0  0  0  0  0  0  0
    2.7786   -5.1653    7.4991 H   0  0  0  0  0  0  0  0  0  0  0  0
    2.2703   -5.3869    5.9000 H   0  0  0  0  0  0  0  0  0  0  0  0
    4.4705   -3.5653    6.9900 H   0  0  0  0  0  0  0  0  0  0  0  0
    4.7989   -6.1562    5.4614 H   0  0  0  0  0  0  0  0  0  0  0  0
    5.0309   -5.8967    7.1797 H   0  0  0  0  0  0  0  0  0  0  0  0
    6.1017   -5.1197    6.0367 H   0  0  0  0  0  0  0  0  0  0  0  0
    2.0546    1.2002    3.8972 H   0  0  0  0  0  0  0  0  0  0  0  0
  1  2  1  0
  1 36  1  0
  1 37  1  0
  1 38  1  0
  2  3  1  0
  2 39  1  0
  2 40  1  0
  3 13  1  0
  3  4  1  0
  3 41  1  6
  4  5  1  0
  4 42  1  0
  4 43  1  0
  5  6  1  0
  5 10  1  0
  6  7  1  0
  6 44  1  0
  6 45  1  0
  7  9  1  0
  7  8  1  0
  7 46  1  0
  8  9  1  0
  8 47  1  0
  8 48  1  0
  9 49  1  0
  9 50  1  0
 10 21  1  0
 10 11  1  0
 10 51  1  6
 11 12  1  0
 11 52  1  0
 11 53  1  0
 12 26  1  0
 12 13  1  0
 12 54  1  6
 13 14  1  1
 13 16  1  0
 14 15  1  0
 15 55  1  0
 15 56  1  0
 15 57  1  0
 16 33  1  0
 16 17  1  0
 16 58  1  6
 17 18  1  0
 17 59  1  0
 17 60  1  0
 18 26  1  0
 18 19  1  1
 18 21  1  0
 19 20  1  0
 19 61  1  0
 19 62  1  0
 20 63  1  0
 20 64  1  0
 20 65  1  0
 21 22  1  0
 21 66  1  1
 22 23  1  0
 22 24  1  0
 22 81  1  1
 23 67  1  0
 23 68  1  0
 23 69  1  0
 24 25  1  0
 24 70  1  0
 24 71  1  0
 26 25  1  6
 25 72  1  0
 25 73  1  0
 26 27  1  0
 27 31  2  0
 27 28  1  0
 28 35  1  0
 28 29  1  0
 29 30  2  0
 30 31  1  0
 30 74  1  0
 31 32  1  0
 32 33  1  0
 32 75  1  0
 32 76  1  0
 33 34  1  0
 33 77  1  1
 34 78  1  0
 34 79  1  0
 34 80  1  0
M  CHG  1  22   1
M  END
>  <i_m_ct_stereo_status>  (302) 
1

>  <s_m_source_file>  (302) 
/var/tmp/pbs.5076255.sched01/tmp_gsyjirk/108c9vsds16.sdf

>  <i_m_source_file_index>  (302) 
25

>  <i_lp_mmshare_version>  (302) 
48012

>  <i_f3d_flags>  (302) 
0

>  <s_epik_input>  (302) 
W0NIM11bQ0gyXVtDQEBIXTFbQ0gyXU4oW0NIMl1bQ0hdMltDSDJdW0NIMl0yKVtDQEBIXShbQ0gyXTMpW0NAQEhdKE4oW0NIM10pW0NIMl1bQ0gyXTQpW0NAXTUoW0NIMl1bQ0gzXSlbQ0gyXVtDQEhdKFtDQF0xKFtDQEhdM1tDQF00NTYpT1tDSDNdKVtDQEhdKFtDSDNdKVtDSDJdYzdjNltuSF1uW2NIXTc=

>  <s_epik_cmdline>  (302) 
J2VwaWtfcHl0aG9uJywgJy1waHQnLCAnMi4wJywgJy1waCcsICc3LjAnLCAnLXRuJywgJzgnLCAnLW1hJywgJzIwMCcsICctaW1hZScsICc8aW5maWxlLm1hZT4nLCAnLW9tYWUnLCAnPG91dGZpbGUubWFlPic=

>  <r_epik_Ionization_Penalty>  (302) 
0.090684

>  <r_epik_Ionization_Penalty_Charging>  (302) 
0.00605825

>  <r_epik_Ionization_Penalty_Neutral>  (302) 
0.0846257

>  <r_epik_State_Penalty>  (302) 
1.08175

>  <r_epik_Charging_Adjusted_Penalty>  (302) 
1.0878

>  <i_epik_Tot_Q>  (302) 
1

>  <i_epik_Tot_abs_Q>  (302) 
1

>  <s_lp_Force_Field>  (302) 
OPLS3e

>  <r_lp_Energy>  (302) 
127.403

>  <b_lp_Chiralities_Consistent>  (302) 
1

>  <s_lp_Variant>  (302) 
105:0-3

>  <s_i_glide_gridfile>  (302) 
pfpi4k_grid

>  <i_i_glide_lignum>  (302) 
25

>  <i_i_glide_rotatable_bonds>  (302) 
5

>  <r_i_docking_score>  (302) 
-2.22428

>  <r_i_glide_ligand_efficiency>  (302) 
-0.0654201

>  <r_i_glide_ligand_efficiency_sa>  (302) 
-0.211936

>  <r_i_glide_ligand_efficiency_ln>  (302) 
-0.491407

>  <r_i_glide_gscore>  (302) 
-2.22428

>  <r_i_glide_lipo>  (302) 
-0.344131

>  <r_i_glide_hbond>  (302) 
-0.0322046

>  <r_i_glide_metal>  (302) 
-0

>  <r_i_glide_rewards>  (302) 
-0.220161

>  <r_i_glide_evdw>  (302) 
-19.4636

>  <r_i_glide_ecoul>  (302) 
-5.37333

>  <r_i_glide_erotb>  (302) 
0.184541

>  <r_i_glide_esite>  (302) 
-0.0331507

>  <r_i_glide_emodel>  (302) 
-25.099

>  <r_i_glide_energy>  (302) 
-24.8369

>  <r_i_glide_einternal>  (302) 
6.23159

>  <r_i_glide_intrahb_reward>  (302) 
-0

>  <i_i_glide_confnum>  (302) 
4

>  <i_i_glide_posenum>  (302) 
39

>  <r_i_glide_eff_state_penalty>  (302) 
0

>  <ligand_id>  (302) 
105

>  <original_smiles>  (302) 
CCC1CN(CC2CC2)C2CC3C1(OC)C1CC4(CC)C2N(C)CCC34c2[nH]ncc2CC1C

>  <smiles>  (302) 
[H]c1nn([H])c2c1C([H])([H])C([H])(C([H])([H])[H])C1([H])C([H])([H])C3(C([H])([H])C([H])([H])[H])C24C([H])([H])C([H])([H])[N+]([H])(C([H])([H])[H])C3([H])C2([H])N(C([H])([H])C3([H])C([H])([H])C3([H])[H])C([H])([H])C([H])(C([H])([H])C([H])([H])[H])C1(OC([H])([H])[H])C4([H])C2([H])[H]

$$$$
105:3:0
     RDKit          3D

 81 87  0  0  1  0  0  0  0  0999 V2000
    3.4204   -3.1096    7.6765 C   0  0  0  0  0  0  0  0  0  0  0  0
    2.6869   -4.3338    7.0948 C   0  0  0  0  0  0  0  0  0  0  0  0
    3.3928   -4.9925    5.8613 C   0  0  2  0  0  0  0  0  0  0  0  0
    3.1471   -4.0982    4.6212 C   0  0  0  0  0  0  0  0  0  0  0  0
    4.1849   -4.1952    3.6013 N   0  0  0  0  0  0  0  0  0  0  0  0
    4.0524   -3.0867    2.6467 C   0  0  0  0  0  0  0  0  0  0  0  0
    5.3105   -2.7948    1.8350 C   0  0  0  0  0  0  0  0  0  0  0  0
    5.8269   -1.3747    1.7243 C   0  0  0  0  0  0  0  0  0  0  0  0
    5.1903   -2.0324    0.5317 C   0  0  0  0  0  0  0  0  0  0  0  0
    4.3566   -5.5356    3.0258 C   0  0  1  0  0  0  0  0  0  0  0  0
    4.9628   -6.5216    4.0468 C   0  0  0  0  0  0  0  0  0  0  0  0
    3.8734   -7.4293    4.6338 C   0  0  1  0  0  0  0  0  0  0  0  0
    3.0325   -6.5394    5.6622 C   0  0  1  0  0  0  0  0  0  0  0  0
    3.2722   -7.0960    6.9638 O   0  0  0  0  0  0  0  0  0  0  0  0
    4.5718   -7.0602    7.5634 C   0  0  0  0  0  0  0  0  0  0  0  0
    1.5156   -6.6602    5.3205 C   0  0  1  0  0  0  0  0  0  0  0  0
    1.1917   -6.6338    3.7900 C   0  0  0  0  0  0  0  0  0  0  0  0
    2.2250   -7.1985    2.7537 C   0  0  1  0  0  0  0  0  0  0  0  0
    1.3300   -7.8463    1.6271 C   0  0  0  0  0  0  0  0  0  0  0  0
    0.4619   -6.8765    0.8041 C   0  0  0  0  0  0  0  0  0  0  0  0
    3.2066   -6.1254    2.1135 C   0  0  2  0  0  0  0  0  0  0  0  0
    3.8353   -6.7581    0.9140 N   0  0  1  0  0  0  0  0  0  0  0  0
    4.3913   -5.8294   -0.1013 C   0  0  0  0  0  0  0  0  0  0  0  0
    4.7750   -7.8429    1.2848 C   0  0  0  0  0  0  0  0  0  0  0  0
    4.2273   -8.7796    2.4021 C   0  0  0  0  0  0  0  0  0  0  0  0
    3.1384   -8.2421    3.4546 C   0  0  1  0  0  0  0  0  0  0  0  0
    2.3166   -9.4986    3.9095 C   0  0  0  0  0  0  0  0  0  0  0  0
    2.1387  -10.4883    3.0248 N   0  0  0  0  0  0  0  0  0  0  0  0
    1.4018  -11.4343    3.6196 N   0  0  0  0  0  0  0  0  0  0  0  0
    1.0258  -11.0502    4.8662 C   0  0  0  0  0  0  0  0  0  0  0  0
    1.5649   -9.8163    5.0974 C   0  0  0  0  0  0  0  0  0  0  0  0
    1.3343   -9.0781    6.3664 C   0  0  0  0  0  0  0  0  0  0  0  0
    0.6923   -7.6922    6.1637 C   0  0  1  0  0  0  0  0  0  0  0  0
    0.2417   -7.1217    7.5286 C   0  0  0  0  0  0  0  0  0  0  0  0
    1.1883  -12.3188    3.1753 H   0  0  0  0  0  0  0  0  0  0  0  0
    2.8912   -2.7187    8.5471 H   0  0  0  0  0  0  0  0  0  0  0  0
    3.5001   -2.2931    6.9591 H   0  0  0  0  0  0  0  0  0  0  0  0
    4.4292   -3.3704    8.0013 H   0  0  0  0  0  0  0  0  0  0  0  0
    2.5860   -5.0415    7.9153 H   0  0  0  0  0  0  0  0  0  0  0  0
    1.6677   -4.0376    6.8492 H   0  0  0  0  0  0  0  0  0  0  0  0
    4.4462   -4.8869    6.1103 H   0  0  0  0  0  0  0  0  0  0  0  0
    2.1533   -4.2017    4.2050 H   0  0  0  0  0  0  0  0  0  0  0  0
    3.1714   -3.0659    4.9642 H   0  0  0  0  0  0  0  0  0  0  0  0
    3.2031   -3.2384    1.9825 H   0  0  0  0  0  0  0  0  0  0  0  0
    3.8308   -2.1729    3.2010 H   0  0  0  0  0  0  0  0  0  0  0  0
    6.0865   -3.5560    1.8645 H   0  0  0  0  0  0  0  0  0  0  0  0
    5.2698   -0.5907    2.2359 H   0  0  0  0  0  0  0  0  0  0  0  0
    6.9066   -1.2393    1.7022 H   0  0  0  0  0  0  0  0  0  0  0  0
    5.8464   -2.3322   -0.2829 H   0  0  0  0  0  0  0  0  0  0  0  0
    4.2003   -1.6884    0.2327 H   0  0  0  0  0  0  0  0  0  0  0  0
    5.2009   -5.3679    2.3666 H   0  0  0  0  0  0  0  0  0  0  0  0
    5.7417   -7.1294    3.5972 H   0  0  0  0  0  0  0  0  0  0  0  0
    5.5543   -6.0083    4.8041 H   0  0  0  0  0  0  0  0  0  0  0  0
    4.3912   -8.2082    5.1906 H   0  0  0  0  0  0  0  0  0  0  0  0
    4.5661   -7.7236    8.4284 H   0  0  0  0  0  0  0  0  0  0  0  0
    4.8314   -6.0710    7.9383 H   0  0  0  0  0  0  0  0  0  0  0  0
    5.3728   -7.3982    6.9085 H   0  0  0  0  0  0  0  0  0  0  0  0
    1.0461   -5.7321    5.6318 H   0  0  0  0  0  0  0  0  0  0  0  0
    0.2492   -7.1640    3.6697 H   0  0  0  0  0  0  0  0  0  0  0  0
    0.9179   -5.6271    3.4814 H   0  0  0  0  0  0  0  0  0  0  0  0
    1.9134   -8.4569    0.9380 H   0  0  0  0  0  0  0  0  0  0  0  0
    0.6403   -8.5681    2.0654 H   0  0  0  0  0  0  0  0  0  0  0  0
   -0.1649   -7.4455    0.1174 H   0  0  0  0  0  0  0  0  0  0  0  0
    1.0582   -6.1896    0.2049 H   0  0  0  0  0  0  0  0  0  0  0  0
   -0.2167   -6.3023    1.4332 H   0  0  0  0  0  0  0  0  0  0  0  0
    2.5983   -5.3048    1.7365 H   0  0  0  0  0  0  0  0  0  0  0  0
    5.3214   -5.3636    0.2205 H   0  0  0  0  0  0  0  0  0  0  0  0
    3.6775   -5.0453   -0.3535 H   0  0  0  0  0  0  0  0  0  0  0  0
    4.6107   -6.3774   -1.0187 H   0  0  0  0  0  0  0  0  0  0  0  0
    4.9770   -8.4410    0.3924 H   0  0  0  0  0  0  0  0  0  0  0  0
    5.7488   -7.4311    1.5437 H   0  0  0  0  0  0  0  0  0  0  0  0
    3.8370   -9.5756    1.7745 H   0  0  0  0  0  0  0  0  0  0  0  0
    5.0506   -9.2620    2.9289 H   0  0  0  0  0  0  0  0  0  0  0  0
    0.4023  -11.6703    5.4926 H   0  0  0  0  0  0  0  0  0  0  0  0
    2.2387   -9.0779    6.9652 H   0  0  0  0  0  0  0  0  0  0  0  0
    0.6519   -9.6577    6.9888 H   0  0  0  0  0  0  0  0  0  0  0  0
   -0.2455   -7.8698    5.6372 H   0  0  0  0  0  0  0  0  0  0  0  0
    1.0846   -6.9434    8.1942 H   0  0  0  0  0  0  0  0  0  0  0  0
   -0.4228   -7.8139    8.0466 H   0  0  0  0  0  0  0  0  0  0  0  0
   -0.3001   -6.1825    7.4174 H   0  0  0  0  0  0  0  0  0  0  0  0
    3.0654   -7.2246    0.4535 H   0  0  0  0  0  0  0  0  0  0  0  0
  1  2  1  0
  1 36  1  0
  1 37  1  0
  1 38  1  0
  2  3  1  0
  2 39  1  0
  2 40  1  0
  3 13  1  0
  3  4  1  0
  3 41  1  1
  4  5  1  0
  4 42  1  0
  4 43  1  0
  5  6  1  0
  5 10  1  0
  6  7  1  0
  6 44  1  0
  6 45  1  0
  7  9  1  0
  7  8  1  0
  7 46  1  0
  8  9  1  0
  8 47  1  0
  8 48  1  0
  9 49  1  0
  9 50  1  0
 10 21  1  0
 10 11  1  0
 10 51  1  6
 11 12  1  0
 11 52  1  0
 11 53  1  0
 12 26  1  0
 12 13  1  0
 12 54  1  1
 13 14  1  1
 13 16  1  0
 14 15  1  0
 15 55  1  0
 15 56  1  0
 15 57  1  0
 16 33  1  0
 16 17  1  0
 16 58  1  1
 17 18  1  0
 17 59  1  0
 17 60  1  0
 18 26  1  0
 18 19  1  6
 18 21  1  0
 19 20  1  0
 19 61  1  0
 19 62  1  0
 20 63  1  0
 20 64  1  0
 20 65  1  0
 21 22  1  0
 21 66  1  6
 22 23  1  0
 22 24  1  0
 22 81  1  6
 23 67  1  0
 23 68  1  0
 23 69  1  0
 24 25  1  0
 24 70  1  0
 24 71  1  0
 26 25  1  6
 25 72  1  0
 25 73  1  0
 26 27  1  0
 27 28  2  0
 27 31  1  0
 28 29  1  0
 29 35  1  0
 29 30  1  0
 30 74  1  0
 30 31  2  0
 31 32  1  0
 32 33  1  0
 32 75  1  0
 32 76  1  0
 33 34  1  0
 33 77  1  6
 34 78  1  0
 34 79  1  0
 34 80  1  0
M  CHG  1  22   1
M  END
>  <i_m_ct_stereo_status>  (303) 
1

>  <s_m_source_file>  (303) 
/var/tmp/pbs.5076255.sched01/tmp_gsyjirk/108c9vsds16.sdf

>  <i_m_source_file_index>  (303) 
26

>  <i_lp_mmshare_version>  (303) 
48012

>  <i_f3d_flags>  (303) 
0

>  <s_epik_input>  (303) 
W0NIM11bQ0gyXVtDQEBIXTFbQ0gyXU4oW0NIMl1bQ0hdMltDSDJdW0NIMl0yKVtDQEBIXShbQ0gyXTMpW0NAQEhdKE4oW0NIM10pW0NIMl1bQ0gyXTQpW0NAXTUoW0NIMl1bQ0gzXSlbQ0gyXVtDQEhdKFtDQF0xKFtDQEhdM1tDQF00NTYpT1tDSDNdKVtDQEhdKFtDSDNdKVtDSDJdYzdjNltuSF1uW2NIXTc=

>  <s_epik_cmdline>  (303) 
J2VwaWtfcHl0aG9uJywgJy1waHQnLCAnMi4wJywgJy1waCcsICc3LjAnLCAnLXRuJywgJzgnLCAnLW1hJywgJzIwMCcsICctaW1hZScsICc8aW5maWxlLm1hZT4nLCAnLW9tYWUnLCAnPG91dGZpbGUubWFlPic=

>  <r_epik_Ionization_Penalty>  (303) 
0.100262

>  <r_epik_Ionization_Penalty_Charging>  (303) 
0.00427062

>  <r_epik_Ionization_Penalty_Neutral>  (303) 
0.0959919

>  <r_epik_State_Penalty>  (303) 
1.3893

>  <r_epik_Charging_Adjusted_Penalty>  (303) 
1.39357

>  <i_epik_Tot_Q>  (303) 
1

>  <i_epik_Tot_abs_Q>  (303) 
1

>  <s_lp_Force_Field>  (303) 
OPLS3e

>  <r_lp_Energy>  (303) 
134.74

>  <b_lp_Chiralities_Consistent>  (303) 
1

>  <s_lp_Variant>  (303) 
105:0-4

>  <s_i_glide_gridfile>  (303) 
pfpi4k_grid

>  <i_i_glide_lignum>  (303) 
26

>  <i_i_glide_rotatable_bonds>  (303) 
5

>  <r_i_docking_score>  (303) 
-1.93614

>  <r_i_glide_ligand_efficiency>  (303) 
-0.0569453

>  <r_i_glide_ligand_efficiency_sa>  (303) 
-0.184481

>  <r_i_glide_ligand_efficiency_ln>  (303) 
-0.427748

>  <r_i_glide_gscore>  (303) 
-1.93614

>  <r_i_glide_lipo>  (303) 
-0.327537

>  <r_i_glide_hbond>  (303) 
-0.0571519

>  <r_i_glide_metal>  (303) 
-0

>  <r_i_glide_rewards>  (303) 
-0.220161

>  <r_i_glide_evdw>  (303) 
-23.2356

>  <r_i_glide_ecoul>  (303) 
-2.36035

>  <r_i_glide_erotb>  (303) 
0.184541

>  <r_i_glide_esite>  (303) 
0

>  <r_i_glide_emodel>  (303) 
-28.2682

>  <r_i_glide_energy>  (303) 
-25.5959

>  <r_i_glide_einternal>  (303) 
0.755578

>  <r_i_glide_intrahb_reward>  (303) 
-0

>  <i_i_glide_confnum>  (303) 
2

>  <i_i_glide_posenum>  (303) 
39

>  <r_i_glide_eff_state_penalty>  (303) 
0

>  <ligand_id>  (303) 
105

>  <original_smiles>  (303) 
CCC1CN(CC2CC2)C2CC3C1(OC)C1CC4(CC)C2N(C)CCC34c2[nH]ncc2CC1C

>  <smiles>  (303) 
[H]c1c2c(nn1[H])C13C([H])([H])C([H])([H])[N+]([H])(C([H])([H])[H])C4([H])C5([H])N(C([H])([H])C6([H])C([H])([H])C6([H])[H])C([H])([H])C([H])(C([H])([H])C([H])([H])[H])C(OC([H])([H])[H])(C([H])(C([H])([H])C14C([H])([H])C([H])([H])[H])C([H])(C([H])([H])[H])C2([H])[H])C3([H])C5([H])[H]

$$$$
105:3:1
     RDKit          3D

 81 87  0  0  1  0  0  0  0  0999 V2000
    1.8149    1.2149    3.0231 C   0  0  0  0  0  0  0  0  0  0  0  0
    3.1133    0.6937    3.7242 C   0  0  0  0  0  0  0  0  0  0  0  0
    3.8625   -0.5936    3.2116 C   0  0  2  0  0  0  0  0  0  0  0  0
    3.7719   -0.6096    1.6781 C   0  0  0  0  0  0  0  0  0  0  0  0
    4.7800   -1.3713    0.9638 N   0  0  0  0  0  0  0  0  0  0  0  0
    4.8173   -1.0968   -0.4839 C   0  0  0  0  0  0  0  0  0  0  0  0
    3.4781   -1.0770   -1.2058 C   0  0  0  0  0  0  0  0  0  0  0  0
    3.1292   -2.1527   -2.2118 C   0  0  0  0  0  0  0  0  0  0  0  0
    3.3910   -0.7568   -2.6908 C   0  0  0  0  0  0  0  0  0  0  0  0
    4.9403   -2.7722    1.3362 C   0  0  1  0  0  0  0  0  0  0  0  0
    5.4369   -2.9435    2.7839 C   0  0  0  0  0  0  0  0  0  0  0  0
    4.2755   -3.3063    3.7206 C   0  0  1  0  0  0  0  0  0  0  0  0
    3.4497   -1.9548    3.9507 C   0  0  1  0  0  0  0  0  0  0  0  0
    3.5958   -1.6343    5.3346 O   0  0  0  0  0  0  0  0  0  0  0  0
    4.8686   -1.3030    5.8897 C   0  0  0  0  0  0  0  0  0  0  0  0
    1.9590   -2.2310    3.6462 C   0  0  1  0  0  0  0  0  0  0  0  0
    1.7352   -3.1125    2.3885 C   0  0  0  0  0  0  0  0  0  0  0  0
    2.7350   -4.2352    1.9559 C   0  0  1  0  0  0  0  0  0  0  0  0
    1.8192   -5.4073    1.3661 C   0  0  0  0  0  0  0  0  0  0  0  0
    1.4635   -5.3966   -0.1408 C   0  0  0  0  0  0  0  0  0  0  0  0
    3.8107   -3.7707    0.9008 C   0  0  2  0  0  0  0  0  0  0  0  0
    4.4822   -5.0045    0.3878 N   0  0  1  0  0  0  0  0  0  0  0  0
    5.1073   -4.9156   -0.9395 C   0  0  0  0  0  0  0  0  0  0  0  0
    5.3088   -5.6720    1.3962 C   0  0  0  0  0  0  0  0  0  0  0  0
    4.6384   -5.7384    2.7973 C   0  0  0  0  0  0  0  0  0  0  0  0
    3.5322   -4.6427    3.2226 C   0  0  1  0  0  0  0  0  0  0  0  0
    2.6020   -5.3442    4.2676 C   0  0  0  0  0  0  0  0  0  0  0  0
    2.3779   -6.6501    4.1240 N   0  0  0  0  0  0  0  0  0  0  0  0
    1.5605   -7.0270    5.1119 N   0  0  0  0  0  0  0  0  0  0  0  0
    1.1744   -5.9664    5.8577 C   0  0  0  0  0  0  0  0  0  0  0  0
    1.7769   -4.8534    5.3596 C   0  0  0  0  0  0  0  0  0  0  0  0
    1.5357   -3.5047    5.9127 C   0  0  0  0  0  0  0  0  0  0  0  0
    1.0106   -2.5148    4.8610 C   0  0  1  0  0  0  0  0  0  0  0  0
    0.5425   -1.2236    5.5535 C   0  0  0  0  0  0  0  0  0  0  0  0
    1.2905   -7.9915    5.2442 H   0  0  0  0  0  0  0  0  0  0  0  0
    1.5463    2.1949    3.4387 H   0  0  0  0  0  0  0  0  0  0  0  0
    0.9392    0.5721    3.1218 H   0  0  0  0  0  0  0  0  0  0  0  0
    1.9622    1.3952    1.9550 H   0  0  0  0  0  0  0  0  0  0  0  0
    3.8483    1.4881    3.6293 H   0  0  0  0  0  0  0  0  0  0  0  0
    2.9480    0.6401    4.7957 H   0  0  0  0  0  0  0  0  0  0  0  0
    4.9021   -0.3605    3.4282 H   0  0  0  0  0  0  0  0  0  0  0  0
    2.7719   -0.9017    1.4082 H   0  0  0  0  0  0  0  0  0  0  0  0
    3.9015    0.4066    1.3161 H   0  0  0  0  0  0  0  0  0  0  0  0
    5.2171   -0.0963   -0.5696 H   0  0  0  0  0  0  0  0  0  0  0  0
    5.5326   -1.7486   -0.9977 H   0  0  0  0  0  0  0  0  0  0  0  0
    2.6559   -0.6596   -0.6259 H   0  0  0  0  0  0  0  0  0  0  0  0
    3.8774   -2.8700   -2.5283 H   0  0  0  0  0  0  0  0  0  0  0  0
    2.1133   -2.5083   -2.1317 H   0  0  0  0  0  0  0  0  0  0  0  0
    2.5364   -0.2017   -3.0872 H   0  0  0  0  0  0  0  0  0  0  0  0
    4.3116   -0.6377   -3.2413 H   0  0  0  0  0  0  0  0  0  0  0  0
    5.8282   -2.9974    0.7495 H   0  0  0  0  0  0  0  0  0  0  0  0
    6.1929   -3.7223    2.8333 H   0  0  0  0  0  0  0  0  0  0  0  0
    6.0085   -2.0723    3.1110 H   0  0  0  0  0  0  0  0  0  0  0  0
    4.7127   -3.6258    4.6583 H   0  0  0  0  0  0  0  0  0  0  0  0
    4.7569   -1.2933    6.9749 H   0  0  0  0  0  0  0  0  0  0  0  0
    5.2154   -0.3108    5.5956 H   0  0  0  0  0  0  0  0  0  0  0  0
    5.6535   -2.0236    5.6613 H   0  0  0  0  0  0  0  0  0  0  0  0
    1.5218   -1.3324    3.2685 H   0  0  0  0  0  0  0  0  0  0  0  0
    0.7812   -3.5743    2.5847 H   0  0  0  0  0  0  0  0  0  0  0  0
    1.5476   -2.4717    1.5373 H   0  0  0  0  0  0  0  0  0  0  0  0
    2.3112   -6.3660    1.5379 H   0  0  0  0  0  0  0  0  0  0  0  0
    0.9028   -5.5213    1.9399 H   0  0  0  0  0  0  0  0  0  0  0  0
    0.7880   -6.2117   -0.3809 H   0  0  0  0  0  0  0  0  0  0  0  0
    2.3766   -5.6146   -0.7279 H   0  0  0  0  0  0  0  0  0  0  0  0
    1.1397   -4.4669   -0.6045 H   0  0  0  0  0  0  0  0  0  0  0  0
    3.2682   -3.3508    0.0735 H   0  0  0  0  0  0  0  0  0  0  0  0
    6.0299   -4.3188   -0.9607 H   0  0  0  0  0  0  0  0  0  0  0  0
    4.4087   -4.6121   -1.7034 H   0  0  0  0  0  0  0  0  0  0  0  0
    5.3705   -5.9471   -1.1699 H   0  0  0  0  0  0  0  0  0  0  0  0
    5.4847   -6.6959    1.0526 H   0  0  0  0  0  0  0  0  0  0  0  0
    6.2991   -5.2212    1.4442 H   0  0  0  0  0  0  0  0  0  0  0  0
    4.1984   -6.7327    2.7288 H   0  0  0  0  0  0  0  0  0  0  0  0
    5.3942   -5.8185    3.5818 H   0  0  0  0  0  0  0  0  0  0  0  0
    0.4842   -6.0608    6.6906 H   0  0  0  0  0  0  0  0  0  0  0  0
    2.4104   -3.1624    6.4479 H   0  0  0  0  0  0  0  0  0  0  0  0
    0.7803   -3.5641    6.7024 H   0  0  0  0  0  0  0  0  0  0  0  0
    0.0836   -2.9396    4.4754 H   0  0  0  0  0  0  0  0  0  0  0  0
    1.3591   -0.6882    6.0377 H   0  0  0  0  0  0  0  0  0  0  0  0
   -0.1968   -1.4350    6.3200 H   0  0  0  0  0  0  0  0  0  0  0  0
    0.0594   -0.5336    4.8607 H   0  0  0  0  0  0  0  0  0  0  0  0
    3.6957   -5.6273    0.2431 H   0  0  0  0  0  0  0  0  0  0  0  0
  1  2  1  0
  1 36  1  0
  1 37  1  0
  1 38  1  0
  2  3  1  0
  2 39  1  0
  2 40  1  0
  3 13  1  0
  3  4  1  0
  3 41  1  6
  4  5  1  0
  4 42  1  0
  4 43  1  0
  5  6  1  0
  5 10  1  0
  6  7  1  0
  6 44  1  0
  6 45  1  0
  7  9  1  0
  7  8  1  0
  7 46  1  0
  8  9  1  0
  8 47  1  0
  8 48  1  0
  9 49  1  0
  9 50  1  0
 10 21  1  0
 10 11  1  0
 10 51  1  6
 11 12  1  0
 11 52  1  0
 11 53  1  0
 12 26  1  0
 12 13  1  0
 12 54  1  1
 13 14  1  1
 13 16  1  0
 14 15  1  0
 15 55  1  0
 15 56  1  0
 15 57  1  0
 16 33  1  0
 16 17  1  0
 16 58  1  6
 17 18  1  0
 17 59  1  0
 17 60  1  0
 18 26  1  0
 18 19  1  6
 18 21  1  0
 19 20  1  0
 19 61  1  0
 19 62  1  0
 20 63  1  0
 20 64  1  0
 20 65  1  0
 21 22  1  0
 21 66  1  6
 22 23  1  0
 22 24  1  0
 22 81  1  6
 23 67  1  0
 23 68  1  0
 23 69  1  0
 24 25  1  0
 24 70  1  0
 24 71  1  0
 26 25  1  6
 25 72  1  0
 25 73  1  0
 26 27  1  0
 27 28  2  0
 27 31  1  0
 28 29  1  0
 29 35  1  0
 29 30  1  0
 30 74  1  0
 30 31  2  0
 31 32  1  0
 32 33  1  0
 32 75  1  0
 32 76  1  0
 33 34  1  0
 33 77  1  6
 34 78  1  0
 34 79  1  0
 34 80  1  0
M  CHG  1  22   1
M  END
>  <i_m_ct_stereo_status>  (304) 
1

>  <s_m_source_file>  (304) 
/var/tmp/pbs.5076255.sched01/tmp_gsyjirk/108c9vsds16.sdf

>  <i_m_source_file_index>  (304) 
26

>  <i_lp_mmshare_version>  (304) 
48012

>  <i_f3d_flags>  (304) 
0

>  <s_epik_input>  (304) 
W0NIM11bQ0gyXVtDQEBIXTFbQ0gyXU4oW0NIMl1bQ0hdMltDSDJdW0NIMl0yKVtDQEBIXShbQ0gyXTMpW0NAQEhdKE4oW0NIM10pW0NIMl1bQ0gyXTQpW0NAXTUoW0NIMl1bQ0gzXSlbQ0gyXVtDQEhdKFtDQF0xKFtDQEhdM1tDQF00NTYpT1tDSDNdKVtDQEhdKFtDSDNdKVtDSDJdYzdjNltuSF1uW2NIXTc=

>  <s_epik_cmdline>  (304) 
J2VwaWtfcHl0aG9uJywgJy1waHQnLCAnMi4wJywgJy1waCcsICc3LjAnLCAnLXRuJywgJzgnLCAnLW1hJywgJzIwMCcsICctaW1hZScsICc8aW5maWxlLm1hZT4nLCAnLW9tYWUnLCAnPG91dGZpbGUubWFlPic=

>  <r_epik_Ionization_Penalty>  (304) 
0.100262

>  <r_epik_Ionization_Penalty_Charging>  (304) 
0.00427062

>  <r_epik_Ionization_Penalty_Neutral>  (304) 
0.0959919

>  <r_epik_State_Penalty>  (304) 
1.3893

>  <r_epik_Charging_Adjusted_Penalty>  (304) 
1.39357

>  <i_epik_Tot_Q>  (304) 
1

>  <i_epik_Tot_abs_Q>  (304) 
1

>  <s_lp_Force_Field>  (304) 
OPLS3e

>  <r_lp_Energy>  (304) 
134.74

>  <b_lp_Chiralities_Consistent>  (304) 
1

>  <s_lp_Variant>  (304) 
105:0-4

>  <s_i_glide_gridfile>  (304) 
pfpi4k_grid

>  <i_i_glide_lignum>  (304) 
26

>  <i_i_glide_rotatable_bonds>  (304) 
5

>  <r_i_docking_score>  (304) 
-1.5146

>  <r_i_glide_ligand_efficiency>  (304) 
-0.044547

>  <r_i_glide_ligand_efficiency_sa>  (304) 
-0.144315

>  <r_i_glide_ligand_efficiency_ln>  (304) 
-0.334617

>  <r_i_glide_gscore>  (304) 
-1.5146

>  <r_i_glide_lipo>  (304) 
-0.200527

>  <r_i_glide_hbond>  (304) 
0

>  <r_i_glide_metal>  (304) 
-0

>  <r_i_glide_rewards>  (304) 
-0.220161

>  <r_i_glide_evdw>  (304) 
-14.3526

>  <r_i_glide_ecoul>  (304) 
-3.71721

>  <r_i_glide_erotb>  (304) 
0.184541

>  <r_i_glide_esite>  (304) 
-0.00323747

>  <r_i_glide_emodel>  (304) 
-10.4488

>  <r_i_glide_energy>  (304) 
-18.0698

>  <r_i_glide_einternal>  (304) 
15.5635

>  <r_i_glide_intrahb_reward>  (304) 
-0

>  <i_i_glide_confnum>  (304) 
2

>  <i_i_glide_posenum>  (304) 
30

>  <r_i_glide_eff_state_penalty>  (304) 
0

>  <ligand_id>  (304) 
105

>  <original_smiles>  (304) 
CCC1CN(CC2CC2)C2CC3C1(OC)C1CC4(CC)C2N(C)CCC34c2[nH]ncc2CC1C

>  <smiles>  (304) 
[H]c1c2c(nn1[H])C13C([H])([H])C([H])([H])[N+]([H])(C([H])([H])[H])C4([H])C5([H])N(C([H])([H])C6([H])C([H])([H])C6([H])[H])C([H])([H])C([H])(C([H])([H])C([H])([H])[H])C(OC([H])([H])[H])(C([H])(C([H])([H])C14C([H])([H])C([H])([H])[H])C([H])(C([H])([H])[H])C2([H])[H])C3([H])C5([H])[H]

$$$$
105:3:2
     RDKit          3D

 81 87  0  0  1  0  0  0  0  0999 V2000
    1.7551    0.5471    3.6067 C   0  0  0  0  0  0  0  0  0  0  0  0
    2.9710    0.0222    4.4318 C   0  0  0  0  0  0  0  0  0  0  0  0
    3.7094   -1.3084    4.0209 C   0  0  2  0  0  0  0  0  0  0  0  0
    3.7683   -1.3543    2.4883 C   0  0  0  0  0  0  0  0  0  0  0  0
    4.8149   -2.1611    1.8846 N   0  0  0  0  0  0  0  0  0  0  0  0
    4.9948   -1.9004    0.4458 C   0  0  0  0  0  0  0  0  0  0  0  0
    3.7120   -1.7235   -0.3757 C   0  0  0  0  0  0  0  0  0  0  0  0
    3.2702   -2.7985   -1.3386 C   0  0  0  0  0  0  0  0  0  0  0  0
    3.7906   -1.4945   -1.8716 C   0  0  0  0  0  0  0  0  0  0  0  0
    4.8829   -3.5627    2.2976 C   0  0  1  0  0  0  0  0  0  0  0  0
    5.2308   -3.7267    3.7987 C   0  0  0  0  0  0  0  0  0  0  0  0
    3.9590   -4.0192    4.6163 C   0  0  1  0  0  0  0  0  0  0  0  0
    3.1593   -2.6332    4.7315 C   0  0  1  0  0  0  0  0  0  0  0  0
    3.1878   -2.2837    6.1207 O   0  0  0  0  0  0  0  0  0  0  0  0
    4.4079   -1.9442    6.7833 C   0  0  0  0  0  0  0  0  0  0  0  0
    1.6882   -2.8349    4.2676 C   0  0  1  0  0  0  0  0  0  0  0  0
    1.5433   -3.7551    3.0120 C   0  0  0  0  0  0  0  0  0  0  0  0
    2.5582   -4.9130    2.7219 C   0  0  1  0  0  0  0  0  0  0  0  0
    1.6875   -6.0652    2.0545 C   0  0  0  0  0  0  0  0  0  0  0  0
    1.4404   -6.0185    0.5178 C   0  0  0  0  0  0  0  0  0  0  0  0
    3.7603   -4.5250    1.7625 C   0  0  2  0  0  0  0  0  0  0  0  0
    4.4026   -5.8012    1.3234 N   0  0  1  0  0  0  0  0  0  0  0  0
    5.1984   -5.7593    0.0616 C   0  0  0  0  0  0  0  0  0  0  0  0
    5.1175   -6.4799    2.4386 C   0  0  0  0  0  0  0  0  0  0  0  0
    4.3074   -6.4790    3.7689 C   0  0  0  0  0  0  0  0  0  0  0  0
    3.2133   -5.3351    4.0671 C   0  0  1  0  0  0  0  0  0  0  0  0
    2.1586   -5.9754    5.0257 C   0  0  0  0  0  0  0  0  0  0  0  0
    1.8949   -7.2779    4.8866 N   0  0  0  0  0  0  0  0  0  0  0  0
    0.9785   -7.6060    5.7949 N   0  0  0  0  0  0  0  0  0  0  0  0
    0.5665   -6.5095    6.4871 C   0  0  0  0  0  0  0  0  0  0  0  0
    1.2577   -5.4415    6.0258 C   0  0  0  0  0  0  0  0  0  0  0  0
    1.0149   -4.0626    6.5257 C   0  0  0  0  0  0  0  0  0  0  0  0
    0.6319   -3.0761    5.4024 C   0  0  1  0  0  0  0  0  0  0  0  0
    0.1527   -1.7574    6.0311 C   0  0  0  0  0  0  0  0  0  0  0  0
    0.6558   -8.5521    5.9175 H   0  0  0  0  0  0  0  0  0  0  0  0
    1.4839    1.5514    3.9692 H   0  0  0  0  0  0  0  0  0  0  0  0
    0.8848   -0.0976    3.6432 H   0  0  0  0  0  0  0  0  0  0  0  0
    2.0118    0.7027    2.5551 H   0  0  0  0  0  0  0  0  0  0  0  0
    3.7429    0.7855    4.3865 H   0  0  0  0  0  0  0  0  0  0  0  0
    2.7027    0.0017    5.4846 H   0  0  0  0  0  0  0  0  0  0  0  0
    4.7347   -1.1165    4.3301 H   0  0  0  0  0  0  0  0  0  0  0  0
    2.7983   -1.6216    2.1069 H   0  0  0  0  0  0  0  0  0  0  0  0
    3.9749   -0.3508    2.1328 H   0  0  0  0  0  0  0  0  0  0  0  0
    5.5501   -0.9674    0.3734 H   0  0  0  0  0  0  0  0  0  0  0  0
    5.6458   -2.6597   -0.0026 H   0  0  0  0  0  0  0  0  0  0  0  0
    2.9567   -1.0685    0.0722 H   0  0  0  0  0  0  0  0  0  0  0  0
    3.9118   -3.6653   -1.4946 H   0  0  0  0  0  0  0  0  0  0  0  0
    2.1954   -2.9695   -1.3489 H   0  0  0  0  0  0  0  0  0  0  0  0
    3.0596   -0.8296   -2.3432 H   0  0  0  0  0  0  0  0  0  0  0  0
    4.7738   -1.5162   -2.3372 H   0  0  0  0  0  0  0  0  0  0  0  0
    5.8147   -3.8425    1.8071 H   0  0  0  0  0  0  0  0  0  0  0  0
    5.9412   -4.5366    3.9449 H   0  0  0  0  0  0  0  0  0  0  0  0
    5.8080   -2.8787    4.1734 H   0  0  0  0  0  0  0  0  0  0  0  0
    4.2958   -4.3134    5.6062 H   0  0  0  0  0  0  0  0  0  0  0  0
    4.2118   -1.9195    7.8563 H   0  0  0  0  0  0  0  0  0  0  0  0
    4.7752   -0.9521    6.5140 H   0  0  0  0  0  0  0  0  0  0  0  0
    5.2094   -2.6641    6.6182 H   0  0  0  0  0  0  0  0  0  0  0  0
    1.3430   -1.9290    3.8552 H   0  0  0  0  0  0  0  0  0  0  0  0
    0.5458   -4.1712    3.0643 H   0  0  0  0  0  0  0  0  0  0  0  0
    1.4874   -3.1340    2.1313 H   0  0  0  0  0  0  0  0  0  0  0  0
    2.1213   -7.0438    2.2592 H   0  0  0  0  0  0  0  0  0  0  0  0
    0.7124   -6.1410    2.5437 H   0  0  0  0  0  0  0  0  0  0  0  0
    0.7377   -6.8060    0.2288 H   0  0  0  0  0  0  0  0  0  0  0  0
    2.3424   -6.1890   -0.0679 H   0  0  0  0  0  0  0  0  0  0  0  0
    1.0605   -5.0548    0.1467 H   0  0  0  0  0  0  0  0  0  0  0  0
    3.3222   -4.0869    0.8733 H   0  0  0  0  0  0  0  0  0  0  0  0
    6.1507   -5.2277    0.1781 H   0  0  0  0  0  0  0  0  0  0  0  0
    4.6110   -5.3472   -0.7559 H   0  0  0  0  0  0  0  0  0  0  0  0
    5.4154   -6.7938   -0.1944 H   0  0  0  0  0  0  0  0  0  0  0  0
    5.2879   -7.5127    2.1319 H   0  0  0  0  0  0  0  0  0  0  0  0
    6.1080   -6.0503    2.5655 H   0  0  0  0  0  0  0  0  0  0  0  0
    3.8448   -7.4608    3.6836 H   0  0  0  0  0  0  0  0  0  0  0  0
    4.9884   -6.5722    4.6221 H   0  0  0  0  0  0  0  0  0  0  0  0
   -0.2022   -6.5627    7.2503 H   0  0  0  0  0  0  0  0  0  0  0  0
    1.8447   -3.7449    7.1416 H   0  0  0  0  0  0  0  0  0  0  0  0
    0.1825   -4.0790    7.2409 H   0  0  0  0  0  0  0  0  0  0  0  0
   -0.2659   -3.4811    4.9388 H   0  0  0  0  0  0  0  0  0  0  0  0
    0.9377   -1.2423    6.5847 H   0  0  0  0  0  0  0  0  0  0  0  0
   -0.6651   -1.9261    6.7239 H   0  0  0  0  0  0  0  0  0  0  0  0
   -0.2342   -1.0640    5.2845 H   0  0  0  0  0  0  0  0  0  0  0  0
    3.6141   -6.3988    1.1234 H   0  0  0  0  0  0  0  0  0  0  0  0
  1  2  1  0
  1 36  1  0
  1 37  1  0
  1 38  1  0
  2  3  1  0
  2 39  1  0
  2 40  1  0
  3 13  1  0
  3  4  1  0
  3 41  1  1
  4  5  1  0
  4 42  1  0
  4 43  1  0
  5  6  1  0
  5 10  1  0
  6  7  1  0
  6 44  1  0
  6 45  1  0
  7  9  1  0
  7  8  1  0
  7 46  1  0
  8  9  1  0
  8 47  1  0
  8 48  1  0
  9 49  1  0
  9 50  1  0
 10 21  1  0
 10 11  1  0
 10 51  1  6
 11 12  1  0
 11 52  1  0
 11 53  1  0
 12 26  1  0
 12 13  1  0
 12 54  1  1
 13 14  1  1
 13 16  1  0
 14 15  1  0
 15 55  1  0
 15 56  1  0
 15 57  1  0
 16 33  1  0
 16 17  1  0
 16 58  1  6
 17 18  1  0
 17 59  1  0
 17 60  1  0
 18 26  1  0
 18 19  1  6
 18 21  1  0
 19 20  1  0
 19 61  1  0
 19 62  1  0
 20 63  1  0
 20 64  1  0
 20 65  1  0
 21 22  1  0
 21 66  1  6
 22 23  1  0
 22 24  1  0
 22 81  1  6
 23 67  1  0
 23 68  1  0
 23 69  1  0
 24 25  1  0
 24 70  1  0
 24 71  1  0
 26 25  1  6
 25 72  1  0
 25 73  1  0
 26 27  1  0
 27 28  2  0
 27 31  1  0
 28 29  1  0
 29 35  1  0
 29 30  1  0
 30 74  1  0
 30 31  2  0
 31 32  1  0
 32 33  1  0
 32 75  1  0
 32 76  1  0
 33 34  1  0
 33 77  1  6
 34 78  1  0
 34 79  1  0
 34 80  1  0
M  CHG  1  22   1
M  END
>  <i_m_ct_stereo_status>  (305) 
1

>  <s_m_source_file>  (305) 
/var/tmp/pbs.5076255.sched01/tmp_gsyjirk/108c9vsds16.sdf

>  <i_m_source_file_index>  (305) 
26

>  <i_lp_mmshare_version>  (305) 
48012

>  <i_f3d_flags>  (305) 
0

>  <s_epik_input>  (305) 
W0NIM11bQ0gyXVtDQEBIXTFbQ0gyXU4oW0NIMl1bQ0hdMltDSDJdW0NIMl0yKVtDQEBIXShbQ0gyXTMpW0NAQEhdKE4oW0NIM10pW0NIMl1bQ0gyXTQpW0NAXTUoW0NIMl1bQ0gzXSlbQ0gyXVtDQEhdKFtDQF0xKFtDQEhdM1tDQF00NTYpT1tDSDNdKVtDQEhdKFtDSDNdKVtDSDJdYzdjNltuSF1uW2NIXTc=

>  <s_epik_cmdline>  (305) 
J2VwaWtfcHl0aG9uJywgJy1waHQnLCAnMi4wJywgJy1waCcsICc3LjAnLCAnLXRuJywgJzgnLCAnLW1hJywgJzIwMCcsICctaW1hZScsICc8aW5maWxlLm1hZT4nLCAnLW9tYWUnLCAnPG91dGZpbGUubWFlPic=

>  <r_epik_Ionization_Penalty>  (305) 
0.100262

>  <r_epik_Ionization_Penalty_Charging>  (305) 
0.00427062

>  <r_epik_Ionization_Penalty_Neutral>  (305) 
0.0959919

>  <r_epik_State_Penalty>  (305) 
1.3893

>  <r_epik_Charging_Adjusted_Penalty>  (305) 
1.39357

>  <i_epik_Tot_Q>  (305) 
1

>  <i_epik_Tot_abs_Q>  (305) 
1

>  <s_lp_Force_Field>  (305) 
OPLS3e

>  <r_lp_Energy>  (305) 
134.74

>  <b_lp_Chiralities_Consistent>  (305) 
1

>  <s_lp_Variant>  (305) 
105:0-4

>  <s_i_glide_gridfile>  (305) 
pfpi4k_grid

>  <i_i_glide_lignum>  (305) 
26

>  <i_i_glide_rotatable_bonds>  (305) 
5

>  <r_i_docking_score>  (305) 
-1.42782

>  <r_i_glide_ligand_efficiency>  (305) 
-0.0419948

>  <r_i_glide_ligand_efficiency_sa>  (305) 
-0.136047

>  <r_i_glide_ligand_efficiency_ln>  (305) 
-0.315446

>  <r_i_glide_gscore>  (305) 
-1.42782

>  <r_i_glide_lipo>  (305) 
-0.176214

>  <r_i_glide_hbond>  (305) 
0

>  <r_i_glide_metal>  (305) 
-0

>  <r_i_glide_rewards>  (305) 
-0.220161

>  <r_i_glide_evdw>  (305) 
-18.2418

>  <r_i_glide_ecoul>  (305) 
-1.94756

>  <r_i_glide_erotb>  (305) 
0.184541

>  <r_i_glide_esite>  (305) 
-0.0117645

>  <r_i_glide_emodel>  (305) 
-14.7904

>  <r_i_glide_energy>  (305) 
-20.1894

>  <r_i_glide_einternal>  (305) 
12.4907

>  <r_i_glide_intrahb_reward>  (305) 
-0

>  <i_i_glide_confnum>  (305) 
2

>  <i_i_glide_posenum>  (305) 
24

>  <r_i_glide_eff_state_penalty>  (305) 
0

>  <ligand_id>  (305) 
105

>  <original_smiles>  (305) 
CCC1CN(CC2CC2)C2CC3C1(OC)C1CC4(CC)C2N(C)CCC34c2[nH]ncc2CC1C

>  <smiles>  (305) 
[H]c1c2c(nn1[H])C13C([H])([H])C([H])([H])[N+]([H])(C([H])([H])[H])C4([H])C5([H])N(C([H])([H])C6([H])C([H])([H])C6([H])[H])C([H])([H])C([H])(C([H])([H])C([H])([H])[H])C(OC([H])([H])[H])(C([H])(C([H])([H])C14C([H])([H])C([H])([H])[H])C([H])(C([H])([H])[H])C2([H])[H])C3([H])C5([H])[H]

$$$$
106:0:0
     RDKit          3D

 28 31  0  0  1  0  0  0  0  0999 V2000
    5.7927   -4.0395    2.3001 O   0  0  0  0  0  0  0  0  0  0  0  0
    5.3060   -4.4780    0.9857 S   0  0  0  0  0  0  0  0  0  0  0  0
    6.1497   -5.2707    0.0807 O   0  0  0  0  0  0  0  0  0  0  0  0
    3.7862   -5.3570    1.2337 C   0  0  0  0  0  0  0  0  0  0  0  0
    2.5199   -4.8617    1.3293 C   0  0  0  0  0  0  0  0  0  0  0  0
    1.5983   -5.8872    1.4991 N   0  0  0  0  0  0  0  0  0  0  0  0
    2.3154   -7.0135    1.5336 C   0  0  0  0  0  0  0  0  0  0  0  0
    1.8687   -8.2711    1.6921 N   0  0  0  0  0  0  0  0  0  0  0  0
    2.7683   -9.2484    1.6726 C   0  0  0  0  0  0  0  0  0  0  0  0
    4.1546   -9.0386    1.4940 C   0  0  0  0  0  0  0  0  0  0  0  0
    4.6122   -7.7488    1.3390 C   0  0  0  0  0  0  0  0  0  0  0  0
    3.6966   -6.7343    1.3567 N   0  0  0  0  0  0  0  0  0  0  0  0
    4.8441   -3.0652    0.1188 N   0  0  0  0  0  0  0  0  0  0  0  0
    4.6011   -1.9173    0.8125 N   0  0  0  0  0  0  0  0  0  0  0  0
    4.2359   -0.9969   -0.0329 N   0  0  0  0  0  0  0  0  0  0  0  0
    4.2322   -1.5553   -1.3033 C   0  0  0  0  0  0  0  0  0  0  0  0
    3.9206   -1.0471   -2.5823 C   0  0  0  0  0  0  0  0  0  0  0  0
    4.0138   -1.9068   -3.6933 C   0  0  0  0  0  0  0  0  0  0  0  0
    4.4144   -3.1947   -3.6148 N   0  0  0  0  0  0  0  0  0  0  0  0
    4.7165   -3.6972   -2.3950 C   0  0  0  0  0  0  0  0  0  0  0  0
    4.6341   -2.9032   -1.2368 C   0  0  0  0  0  0  0  0  0  0  0  0
    2.1970   -3.8319    1.2734 H   0  0  0  0  0  0  0  0  0  0  0  0
    2.3909  -10.2611    1.7855 H   0  0  0  0  0  0  0  0  0  0  0  0
    4.8366   -9.8834    1.4755 H   0  0  0  0  0  0  0  0  0  0  0  0
    5.6590   -7.4936    1.2053 H   0  0  0  0  0  0  0  0  0  0  0  0
    3.6049   -0.0242   -2.7176 H   0  0  0  0  0  0  0  0  0  0  0  0
    3.7823   -1.5420   -4.6828 H   0  0  0  0  0  0  0  0  0  0  0  0
    5.0147   -4.7336   -2.3401 H   0  0  0  0  0  0  0  0  0  0  0  0
  1  2  2  0
  2  3  2  0
  2  4  1  0
  2 13  1  0
  4 12  1  0
  4  5  2  0
  5  6  1  0
  5 22  1  0
  6  7  2  0
  7 12  1  0
  7  8  1  0
  8  9  2  0
  9 10  1  0
  9 23  1  0
 10 11  2  0
 10 24  1  0
 11 12  1  0
 11 25  1  0
 13 21  1  0
 13 14  1  0
 14 15  2  0
 15 16  1  0
 16 21  2  0
 16 17  1  0
 17 18  2  0
 17 26  1  0
 18 19  1  0
 18 27  1  0
 19 20  2  0
 20 21  1  0
 20 28  1  0
M  END
>  <i_m_ct_stereo_status>  (306) 
1

>  <s_m_source_file>  (306) 
/var/tmp/pbs.5076255.sched01/tmp_gsyjirk/108c9vsds16.sdf

>  <i_m_source_file_index>  (306) 
28

>  <i_lp_mmshare_version>  (306) 
48012

>  <i_f3d_flags>  (306) 
0

>  <s_epik_input>  (306) 
W2NIXTFbY0hdbltjSF1jKGMxMiluKG5uMilTKD1PKSg9TyljKFtjSF1uMyluKGMzNClbY0hdW2NIXVtjSF1uNA==

>  <s_epik_cmdline>  (306) 
J2VwaWtfcHl0aG9uJywgJy1waHQnLCAnMi4wJywgJy1waCcsICc3LjAnLCAnLXRuJywgJzgnLCAnLW1hJywgJzIwMCcsICctaW1hZScsICc8aW5maWxlLm1hZT4nLCAnLW9tYWUnLCAnPG91dGZpbGUubWFlPic=

>  <r_epik_Ionization_Penalty>  (306) 
0.000425692

>  <r_epik_Ionization_Penalty_Charging>  (306) 
3.19652e-08

>  <r_epik_Ionization_Penalty_Neutral>  (306) 
0.00042566

>  <r_epik_State_Penalty>  (306) 
0.000261974

>  <r_epik_Charging_Adjusted_Penalty>  (306) 
0.000262006

>  <i_epik_Tot_Q>  (306) 
0

>  <i_epik_Tot_abs_Q>  (306) 
0

>  <s_lp_Force_Field>  (306) 
OPLS3e

>  <r_lp_Energy>  (306) 
17.0995

>  <b_lp_Chiralities_Consistent>  (306) 
1

>  <s_lp_Variant>  (306) 
106:0-1

>  <s_i_glide_gridfile>  (306) 
pfpi4k_grid

>  <i_i_glide_lignum>  (306) 
28

>  <i_i_glide_rotatable_bonds>  (306) 
2

>  <r_i_docking_score>  (306) 
-3.48165

>  <r_i_glide_ligand_efficiency>  (306) 
-0.165793

>  <r_i_glide_ligand_efficiency_sa>  (306) 
-0.45741

>  <r_i_glide_ligand_efficiency_ln>  (306) 
-0.860831

>  <r_i_glide_gscore>  (306) 
-3.48165

>  <r_i_glide_lipo>  (306) 
-0.256474

>  <r_i_glide_hbond>  (306) 
-0.0698118

>  <r_i_glide_metal>  (306) 
-0

>  <r_i_glide_rewards>  (306) 
-1.5531

>  <r_i_glide_evdw>  (306) 
-29.0163

>  <r_i_glide_ecoul>  (306) 
-3.53792

>  <r_i_glide_erotb>  (306) 
0.40529

>  <r_i_glide_esite>  (306) 
-0.0260558

>  <r_i_glide_emodel>  (306) 
-39.2402

>  <r_i_glide_energy>  (306) 
-32.5542

>  <r_i_glide_einternal>  (306) 
1.47956

>  <r_i_glide_intrahb_reward>  (306) 
-0

>  <i_i_glide_confnum>  (306) 
4

>  <i_i_glide_posenum>  (306) 
31

>  <r_i_glide_eff_state_penalty>  (306) 
0

>  <ligand_id>  (306) 
106

>  <original_smiles>  (306) 
O=S(=O)(c1cnc2ncccn12)n1nnc2ccncc21

>  <smiles>  (306) 
[H]c1nc2nc([H])c(S(=O)(=O)n3nnc4c([H])c([H])nc([H])c43)n2c([H])c1[H]

$$$$
106:0:1
     RDKit          3D

 28 31  0  0  1  0  0  0  0  0999 V2000
    5.9635   -4.0554    1.8117 O   0  0  0  0  0  0  0  0  0  0  0  0
    5.0637   -4.3895    0.6961 S   0  0  0  0  0  0  0  0  0  0  0  0
    5.4496   -5.3626   -0.3254 O   0  0  0  0  0  0  0  0  0  0  0  0
    3.4893   -4.9215    1.3225 C   0  0  0  0  0  0  0  0  0  0  0  0
    2.5209   -5.6625    0.6980 C   0  0  0  0  0  0  0  0  0  0  0  0
    1.4347   -5.8576    1.5418 N   0  0  0  0  0  0  0  0  0  0  0  0
    1.7511   -5.2453    2.6850 C   0  0  0  0  0  0  0  0  0  0  0  0
    1.0040   -5.1380    3.7975 N   0  0  0  0  0  0  0  0  0  0  0  0
    1.5185   -4.4636    4.8200 C   0  0  0  0  0  0  0  0  0  0  0  0
    2.7909   -3.8497    4.7983 C   0  0  0  0  0  0  0  0  0  0  0  0
    3.5438   -3.9435    3.6543 C   0  0  0  0  0  0  0  0  0  0  0  0
    3.0298   -4.6371    2.5935 N   0  0  0  0  0  0  0  0  0  0  0  0
    4.7250   -2.9180   -0.1197 N   0  0  0  0  0  0  0  0  0  0  0  0
    4.6183   -1.7737    0.6156 N   0  0  0  0  0  0  0  0  0  0  0  0
    4.3418   -0.7936   -0.1936 N   0  0  0  0  0  0  0  0  0  0  0  0
    4.2509   -1.3100   -1.4804 C   0  0  0  0  0  0  0  0  0  0  0  0
    3.9731   -0.7288   -2.7368 C   0  0  0  0  0  0  0  0  0  0  0  0
    3.9490   -1.5582   -3.8768 C   0  0  0  0  0  0  0  0  0  0  0  0
    4.2161   -2.8809   -3.8465 N   0  0  0  0  0  0  0  0  0  0  0  0
    4.4852   -3.4509   -2.6492 C   0  0  0  0  0  0  0  0  0  0  0  0
    4.5059   -2.6918   -1.4649 C   0  0  0  0  0  0  0  0  0  0  0  0
    2.5185   -6.0609   -0.3060 H   0  0  0  0  0  0  0  0  0  0  0  0
    0.9124   -4.3944    5.7191 H   0  0  0  0  0  0  0  0  0  0  0  0
    3.1800   -3.3161    5.6590 H   0  0  0  0  0  0  0  0  0  0  0  0
    4.5235   -3.4883    3.5663 H   0  0  0  0  0  0  0  0  0  0  0  0
    3.7718    0.3249   -2.8247 H   0  0  0  0  0  0  0  0  0  0  0  0
    3.7399   -1.1371   -4.8510 H   0  0  0  0  0  0  0  0  0  0  0  0
    4.6826   -4.5114   -2.6407 H   0  0  0  0  0  0  0  0  0  0  0  0
  1  2  2  0
  2  3  2  0
  2  4  1  0
  2 13  1  0
  4 12  1  0
  4  5  2  0
  5  6  1  0
  5 22  1  0
  6  7  2  0
  7 12  1  0
  7  8  1  0
  8  9  2  0
  9 10  1  0
  9 23  1  0
 10 11  2  0
 10 24  1  0
 11 12  1  0
 11 25  1  0
 13 21  1  0
 13 14  1  0
 14 15  2  0
 15 16  1  0
 16 21  2  0
 16 17  1  0
 17 18  2  0
 17 26  1  0
 18 19  1  0
 18 27  1  0
 19 20  2  0
 20 21  1  0
 20 28  1  0
M  END
>  <i_m_ct_stereo_status>  (307) 
1

>  <s_m_source_file>  (307) 
/var/tmp/pbs.5076255.sched01/tmp_gsyjirk/108c9vsds16.sdf

>  <i_m_source_file_index>  (307) 
28

>  <i_lp_mmshare_version>  (307) 
48012

>  <i_f3d_flags>  (307) 
0

>  <s_epik_input>  (307) 
W2NIXTFbY0hdbltjSF1jKGMxMiluKG5uMilTKD1PKSg9TyljKFtjSF1uMyluKGMzNClbY0hdW2NIXVtjSF1uNA==

>  <s_epik_cmdline>  (307) 
J2VwaWtfcHl0aG9uJywgJy1waHQnLCAnMi4wJywgJy1waCcsICc3LjAnLCAnLXRuJywgJzgnLCAnLW1hJywgJzIwMCcsICctaW1hZScsICc8aW5maWxlLm1hZT4nLCAnLW9tYWUnLCAnPG91dGZpbGUubWFlPic=

>  <r_epik_Ionization_Penalty>  (307) 
0.000425692

>  <r_epik_Ionization_Penalty_Charging>  (307) 
3.19652e-08

>  <r_epik_Ionization_Penalty_Neutral>  (307) 
0.00042566

>  <r_epik_State_Penalty>  (307) 
0.000261974

>  <r_epik_Charging_Adjusted_Penalty>  (307) 
0.000262006

>  <i_epik_Tot_Q>  (307) 
0

>  <i_epik_Tot_abs_Q>  (307) 
0

>  <s_lp_Force_Field>  (307) 
OPLS3e

>  <r_lp_Energy>  (307) 
17.0995

>  <b_lp_Chiralities_Consistent>  (307) 
1

>  <s_lp_Variant>  (307) 
106:0-1

>  <s_i_glide_gridfile>  (307) 
pfpi4k_grid

>  <i_i_glide_lignum>  (307) 
28

>  <i_i_glide_rotatable_bonds>  (307) 
2

>  <r_i_docking_score>  (307) 
-3.32987

>  <r_i_glide_ligand_efficiency>  (307) 
-0.158565

>  <r_i_glide_ligand_efficiency_sa>  (307) 
-0.43747

>  <r_i_glide_ligand_efficiency_ln>  (307) 
-0.823304

>  <r_i_glide_gscore>  (307) 
-3.32987

>  <r_i_glide_lipo>  (307) 
-0.180374

>  <r_i_glide_hbond>  (307) 
-0.178328

>  <r_i_glide_metal>  (307) 
-0

>  <r_i_glide_rewards>  (307) 
-1.43353

>  <r_i_glide_evdw>  (307) 
-25.2931

>  <r_i_glide_ecoul>  (307) 
-4.24233

>  <r_i_glide_erotb>  (307) 
0.40529

>  <r_i_glide_esite>  (307) 
-0.0419215

>  <r_i_glide_emodel>  (307) 
-36.2252

>  <r_i_glide_energy>  (307) 
-29.5354

>  <r_i_glide_einternal>  (307) 
0.703326

>  <r_i_glide_intrahb_reward>  (307) 
-0

>  <i_i_glide_confnum>  (307) 
4

>  <i_i_glide_posenum>  (307) 
6

>  <r_i_glide_eff_state_penalty>  (307) 
0

>  <ligand_id>  (307) 
106

>  <original_smiles>  (307) 
O=S(=O)(c1cnc2ncccn12)n1nnc2ccncc21

>  <smiles>  (307) 
[H]c1nc2nc([H])c(S(=O)(=O)n3nnc4c([H])c([H])nc([H])c43)n2c([H])c1[H]

$$$$
106:0:2
     RDKit          3D

 28 31  0  0  1  0  0  0  0  0999 V2000
    3.1898   -3.6700    3.9854 O   0  0  0  0  0  0  0  0  0  0  0  0
    2.1075   -4.4134    4.6489 S   0  0  0  0  0  0  0  0  0  0  0  0
    2.3505   -5.2636    5.8238 O   0  0  0  0  0  0  0  0  0  0  0  0
    0.8029   -3.2735    5.0757 C   0  0  0  0  0  0  0  0  0  0  0  0
   -0.1333   -3.3614    6.0736 C   0  0  0  0  0  0  0  0  0  0  0  0
   -0.9833   -2.2629    6.0519 N   0  0  0  0  0  0  0  0  0  0  0  0
   -0.5532   -1.4897    5.0524 C   0  0  0  0  0  0  0  0  0  0  0  0
   -1.0591   -0.3128    4.6455 N   0  0  0  0  0  0  0  0  0  0  0  0
   -0.4583    0.2894    3.6233 C   0  0  0  0  0  0  0  0  0  0  0  0
    0.6570   -0.2478    2.9389 C   0  0  0  0  0  0  0  0  0  0  0  0
    1.1626   -1.4576    3.3504 C   0  0  0  0  0  0  0  0  0  0  0  0
    0.5664   -2.0822    4.4074 N   0  0  0  0  0  0  0  0  0  0  0  0
    1.3984   -5.4434    3.4609 N   0  0  0  0  0  0  0  0  0  0  0  0
    1.8381   -5.3907    2.1702 N   0  0  0  0  0  0  0  0  0  0  0  0
    1.1350   -6.2344    1.4637 N   0  0  0  0  0  0  0  0  0  0  0  0
    0.2420   -6.8626    2.3169 C   0  0  0  0  0  0  0  0  0  0  0  0
   -0.7607   -7.8292    2.1082 C   0  0  0  0  0  0  0  0  0  0  0  0
   -1.5310   -8.2550    3.2114 C   0  0  0  0  0  0  0  0  0  0  0  0
   -1.3784   -7.7527    4.4575 N   0  0  0  0  0  0  0  0  0  0  0  0
   -0.4122   -6.8398    4.6779 C   0  0  0  0  0  0  0  0  0  0  0  0
    0.3904   -6.3684    3.6260 C   0  0  0  0  0  0  0  0  0  0  0  0
   -0.2674   -4.1461    6.8057 H   0  0  0  0  0  0  0  0  0  0  0  0
   -0.8754    1.2387    3.2967 H   0  0  0  0  0  0  0  0  0  0  0  0
    1.1036    0.2697    2.0943 H   0  0  0  0  0  0  0  0  0  0  0  0
    2.0080   -1.9310    2.8615 H   0  0  0  0  0  0  0  0  0  0  0  0
   -0.9357   -8.2425    1.1271 H   0  0  0  0  0  0  0  0  0  0  0  0
   -2.2987   -9.0045    3.0803 H   0  0  0  0  0  0  0  0  0  0  0  0
   -0.3073   -6.4614    5.6812 H   0  0  0  0  0  0  0  0  0  0  0  0
  1  2  2  0
  2  3  2  0
  2  4  1  0
  2 13  1  0
  4 12  1  0
  4  5  2  0
  5  6  1  0
  5 22  1  0
  6  7  2  0
  7 12  1  0
  7  8  1  0
  8  9  2  0
  9 10  1  0
  9 23  1  0
 10 11  2  0
 10 24  1  0
 11 12  1  0
 11 25  1  0
 13 21  1  0
 13 14  1  0
 14 15  2  0
 15 16  1  0
 16 21  2  0
 16 17  1  0
 17 18  2  0
 17 26  1  0
 18 19  1  0
 18 27  1  0
 19 20  2  0
 20 21  1  0
 20 28  1  0
M  END
>  <i_m_ct_stereo_status>  (308) 
1

>  <s_m_source_file>  (308) 
/var/tmp/pbs.5076255.sched01/tmp_gsyjirk/108c9vsds16.sdf

>  <i_m_source_file_index>  (308) 
28

>  <i_lp_mmshare_version>  (308) 
48012

>  <i_f3d_flags>  (308) 
0

>  <s_epik_input>  (308) 
W2NIXTFbY0hdbltjSF1jKGMxMiluKG5uMilTKD1PKSg9TyljKFtjSF1uMyluKGMzNClbY0hdW2NIXVtjSF1uNA==

>  <s_epik_cmdline>  (308) 
J2VwaWtfcHl0aG9uJywgJy1waHQnLCAnMi4wJywgJy1waCcsICc3LjAnLCAnLXRuJywgJzgnLCAnLW1hJywgJzIwMCcsICctaW1hZScsICc8aW5maWxlLm1hZT4nLCAnLW9tYWUnLCAnPG91dGZpbGUubWFlPic=

>  <r_epik_Ionization_Penalty>  (308) 
0.000425692

>  <r_epik_Ionization_Penalty_Charging>  (308) 
3.19652e-08

>  <r_epik_Ionization_Penalty_Neutral>  (308) 
0.00042566

>  <r_epik_State_Penalty>  (308) 
0.000261974

>  <r_epik_Charging_Adjusted_Penalty>  (308) 
0.000262006

>  <i_epik_Tot_Q>  (308) 
0

>  <i_epik_Tot_abs_Q>  (308) 
0

>  <s_lp_Force_Field>  (308) 
OPLS3e

>  <r_lp_Energy>  (308) 
17.0995

>  <b_lp_Chiralities_Consistent>  (308) 
1

>  <s_lp_Variant>  (308) 
106:0-1

>  <s_i_glide_gridfile>  (308) 
pfpi4k_grid

>  <i_i_glide_lignum>  (308) 
28

>  <i_i_glide_rotatable_bonds>  (308) 
2

>  <r_i_docking_score>  (308) 
-3.12859

>  <r_i_glide_ligand_efficiency>  (308) 
-0.14898

>  <r_i_glide_ligand_efficiency_sa>  (308) 
-0.411025

>  <r_i_glide_ligand_efficiency_ln>  (308) 
-0.773536

>  <r_i_glide_gscore>  (308) 
-3.12859

>  <r_i_glide_lipo>  (308) 
-0.00231599

>  <r_i_glide_hbond>  (308) 
0

>  <r_i_glide_metal>  (308) 
-0

>  <r_i_glide_rewards>  (308) 
-1.39409

>  <r_i_glide_evdw>  (308) 
-23.4748

>  <r_i_glide_ecoul>  (308) 
-5.32736

>  <r_i_glide_erotb>  (308) 
0.40529

>  <r_i_glide_esite>  (308) 
-0.16462

>  <r_i_glide_emodel>  (308) 
-34.9904

>  <r_i_glide_energy>  (308) 
-28.8022

>  <r_i_glide_einternal>  (308) 
0.877338

>  <r_i_glide_intrahb_reward>  (308) 
-0

>  <i_i_glide_confnum>  (308) 
4

>  <i_i_glide_posenum>  (308) 
13

>  <r_i_glide_eff_state_penalty>  (308) 
0

>  <ligand_id>  (308) 
106

>  <original_smiles>  (308) 
O=S(=O)(c1cnc2ncccn12)n1nnc2ccncc21

>  <smiles>  (308) 
[H]c1nc2nc([H])c(S(=O)(=O)n3nnc4c([H])c([H])nc([H])c43)n2c([H])c1[H]

$$$$
107:0:0
     RDKit          3D

 67 75  0  0  1  0  0  0  0  0999 V2000
    0.1140   -5.2608    5.5674 O   0  0  0  0  0  0  0  0  0  0  0  0
    0.1988   -6.4279    4.8647 C   0  0  0  0  0  0  0  0  0  0  0  0
   -0.9801   -7.0815    4.4118 C   0  0  0  0  0  0  0  0  0  0  0  0
   -0.9324   -8.3140    3.6960 C   0  0  0  0  0  0  0  0  0  0  0  0
    0.3183   -8.9073    3.4219 C   0  0  0  0  0  0  0  0  0  0  0  0
    1.4118   -8.1864    3.8973 C   0  0  0  0  0  0  0  0  0  0  0  0
    1.4645   -6.9919    4.5918 C   0  0  0  0  0  0  0  0  0  0  0  0
    2.7496   -6.6186    4.9564 O   0  0  0  0  0  0  0  0  0  0  0  0
    3.5801   -7.4408    4.1096 C   0  0  1  0  0  0  0  0  0  0  0  0
    4.9757   -7.8565    4.4971 C   0  0  0  0  0  0  0  0  0  0  0  0
    5.4879   -8.9804    3.9402 C   0  0  0  0  0  0  0  0  0  0  0  0
    6.7822   -8.3473    3.5804 C   0  0  0  0  0  0  0  0  0  0  0  0
    7.4717   -7.9232    2.4241 C   0  0  0  0  0  0  0  0  0  0  0  0
    7.1876   -6.5925    2.2861 C   0  0  0  0  0  0  0  0  0  0  0  0
    7.4799   -5.6806    1.1495 C   0  0  0  0  0  0  0  0  0  0  0  0
    6.4470   -4.6303    0.9608 N   0  0  0  0  0  0  0  0  0  0  0  0
    5.2037   -5.1395    0.3131 C   0  0  0  0  0  0  0  0  0  0  0  0
    4.1431   -4.0351    0.1905 C   0  0  0  0  0  0  0  0  0  0  0  0
    4.7124   -2.8545   -0.4648 N   0  0  0  0  0  0  0  0  0  0  0  0
    4.1414   -2.2954   -1.6369 C   0  0  0  0  0  0  0  0  0  0  0  0
    3.2963   -3.0501   -2.4757 C   0  0  0  0  0  0  0  0  0  0  0  0
    2.7319   -2.4860   -3.6311 C   0  0  0  0  0  0  0  0  0  0  0  0
    3.0153   -1.2082   -3.9486 N   0  0  0  0  0  0  0  0  0  0  0  0
    3.8120   -0.4293   -3.1922 C   0  0  0  0  0  0  0  0  0  0  0  0
    4.3941   -0.9530   -2.0159 C   0  0  0  0  0  0  0  0  0  0  0  0
    5.9520   -2.3268    0.1029 C   0  0  0  0  0  0  0  0  0  0  0  0
    6.9949   -3.4488    0.2414 C   0  0  0  0  0  0  0  0  0  0  0  0
    6.3907   -6.1005    3.3049 O   0  0  0  0  0  0  0  0  0  0  0  0
    6.2379   -7.1270    4.1875 C   0  0  0  0  0  0  0  0  0  0  0  0
    4.7462   -9.9405    2.9763 C   0  0  1  0  0  0  0  0  0  0  0  0
    5.0245  -11.2823    3.3169 O   0  0  0  0  0  0  0  0  0  0  0  0
    3.1982   -9.6263    2.7788 C   0  0  1  0  0  0  0  0  0  0  0  0
    3.0556   -9.0487    1.4894 O   0  0  0  0  0  0  0  0  0  0  0  0
    2.1702  -10.7620    3.0600 C   0  0  1  0  0  0  0  0  0  0  0  0
    2.3459  -10.9103    4.5557 C   0  0  0  0  0  0  0  0  0  0  0  0
    2.7366   -9.7403    5.0616 C   0  0  0  0  0  0  0  0  0  0  0  0
    2.7750   -8.7189    3.9323 C   0  0  2  0  0  0  0  0  0  0  0  0
    0.7016  -10.2662    2.7876 C   0  0  0  0  0  0  0  0  0  0  0  0
    0.9639   -4.9511    5.8457 H   0  0  0  0  0  0  0  0  0  0  0  0
   -1.9370   -6.6555    4.6571 H   0  0  0  0  0  0  0  0  0  0  0  0
   -1.8414   -8.8174    3.4098 H   0  0  0  0  0  0  0  0  0  0  0  0
    3.6555   -6.9498    3.1418 H   0  0  0  0  0  0  0  0  0  0  0  0
    7.9238   -8.5536    1.6728 H   0  0  0  0  0  0  0  0  0  0  0  0
    8.4592   -5.2427    1.3238 H   0  0  0  0  0  0  0  0  0  0  0  0
    7.5549   -6.2676    0.2348 H   0  0  0  0  0  0  0  0  0  0  0  0
    5.4479   -5.4993   -0.6868 H   0  0  0  0  0  0  0  0  0  0  0  0
    4.7974   -5.9894    0.8628 H   0  0  0  0  0  0  0  0  0  0  0  0
    3.2677   -4.4518   -0.3028 H   0  0  0  0  0  0  0  0  0  0  0  0
    3.7959   -3.7433    1.1801 H   0  0  0  0  0  0  0  0  0  0  0  0
    3.0549   -4.0796   -2.2660 H   0  0  0  0  0  0  0  0  0  0  0  0
    2.0635   -3.0171   -4.2927 H   0  0  0  0  0  0  0  0  0  0  0  0
    3.9417    0.5916   -3.5191 H   0  0  0  0  0  0  0  0  0  0  0  0
    4.9847   -0.2914   -1.3972 H   0  0  0  0  0  0  0  0  0  0  0  0
    6.3995   -1.5357   -0.4956 H   0  0  0  0  0  0  0  0  0  0  0  0
    5.7376   -1.8965    1.0803 H   0  0  0  0  0  0  0  0  0  0  0  0
    7.8819   -3.0624    0.7502 H   0  0  0  0  0  0  0  0  0  0  0  0
    7.3168   -3.7714   -0.7506 H   0  0  0  0  0  0  0  0  0  0  0  0
    5.2402   -9.7987    2.0167 H   0  0  0  0  0  0  0  0  0  0  0  0
    4.7391  -11.8349    2.5993 H   0  0  0  0  0  0  0  0  0  0  0  0
    3.2649   -9.7231    0.8561 H   0  0  0  0  0  0  0  0  0  0  0  0
    2.4149  -11.6841    2.5356 H   0  0  0  0  0  0  0  0  0  0  0  0
    2.2056  -11.8318    5.0981 H   0  0  0  0  0  0  0  0  0  0  0  0
    2.9743   -9.5241    6.0913 H   0  0  0  0  0  0  0  0  0  0  0  0
   -0.0057  -11.0127    3.1353 H   0  0  0  0  0  0  0  0  0  0  0  0
    0.5663  -10.1686    1.7159 H   0  0  0  0  0  0  0  0  0  0  0  0
    2.5875   -0.8154   -4.7911 H   0  0  0  0  0  0  0  0  0  0  0  0
    6.1767   -4.3032    1.8818 H   0  0  0  0  0  0  0  0  0  0  0  0
  1  2  1  0
  1 39  1  0
  2  7  2  0
  2  3  1  0
  3  4  2  0
  3 40  1  0
  4  5  1  0
  4 41  1  0
  5 38  1  0
  5  6  2  0
  6 37  1  0
  6  7  1  0
  7  8  1  0
  8  9  1  0
  9 37  1  0
  9 10  1  0
  9 42  1  6
 10 29  1  0
 10 11  2  0
 11 12  1  0
 11 30  1  0
 12 29  2  0
 12 13  1  0
 13 14  2  0
 13 43  1  0
 14 15  1  0
 14 28  1  0
 15 16  1  0
 15 44  1  0
 15 45  1  0
 16 27  1  0
 16 17  1  0
 16 67  1  0
 17 18  1  0
 17 46  1  0
 17 47  1  0
 18 19  1  0
 18 48  1  0
 18 49  1  0
 19 20  1  0
 19 26  1  0
 20 25  1  0
 20 21  2  0
 21 22  1  0
 21 50  1  0
 22 23  2  0
 22 51  1  0
 23 24  1  0
 23 66  1  0
 24 25  2  0
 24 52  1  0
 25 53  1  0
 26 27  1  0
 26 54  1  0
 26 55  1  0
 27 56  1  0
 27 57  1  0
 28 29  1  0
 30 31  1  0
 30 32  1  0
 30 58  1  6
 31 59  1  0
 32 37  1  0
 32 33  1  6
 32 34  1  0
 33 60  1  0
 34 35  1  0
 34 38  1  0
 34 61  1  6
 35 36  2  0
 35 62  1  0
 37 36  1  1
 36 63  1  0
 38 64  1  0
 38 65  1  0
M  CHG  2  16   1  23   1
M  END
>  <i_m_ct_stereo_status>  (309) 
1

>  <s_m_source_file>  (309) 
/var/tmp/pbs.5076255.sched01/tmp_gsyjirk/108c9vsds16.sdf

>  <i_m_source_file_index>  (309) 
29

>  <i_lp_mmshare_version>  (309) 
48012

>  <i_f3d_flags>  (309) 
0

>  <s_epik_input>  (309) 
W0NAQF0xMjNjNGM1W2NIXVtjSF1jKFtPSF0pYzRPW0NASF0xQzY9QyhbQ0BASF0oW09IXSlbQ0BAXTIoW09IXSlbQ0BIXShbQ0gyXTUpW0NIXT1bQ0hdMyljN2M2b2MoW2NIXTcpW0NIMl1OOFtDSDJdW0NIMl1OKFtDSDJdW0NIMl04KWM5W2NIXVtjSF1uW2NIXVtjSF05

>  <s_epik_cmdline>  (309) 
J2VwaWtfcHl0aG9uJywgJy1waHQnLCAnMi4wJywgJy1waCcsICc3LjAnLCAnLXRuJywgJzgnLCAnLW1hJywgJzIwMCcsICctaW1hZScsICc8aW5maWxlLm1hZT4nLCAnLW9tYWUnLCAnPG91dGZpbGUubWFlPic=

>  <r_lp_tautomer_probability>  (309) 
1

>  <r_epik_Ionization_Penalty>  (309) 
0.0625361

>  <r_epik_Ionization_Penalty_Charging>  (309) 
0.060962

>  <r_epik_Ionization_Penalty_Neutral>  (309) 
0.00157407

>  <r_epik_State_Penalty>  (309) 
0.0407396

>  <r_epik_Charging_Adjusted_Penalty>  (309) 
0.101702

>  <i_epik_Tot_Q>  (309) 
2

>  <i_epik_Tot_abs_Q>  (309) 
2

>  <s_lp_Force_Field>  (309) 
OPLS3e

>  <r_lp_Energy>  (309) 
181.291

>  <b_lp_Chiralities_Consistent>  (309) 
1

>  <s_lp_Variant>  (309) 
107:0-1

>  <s_i_glide_gridfile>  (309) 
pfpi4k_grid

>  <i_i_glide_lignum>  (309) 
29

>  <i_i_glide_rotatable_bonds>  (309) 
6

>  <r_i_docking_score>  (309) 
-4.21033

>  <r_i_glide_ligand_efficiency>  (309) 
-0.110798

>  <r_i_glide_ligand_efficiency_sa>  (309) 
-0.372501

>  <r_i_glide_ligand_efficiency_ln>  (309) 
-0.907871

>  <r_i_glide_gscore>  (309) 
-4.21033

>  <r_i_glide_lipo>  (309) 
-0.995484

>  <r_i_glide_hbond>  (309) 
0

>  <r_i_glide_metal>  (309) 
-0

>  <r_i_glide_rewards>  (309) 
-0.00266449

>  <r_i_glide_evdw>  (309) 
-40.0776

>  <r_i_glide_ecoul>  (309) 
-9.62153

>  <r_i_glide_erotb>  (309) 
0.23493

>  <r_i_glide_esite>  (309) 
0

>  <r_i_glide_emodel>  (309) 
-62.2153

>  <r_i_glide_energy>  (309) 
-49.6992

>  <r_i_glide_einternal>  (309) 
3.18185

>  <r_i_glide_intrahb_reward>  (309) 
-0

>  <i_i_glide_confnum>  (309) 
5

>  <i_i_glide_posenum>  (309) 
26

>  <r_i_glide_eff_state_penalty>  (309) 
0

>  <ligand_id>  (309) 
107

>  <original_smiles>  (309) 
Oc1ccc2c3c1OC1C4=C(c5cc(CN6CCN(c7ccncc7)CC6)oc54)C(O)C4(O)C(C=CC314)C2

>  <smiles>  (309) 
[H]Oc1c([H])c([H])c2c3c1OC1([H])C4=C(c5c4oc(C([H])([H])[N+]4([H])C([H])([H])C([H])([H])N(c6c([H])c([H])[n+]([H])c([H])c6[H])C([H])([H])C4([H])[H])c5[H])C([H])(O[H])C4(O[H])C([H])(C([H])=C([H])C314)C2([H])[H]

$$$$
107:0:1
     RDKit          3D

 67 75  0  0  1  0  0  0  0  0999 V2000
    1.4850   -4.7444    7.5875 O   0  0  0  0  0  0  0  0  0  0  0  0
    0.9748   -5.4867    6.5687 C   0  0  0  0  0  0  0  0  0  0  0  0
   -0.4257   -5.4662    6.3091 C   0  0  0  0  0  0  0  0  0  0  0  0
   -0.9973   -6.2577    5.2712 C   0  0  0  0  0  0  0  0  0  0  0  0
   -0.1894   -7.0705    4.4638 C   0  0  0  0  0  0  0  0  0  0  0  0
    1.1614   -7.0110    4.7906 C   0  0  0  0  0  0  0  0  0  0  0  0
    1.8138   -6.2901    5.7701 C   0  0  0  0  0  0  0  0  0  0  0  0
    3.1730   -6.5523    5.8392 O   0  0  0  0  0  0  0  0  0  0  0  0
    3.4351   -7.1973    4.5755 C   0  0  1  0  0  0  0  0  0  0  0  0
    4.5633   -8.1704    4.3838 C   0  0  0  0  0  0  0  0  0  0  0  0
    4.4627   -9.0764    3.3778 C   0  0  0  0  0  0  0  0  0  0  0  0
    5.8353   -8.8386    2.8718 C   0  0  0  0  0  0  0  0  0  0  0  0
    6.4711   -8.2606    1.7512 C   0  0  0  0  0  0  0  0  0  0  0  0
    6.7609   -6.9702    2.1171 C   0  0  0  0  0  0  0  0  0  0  0  0
    7.2500   -5.8265    1.2999 C   0  0  0  0  0  0  0  0  0  0  0  0
    6.2047   -4.7957    1.0593 N   0  0  0  0  0  0  0  0  0  0  0  0
    5.0502   -5.2974    0.2578 C   0  0  0  0  0  0  0  0  0  0  0  0
    3.9828   -4.2140    0.0644 C   0  0  0  0  0  0  0  0  0  0  0  0
    4.5907   -3.0042   -0.4994 N   0  0  0  0  0  0  0  0  0  0  0  0
    4.0692   -2.3711   -1.6555 C   0  0  0  0  0  0  0  0  0  0  0  0
    4.4040   -1.0281   -1.9898 C   0  0  0  0  0  0  0  0  0  0  0  0
    3.8566   -0.4253   -3.1403 C   0  0  0  0  0  0  0  0  0  0  0  0
    3.0161   -1.1162   -3.9290 N   0  0  0  0  0  0  0  0  0  0  0  0
    2.6559   -2.3890   -3.6601 C   0  0  0  0  0  0  0  0  0  0  0  0
    3.1812   -3.0403   -2.5364 C   0  0  0  0  0  0  0  0  0  0  0  0
    5.7406   -2.4694    0.2349 C   0  0  0  0  0  0  0  0  0  0  0  0
    6.7926   -3.5699    0.4520 C   0  0  0  0  0  0  0  0  0  0  0  0
    6.3833   -6.6793    3.4107 O   0  0  0  0  0  0  0  0  0  0  0  0
    5.9544   -7.8470    3.9549 C   0  0  0  0  0  0  0  0  0  0  0  0
    3.2532   -9.2660    2.4343 C   0  0  1  0  0  0  0  0  0  0  0  0
    2.9904  -10.6438    2.3025 O   0  0  0  0  0  0  0  0  0  0  0  0
    1.9702   -8.3929    2.8085 C   0  0  1  0  0  0  0  0  0  0  0  0
    1.8972   -7.3027    1.8953 O   0  0  0  0  0  0  0  0  0  0  0  0
    0.6041   -9.1248    3.0124 C   0  0  1  0  0  0  0  0  0  0  0  0
    0.9186   -9.9063    4.2737 C   0  0  0  0  0  0  0  0  0  0  0  0
    1.8439   -9.2495    4.9767 C   0  0  0  0  0  0  0  0  0  0  0  0
    2.1511   -7.9452    4.2573 C   0  0  2  0  0  0  0  0  0  0  0  0
   -0.5341   -8.0904    3.3518 C   0  0  0  0  0  0  0  0  0  0  0  0
    2.4155   -4.8775    7.6928 H   0  0  0  0  0  0  0  0  0  0  0  0
   -1.0671   -4.8727    6.9319 H   0  0  0  0  0  0  0  0  0  0  0  0
   -2.0644   -6.2670    5.1319 H   0  0  0  0  0  0  0  0  0  0  0  0
    3.5690   -6.4157    3.8308 H   0  0  0  0  0  0  0  0  0  0  0  0
    6.5026   -8.6647    0.7520 H   0  0  0  0  0  0  0  0  0  0  0  0
    8.1098   -5.3835    1.8020 H   0  0  0  0  0  0  0  0  0  0  0  0
    7.5834   -6.2082    0.3367 H   0  0  0  0  0  0  0  0  0  0  0  0
    5.4101   -5.6091   -0.7222 H   0  0  0  0  0  0  0  0  0  0  0  0
    4.5925   -6.1739    0.7150 H   0  0  0  0  0  0  0  0  0  0  0  0
    3.1800   -4.6493   -0.5245 H   0  0  0  0  0  0  0  0  0  0  0  0
    3.5306   -3.9589    1.0222 H   0  0  0  0  0  0  0  0  0  0  0  0
    5.0360   -0.4184   -1.3620 H   0  0  0  0  0  0  0  0  0  0  0  0
    4.0491    0.6004   -3.4232 H   0  0  0  0  0  0  0  0  0  0  0  0
    1.9441   -2.8513   -4.3277 H   0  0  0  0  0  0  0  0  0  0  0  0
    2.8555   -4.0508   -2.3872 H   0  0  0  0  0  0  0  0  0  0  0  0
    6.2476   -1.6457   -0.2652 H   0  0  0  0  0  0  0  0  0  0  0  0
    5.4011   -2.0844    1.1969 H   0  0  0  0  0  0  0  0  0  0  0  0
    7.6112   -3.1829    1.0645 H   0  0  0  0  0  0  0  0  0  0  0  0
    7.2256   -3.8312   -0.5160 H   0  0  0  0  0  0  0  0  0  0  0  0
    3.6001   -8.9329    1.4580 H   0  0  0  0  0  0  0  0  0  0  0  0
    3.5039  -11.0071    1.5785 H   0  0  0  0  0  0  0  0  0  0  0  0
    2.7529   -6.9132    1.8304 H   0  0  0  0  0  0  0  0  0  0  0  0
    0.3529   -9.7870    2.1825 H   0  0  0  0  0  0  0  0  0  0  0  0
    0.4788  -10.8568    4.5277 H   0  0  0  0  0  0  0  0  0  0  0  0
    2.2973   -9.5544    5.9074 H   0  0  0  0  0  0  0  0  0  0  0  0
   -1.4312   -8.6297    3.6482 H   0  0  0  0  0  0  0  0  0  0  0  0
   -0.7799   -7.5308    2.4514 H   0  0  0  0  0  0  0  0  0  0  0  0
    2.5969   -0.6576   -4.7389 H   0  0  0  0  0  0  0  0  0  0  0  0
    5.8252   -4.5087    1.9545 H   0  0  0  0  0  0  0  0  0  0  0  0
  1  2  1  0
  1 39  1  0
  2  7  2  0
  2  3  1  0
  3  4  2  0
  3 40  1  0
  4  5  1  0
  4 41  1  0
  5 38  1  0
  5  6  2  0
  6 37  1  0
  6  7  1  0
  7  8  1  0
  8  9  1  0
  9 37  1  0
  9 10  1  0
  9 42  1  6
 10 29  1  0
 10 11  2  0
 11 12  1  0
 11 30  1  0
 12 29  2  0
 12 13  1  0
 13 14  2  0
 13 43  1  0
 14 15  1  0
 14 28  1  0
 15 16  1  0
 15 44  1  0
 15 45  1  0
 16 27  1  0
 16 17  1  0
 16 67  1  0
 17 18  1  0
 17 46  1  0
 17 47  1  0
 18 19  1  0
 18 48  1  0
 18 49  1  0
 19 20  1  0
 19 26  1  0
 20 25  1  0
 20 21  2  0
 21 22  1  0
 21 50  1  0
 22 23  2  0
 22 51  1  0
 23 24  1  0
 23 66  1  0
 24 25  2  0
 24 52  1  0
 25 53  1  0
 26 27  1  0
 26 54  1  0
 26 55  1  0
 27 56  1  0
 27 57  1  0
 28 29  1  0
 30 31  1  0
 30 32  1  0
 30 58  1  6
 31 59  1  0
 32 37  1  0
 32 33  1  6
 32 34  1  0
 33 60  1  0
 34 35  1  0
 34 38  1  0
 34 61  1  6
 35 36  2  0
 35 62  1  0
 37 36  1  1
 36 63  1  0
 38 64  1  0
 38 65  1  0
M  CHG  2  16   1  23   1
M  END
>  <i_m_ct_stereo_status>  (310) 
1

>  <s_m_source_file>  (310) 
/var/tmp/pbs.5076255.sched01/tmp_gsyjirk/108c9vsds16.sdf

>  <i_m_source_file_index>  (310) 
29

>  <i_lp_mmshare_version>  (310) 
48012

>  <i_f3d_flags>  (310) 
0

>  <s_epik_input>  (310) 
W0NAQF0xMjNjNGM1W2NIXVtjSF1jKFtPSF0pYzRPW0NASF0xQzY9QyhbQ0BASF0oW09IXSlbQ0BAXTIoW09IXSlbQ0BIXShbQ0gyXTUpW0NIXT1bQ0hdMyljN2M2b2MoW2NIXTcpW0NIMl1OOFtDSDJdW0NIMl1OKFtDSDJdW0NIMl04KWM5W2NIXVtjSF1uW2NIXVtjSF05

>  <s_epik_cmdline>  (310) 
J2VwaWtfcHl0aG9uJywgJy1waHQnLCAnMi4wJywgJy1waCcsICc3LjAnLCAnLXRuJywgJzgnLCAnLW1hJywgJzIwMCcsICctaW1hZScsICc8aW5maWxlLm1hZT4nLCAnLW9tYWUnLCAnPG91dGZpbGUubWFlPic=

>  <r_lp_tautomer_probability>  (310) 
1

>  <r_epik_Ionization_Penalty>  (310) 
0.0625361

>  <r_epik_Ionization_Penalty_Charging>  (310) 
0.060962

>  <r_epik_Ionization_Penalty_Neutral>  (310) 
0.00157407

>  <r_epik_State_Penalty>  (310) 
0.0407396

>  <r_epik_Charging_Adjusted_Penalty>  (310) 
0.101702

>  <i_epik_Tot_Q>  (310) 
2

>  <i_epik_Tot_abs_Q>  (310) 
2

>  <s_lp_Force_Field>  (310) 
OPLS3e

>  <r_lp_Energy>  (310) 
181.291

>  <b_lp_Chiralities_Consistent>  (310) 
1

>  <s_lp_Variant>  (310) 
107:0-1

>  <s_i_glide_gridfile>  (310) 
pfpi4k_grid

>  <i_i_glide_lignum>  (310) 
29

>  <i_i_glide_rotatable_bonds>  (310) 
6

>  <r_i_docking_score>  (310) 
-4.09497

>  <r_i_glide_ligand_efficiency>  (310) 
-0.107762

>  <r_i_glide_ligand_efficiency_sa>  (310) 
-0.362294

>  <r_i_glide_ligand_efficiency_ln>  (310) 
-0.882995

>  <r_i_glide_gscore>  (310) 
-4.09497

>  <r_i_glide_lipo>  (310) 
-0.948326

>  <r_i_glide_hbond>  (310) 
-0.16

>  <r_i_glide_metal>  (310) 
-0

>  <r_i_glide_rewards>  (310) 
-0.0185102

>  <r_i_glide_evdw>  (310) 
-34.9308

>  <r_i_glide_ecoul>  (310) 
-9.71013

>  <r_i_glide_erotb>  (310) 
0.23493

>  <r_i_glide_esite>  (310) 
0

>  <r_i_glide_emodel>  (310) 
-57.6842

>  <r_i_glide_energy>  (310) 
-44.6409

>  <r_i_glide_einternal>  (310) 
1.27802

>  <r_i_glide_intrahb_reward>  (310) 
-0

>  <i_i_glide_confnum>  (310) 
5

>  <i_i_glide_posenum>  (310) 
1

>  <r_i_glide_eff_state_penalty>  (310) 
0

>  <ligand_id>  (310) 
107

>  <original_smiles>  (310) 
Oc1ccc2c3c1OC1C4=C(c5cc(CN6CCN(c7ccncc7)CC6)oc54)C(O)C4(O)C(C=CC314)C2

>  <smiles>  (310) 
[H]Oc1c([H])c([H])c2c3c1OC1([H])C4=C(c5c4oc(C([H])([H])[N+]4([H])C([H])([H])C([H])([H])N(c6c([H])c([H])[n+]([H])c([H])c6[H])C([H])([H])C4([H])[H])c5[H])C([H])(O[H])C4(O[H])C([H])(C([H])=C([H])C314)C2([H])[H]

$$$$
107:0:2
     RDKit          3D

 67 75  0  0  1  0  0  0  0  0999 V2000
    1.0478   -4.8577    6.7628 O   0  0  0  0  0  0  0  0  0  0  0  0
    0.7638   -5.8611    5.8839 C   0  0  0  0  0  0  0  0  0  0  0  0
   -0.5801   -6.1430    5.5163 C   0  0  0  0  0  0  0  0  0  0  0  0
   -0.9198   -7.2001    4.6190 C   0  0  0  0  0  0  0  0  0  0  0  0
    0.1080   -8.0006    4.0778 C   0  0  0  0  0  0  0  0  0  0  0  0
    1.3904   -7.6418    4.4912 C   0  0  0  0  0  0  0  0  0  0  0  0
    1.8100   -6.6359    5.3423 C   0  0  0  0  0  0  0  0  0  0  0  0
    3.1819   -6.6376    5.5636 O   0  0  0  0  0  0  0  0  0  0  0  0
    3.6839   -7.4572    4.4886 C   0  0  1  0  0  0  0  0  0  0  0  0
    4.9710   -8.2355    4.5981 C   0  0  0  0  0  0  0  0  0  0  0  0
    5.1250   -9.3301    3.8089 C   0  0  0  0  0  0  0  0  0  0  0  0
    6.4834   -8.9384    3.3496 C   0  0  0  0  0  0  0  0  0  0  0  0
    7.1270   -8.4791    2.1777 C   0  0  0  0  0  0  0  0  0  0  0  0
    7.1750   -7.1169    2.2948 C   0  0  0  0  0  0  0  0  0  0  0  0
    7.5674   -6.0965    1.2861 C   0  0  0  0  0  0  0  0  0  0  0  0
    6.5627   -5.0091    1.1471 N   0  0  0  0  0  0  0  0  0  0  0  0
    5.2904   -5.4540    0.5065 C   0  0  0  0  0  0  0  0  0  0  0  0
    4.2724   -4.3067    0.4240 C   0  0  0  0  0  0  0  0  0  0  0  0
    4.8760   -3.1398   -0.2302 N   0  0  0  0  0  0  0  0  0  0  0  0
    4.2586   -2.4822   -1.3238 C   0  0  0  0  0  0  0  0  0  0  0  0
    4.6122   -1.1610   -1.6995 C   0  0  0  0  0  0  0  0  0  0  0  0
    3.9736   -0.5442   -2.7960 C   0  0  0  0  0  0  0  0  0  0  0  0
    3.0181   -1.1963   -3.4824 N   0  0  0  0  0  0  0  0  0  0  0  0
    2.6335   -2.4482   -3.1716 C   0  0  0  0  0  0  0  0  0  0  0  0
    3.2546   -3.1173   -2.1014 C   0  0  0  0  0  0  0  0  0  0  0  0
    6.1386   -2.6681    0.3483 C   0  0  0  0  0  0  0  0  0  0  0  0
    7.1436   -3.8268    0.4556 C   0  0  0  0  0  0  0  0  0  0  0  0
    6.6273   -6.6518    3.4725 O   0  0  0  0  0  0  0  0  0  0  0  0
    6.3261   -7.7572    4.2057 C   0  0  0  0  0  0  0  0  0  0  0  0
    4.0679   -9.9053    2.8362 C   0  0  1  0  0  0  0  0  0  0  0  0
    4.0584  -11.3166    2.8856 O   0  0  0  0  0  0  0  0  0  0  0  0
    2.6317   -9.2251    2.9177 C   0  0  1  0  0  0  0  0  0  0  0  0
    2.4853   -8.3965    1.7733 O   0  0  0  0  0  0  0  0  0  0  0  0
    1.3910  -10.1318    3.1769 C   0  0  1  0  0  0  0  0  0  0  0  0
    1.6906  -10.5763    4.5930 C   0  0  0  0  0  0  0  0  0  0  0  0
    2.4104   -9.6346    5.2037 C   0  0  0  0  0  0  0  0  0  0  0  0
    2.5744   -8.4651    4.2437 C   0  0  2  0  0  0  0  0  0  0  0  0
    0.0708   -9.2732    3.1934 C   0  0  0  0  0  0  0  0  0  0  0  0
    0.2762   -4.4503    7.1237 H   0  0  0  0  0  0  0  0  0  0  0  0
   -1.3723   -5.5724    5.9659 H   0  0  0  0  0  0  0  0  0  0  0  0
   -1.9502   -7.4233    4.4010 H   0  0  0  0  0  0  0  0  0  0  0  0
    3.7754   -6.8290    3.6050 H   0  0  0  0  0  0  0  0  0  0  0  0
    7.3425   -9.0427    1.2816 H   0  0  0  0  0  0  0  0  0  0  0  0
    8.5403   -5.7021    1.5703 H   0  0  0  0  0  0  0  0  0  0  0  0
    7.6872   -6.5900    0.3218 H   0  0  0  0  0  0  0  0  0  0  0  0
    5.5020   -5.7953   -0.5068 H   0  0  0  0  0  0  0  0  0  0  0  0
    4.8473   -6.2986    1.0364 H   0  0  0  0  0  0  0  0  0  0  0  0
    3.3751   -4.6944   -0.0541 H   0  0  0  0  0  0  0  0  0  0  0  0
    3.9571   -4.0152    1.4263 H   0  0  0  0  0  0  0  0  0  0  0  0
    5.3295   -0.5762   -1.1435 H   0  0  0  0  0  0  0  0  0  0  0  0
    4.1713    0.4730   -3.1021 H   0  0  0  0  0  0  0  0  0  0  0  0
    1.8393   -2.8847   -3.7614 H   0  0  0  0  0  0  0  0  0  0  0  0
    2.9225   -4.1248   -1.9177 H   0  0  0  0  0  0  0  0  0  0  0  0
    6.6270   -1.8830   -0.2267 H   0  0  0  0  0  0  0  0  0  0  0  0
    5.9450   -2.2533    1.3381 H   0  0  0  0  0  0  0  0  0  0  0  0
    8.0507   -3.4815    0.9588 H   0  0  0  0  0  0  0  0  0  0  0  0
    7.4419   -4.1217   -0.5514 H   0  0  0  0  0  0  0  0  0  0  0  0
    4.4789   -9.6876    1.8573 H   0  0  0  0  0  0  0  0  0  0  0  0
    4.0844  -11.6581    1.9856 H   0  0  0  0  0  0  0  0  0  0  0  0
    2.3696   -8.9648    1.0249 H   0  0  0  0  0  0  0  0  0  0  0  0
    1.3414  -10.9831    2.5003 H   0  0  0  0  0  0  0  0  0  0  0  0
    1.3966  -11.5235    5.0125 H   0  0  0  0  0  0  0  0  0  0  0  0
    2.8080   -9.6657    6.2070 H   0  0  0  0  0  0  0  0  0  0  0  0
   -0.7545   -9.8931    3.5327 H   0  0  0  0  0  0  0  0  0  0  0  0
   -0.1593   -8.9552    2.1799 H   0  0  0  0  0  0  0  0  0  0  0  0
    2.5299   -0.7111   -4.2367 H   0  0  0  0  0  0  0  0  0  0  0  0
    6.3135   -4.6976    2.0784 H   0  0  0  0  0  0  0  0  0  0  0  0
  1  2  1  0
  1 39  1  0
  2  7  2  0
  2  3  1  0
  3  4  2  0
  3 40  1  0
  4  5  1  0
  4 41  1  0
  5 38  1  0
  5  6  2  0
  6 37  1  0
  6  7  1  0
  7  8  1  0
  8  9  1  0
  9 37  1  0
  9 10  1  0
  9 42  1  6
 10 29  1  0
 10 11  2  0
 11 12  1  0
 11 30  1  0
 12 29  2  0
 12 13  1  0
 13 14  2  0
 13 43  1  0
 14 15  1  0
 14 28  1  0
 15 16  1  0
 15 44  1  0
 15 45  1  0
 16 27  1  0
 16 17  1  0
 16 67  1  0
 17 18  1  0
 17 46  1  0
 17 47  1  0
 18 19  1  0
 18 48  1  0
 18 49  1  0
 19 20  1  0
 19 26  1  0
 20 25  1  0
 20 21  2  0
 21 22  1  0
 21 50  1  0
 22 23  2  0
 22 51  1  0
 23 24  1  0
 23 66  1  0
 24 25  2  0
 24 52  1  0
 25 53  1  0
 26 27  1  0
 26 54  1  0
 26 55  1  0
 27 56  1  0
 27 57  1  0
 28 29  1  0
 30 31  1  0
 30 32  1  0
 30 58  1  6
 31 59  1  0
 32 37  1  0
 32 33  1  6
 32 34  1  0
 33 60  1  0
 34 35  1  0
 34 38  1  0
 34 61  1  6
 35 36  2  0
 35 62  1  0
 37 36  1  1
 36 63  1  0
 38 64  1  0
 38 65  1  0
M  CHG  2  16   1  23   1
M  END
>  <i_m_ct_stereo_status>  (311) 
1

>  <s_m_source_file>  (311) 
/var/tmp/pbs.5076255.sched01/tmp_gsyjirk/108c9vsds16.sdf

>  <i_m_source_file_index>  (311) 
29

>  <i_lp_mmshare_version>  (311) 
48012

>  <i_f3d_flags>  (311) 
0

>  <s_epik_input>  (311) 
W0NAQF0xMjNjNGM1W2NIXVtjSF1jKFtPSF0pYzRPW0NASF0xQzY9QyhbQ0BASF0oW09IXSlbQ0BAXTIoW09IXSlbQ0BIXShbQ0gyXTUpW0NIXT1bQ0hdMyljN2M2b2MoW2NIXTcpW0NIMl1OOFtDSDJdW0NIMl1OKFtDSDJdW0NIMl04KWM5W2NIXVtjSF1uW2NIXVtjSF05

>  <s_epik_cmdline>  (311) 
J2VwaWtfcHl0aG9uJywgJy1waHQnLCAnMi4wJywgJy1waCcsICc3LjAnLCAnLXRuJywgJzgnLCAnLW1hJywgJzIwMCcsICctaW1hZScsICc8aW5maWxlLm1hZT4nLCAnLW9tYWUnLCAnPG91dGZpbGUubWFlPic=

>  <r_lp_tautomer_probability>  (311) 
1

>  <r_epik_Ionization_Penalty>  (311) 
0.0625361

>  <r_epik_Ionization_Penalty_Charging>  (311) 
0.060962

>  <r_epik_Ionization_Penalty_Neutral>  (311) 
0.00157407

>  <r_epik_State_Penalty>  (311) 
0.0407396

>  <r_epik_Charging_Adjusted_Penalty>  (311) 
0.101702

>  <i_epik_Tot_Q>  (311) 
2

>  <i_epik_Tot_abs_Q>  (311) 
2

>  <s_lp_Force_Field>  (311) 
OPLS3e

>  <r_lp_Energy>  (311) 
181.291

>  <b_lp_Chiralities_Consistent>  (311) 
1

>  <s_lp_Variant>  (311) 
107:0-1

>  <s_i_glide_gridfile>  (311) 
pfpi4k_grid

>  <i_i_glide_lignum>  (311) 
29

>  <i_i_glide_rotatable_bonds>  (311) 
6

>  <r_i_docking_score>  (311) 
-3.86119

>  <r_i_glide_ligand_efficiency>  (311) 
-0.10161

>  <r_i_glide_ligand_efficiency_sa>  (311) 
-0.341611

>  <r_i_glide_ligand_efficiency_ln>  (311) 
-0.832586

>  <r_i_glide_gscore>  (311) 
-3.86119

>  <r_i_glide_lipo>  (311) 
-0.799262

>  <r_i_glide_hbond>  (311) 
0

>  <r_i_glide_metal>  (311) 
-0

>  <r_i_glide_rewards>  (311) 
-0.0387637

>  <r_i_glide_evdw>  (311) 
-36.729

>  <r_i_glide_ecoul>  (311) 
-9.47763

>  <r_i_glide_erotb>  (311) 
0.23493

>  <r_i_glide_esite>  (311) 
0

>  <r_i_glide_emodel>  (311) 
-57.9097

>  <r_i_glide_energy>  (311) 
-46.2066

>  <r_i_glide_einternal>  (311) 
2.32831

>  <r_i_glide_intrahb_reward>  (311) 
-0

>  <i_i_glide_confnum>  (311) 
5

>  <i_i_glide_posenum>  (311) 
35

>  <r_i_glide_eff_state_penalty>  (311) 
0

>  <ligand_id>  (311) 
107

>  <original_smiles>  (311) 
Oc1ccc2c3c1OC1C4=C(c5cc(CN6CCN(c7ccncc7)CC6)oc54)C(O)C4(O)C(C=CC314)C2

>  <smiles>  (311) 
[H]Oc1c([H])c([H])c2c3c1OC1([H])C4=C(c5c4oc(C([H])([H])[N+]4([H])C([H])([H])C([H])([H])N(c6c([H])c([H])[n+]([H])c([H])c6[H])C([H])([H])C4([H])[H])c5[H])C([H])(O[H])C4(O[H])C([H])(C([H])=C([H])C314)C2([H])[H]

$$$$
107:1:0
     RDKit          3D

 66 74  0  0  1  0  0  0  0  0999 V2000
    1.0492   -4.9589    6.7337 O   0  0  0  0  0  0  0  0  0  0  0  0
    0.7540   -5.9298    5.8233 C   0  0  0  0  0  0  0  0  0  0  0  0
   -0.5819   -6.0961    5.3592 C   0  0  0  0  0  0  0  0  0  0  0  0
   -0.9410   -7.1057    4.4214 C   0  0  0  0  0  0  0  0  0  0  0  0
    0.0555   -7.9820    3.9388 C   0  0  0  0  0  0  0  0  0  0  0  0
    1.3346   -7.7299    4.4444 C   0  0  0  0  0  0  0  0  0  0  0  0
    1.7722   -6.7787    5.3388 C   0  0  0  0  0  0  0  0  0  0  0  0
    3.1226   -6.8772    5.6410 O   0  0  0  0  0  0  0  0  0  0  0  0
    3.6282   -7.6946    4.5623 C   0  0  1  0  0  0  0  0  0  0  0  0
    4.8693   -8.5350    4.6903 C   0  0  0  0  0  0  0  0  0  0  0  0
    5.0039   -9.6030    3.8549 C   0  0  0  0  0  0  0  0  0  0  0  0
    6.3659   -9.2203    3.3996 C   0  0  0  0  0  0  0  0  0  0  0  0
    6.9786   -8.6928    2.2319 C   0  0  0  0  0  0  0  0  0  0  0  0
    7.0263   -7.3337    2.4123 C   0  0  0  0  0  0  0  0  0  0  0  0
    7.3566   -6.2215    1.4760 C   0  0  0  0  0  0  0  0  0  0  0  0
    6.2782   -5.2405    1.3677 N   0  0  0  0  0  0  0  0  0  0  0  0
    6.8036   -3.9748    0.8500 C   0  0  0  0  0  0  0  0  0  0  0  0
    5.6861   -2.9152    0.7748 C   0  0  0  0  0  0  0  0  0  0  0  0
    4.5827   -3.4017   -0.0635 N   0  0  0  0  0  0  0  0  0  0  0  0
    4.0591   -2.6691   -1.1619 C   0  0  0  0  0  0  0  0  0  0  0  0
    4.4682   -1.3355   -1.4466 C   0  0  0  0  0  0  0  0  0  0  0  0
    3.9347   -0.6594   -2.5592 C   0  0  0  0  0  0  0  0  0  0  0  0
    3.0253   -1.2449   -3.3555 N   0  0  0  0  0  0  0  0  0  0  0  0
    2.5977   -2.5034   -3.1354 C   0  0  0  0  0  0  0  0  0  0  0  0
    3.0958   -3.2323   -2.0398 C   0  0  0  0  0  0  0  0  0  0  0  0
    4.0775   -4.7189    0.3497 C   0  0  0  0  0  0  0  0  0  0  0  0
    5.2381   -5.7217    0.4489 C   0  0  0  0  0  0  0  0  0  0  0  0
    6.5511   -6.9446    3.6480 O   0  0  0  0  0  0  0  0  0  0  0  0
    6.2384   -8.0773    4.3236 C   0  0  0  0  0  0  0  0  0  0  0  0
    3.9396  -10.1017    2.8487 C   0  0  1  0  0  0  0  0  0  0  0  0
    3.8373  -11.5090    2.8859 O   0  0  0  0  0  0  0  0  0  0  0  0
    2.5461   -9.3364    2.8867 C   0  0  1  0  0  0  0  0  0  0  0  0
    2.5101   -8.4696    1.7623 O   0  0  0  0  0  0  0  0  0  0  0  0
    1.2366  -10.1665    3.0530 C   0  0  1  0  0  0  0  0  0  0  0  0
    1.4303  -10.6777    4.4642 C   0  0  0  0  0  0  0  0  0  0  0  0
    2.1844   -9.8106    5.1425 C   0  0  0  0  0  0  0  0  0  0  0  0
    2.4737   -8.6257    4.2347 C   0  0  2  0  0  0  0  0  0  0  0  0
   -0.0218   -9.2241    3.0256 C   0  0  0  0  0  0  0  0  0  0  0  0
    1.9618   -4.9635    6.9817 H   0  0  0  0  0  0  0  0  0  0  0  0
   -1.3446   -5.4598    5.7635 H   0  0  0  0  0  0  0  0  0  0  0  0
   -1.9666   -7.2298    4.1150 H   0  0  0  0  0  0  0  0  0  0  0  0
    3.7809   -7.0364    3.7077 H   0  0  0  0  0  0  0  0  0  0  0  0
    7.1387   -9.2147    1.3030 H   0  0  0  0  0  0  0  0  0  0  0  0
    8.2558   -5.7405    1.8515 H   0  0  0  0  0  0  0  0  0  0  0  0
    7.5891   -6.6297    0.4934 H   0  0  0  0  0  0  0  0  0  0  0  0
    7.5827   -3.6138    1.5248 H   0  0  0  0  0  0  0  0  0  0  0  0
    7.2673   -4.1119   -0.1312 H   0  0  0  0  0  0  0  0  0  0  0  0
    5.3062   -2.6910    1.7740 H   0  0  0  0  0  0  0  0  0  0  0  0
    6.1595   -2.0040    0.4229 H   0  0  0  0  0  0  0  0  0  0  0  0
    5.1535   -0.7881   -0.8194 H   0  0  0  0  0  0  0  0  0  0  0  0
    4.1774    0.3777   -2.7924 H   0  0  0  0  0  0  0  0  0  0  0  0
    1.8434   -2.8906   -3.8067 H   0  0  0  0  0  0  0  0  0  0  0  0
    2.6971   -4.2236   -1.9150 H   0  0  0  0  0  0  0  0  0  0  0  0
    3.5755   -4.6183    1.3137 H   0  0  0  0  0  0  0  0  0  0  0  0
    3.3585   -5.1777   -0.3211 H   0  0  0  0  0  0  0  0  0  0  0  0
    5.6582   -5.8666   -0.5491 H   0  0  0  0  0  0  0  0  0  0  0  0
    4.8510   -6.6871    0.7766 H   0  0  0  0  0  0  0  0  0  0  0  0
    4.3942   -9.9262    1.8767 H   0  0  0  0  0  0  0  0  0  0  0  0
    3.8238  -11.8311    1.9786 H   0  0  0  0  0  0  0  0  0  0  0  0
    2.4482   -9.0112    0.9903 H   0  0  0  0  0  0  0  0  0  0  0  0
    1.1579  -10.9926    2.3549 H   0  0  0  0  0  0  0  0  0  0  0  0
    1.0510  -11.6168    4.8298 H   0  0  0  0  0  0  0  0  0  0  0  0
    2.5282   -9.9073    6.1603 H   0  0  0  0  0  0  0  0  0  0  0  0
   -0.9055   -9.7972    3.2979 H   0  0  0  0  0  0  0  0  0  0  0  0
   -0.1761   -8.8662    2.0102 H   0  0  0  0  0  0  0  0  0  0  0  0
    2.6045   -0.7096   -4.1177 H   0  0  0  0  0  0  0  0  0  0  0  0
  1  2  1  0
  1 39  1  0
  2  7  2  0
  2  3  1  0
  3  4  2  0
  3 40  1  0
  4  5  1  0
  4 41  1  0
  5 38  1  0
  5  6  2  0
  6 37  1  0
  6  7  1  0
  7  8  1  0
  8  9  1  0
  9 37  1  0
  9 10  1  0
  9 42  1  6
 10 29  1  0
 10 11  2  0
 11 12  1  0
 11 30  1  0
 12 29  2  0
 12 13  1  0
 13 14  2  0
 13 43  1  0
 14 15  1  0
 14 28  1  0
 15 16  1  0
 15 44  1  0
 15 45  1  0
 16 27  1  0
 16 17  1  0
 17 18  1  0
 17 46  1  0
 17 47  1  0
 18 19  1  0
 18 48  1  0
 18 49  1  0
 19 20  1  0
 19 26  1  0
 20 25  1  0
 20 21  2  0
 21 22  1  0
 21 50  1  0
 22 23  2  0
 22 51  1  0
 23 24  1  0
 23 66  1  0
 24 25  2  0
 24 52  1  0
 25 53  1  0
 26 27  1  0
 26 54  1  0
 26 55  1  0
 27 56  1  0
 27 57  1  0
 28 29  1  0
 30 31  1  0
 30 32  1  0
 30 58  1  6
 31 59  1  0
 32 37  1  0
 32 33  1  6
 32 34  1  0
 33 60  1  0
 34 35  1  0
 34 38  1  0
 34 61  1  6
 35 36  2  0
 35 62  1  0
 37 36  1  1
 36 63  1  0
 38 64  1  0
 38 65  1  0
M  CHG  1  23   1
M  END
>  <i_m_ct_stereo_status>  (312) 
1

>  <s_m_source_file>  (312) 
/var/tmp/pbs.5076255.sched01/tmp_gsyjirk/108c9vsds16.sdf

>  <i_m_source_file_index>  (312) 
30

>  <i_lp_mmshare_version>  (312) 
48012

>  <i_f3d_flags>  (312) 
0

>  <s_epik_input>  (312) 
W0NAQF0xMjNjNGM1W2NIXVtjSF1jKFtPSF0pYzRPW0NASF0xQzY9QyhbQ0BASF0oW09IXSlbQ0BAXTIoW09IXSlbQ0BIXShbQ0gyXTUpW0NIXT1bQ0hdMyljN2M2b2MoW2NIXTcpW0NIMl1OOFtDSDJdW0NIMl1OKFtDSDJdW0NIMl04KWM5W2NIXVtjSF1uW2NIXVtjSF05

>  <s_epik_cmdline>  (312) 
J2VwaWtfcHl0aG9uJywgJy1waHQnLCAnMi4wJywgJy1waCcsICc3LjAnLCAnLXRuJywgJzgnLCAnLW1hJywgJzIwMCcsICctaW1hZScsICc8aW5maWxlLm1hZT4nLCAnLW9tYWUnLCAnPG91dGZpbGUubWFlPic=

>  <r_lp_tautomer_probability>  (312) 
1

>  <r_epik_Ionization_Penalty>  (312) 
1.51733

>  <r_epik_Ionization_Penalty_Charging>  (312) 
0.000696867

>  <r_epik_Ionization_Penalty_Neutral>  (312) 
1.51664

>  <r_epik_State_Penalty>  (312) 
1.60641

>  <r_epik_Charging_Adjusted_Penalty>  (312) 
1.60711

>  <i_epik_Tot_Q>  (312) 
1

>  <i_epik_Tot_abs_Q>  (312) 
1

>  <s_lp_Force_Field>  (312) 
OPLS3e

>  <r_lp_Energy>  (312) 
188.454

>  <b_lp_Chiralities_Consistent>  (312) 
1

>  <s_lp_Variant>  (312) 
107:0-2

>  <s_i_glide_gridfile>  (312) 
pfpi4k_grid

>  <i_i_glide_lignum>  (312) 
30

>  <i_i_glide_rotatable_bonds>  (312) 
6

>  <r_i_docking_score>  (312) 
-3.89072

>  <r_i_glide_ligand_efficiency>  (312) 
-0.102387

>  <r_i_glide_ligand_efficiency_sa>  (312) 
-0.344224

>  <r_i_glide_ligand_efficiency_ln>  (312) 
-0.838953

>  <r_i_glide_gscore>  (312) 
-3.89072

>  <r_i_glide_lipo>  (312) 
-0.712674

>  <r_i_glide_hbond>  (312) 
-0.16

>  <r_i_glide_metal>  (312) 
-0

>  <r_i_glide_rewards>  (312) 
-0.0494135

>  <r_i_glide_evdw>  (312) 
-36.1809

>  <r_i_glide_ecoul>  (312) 
-9.30244

>  <r_i_glide_erotb>  (312) 
0.235782

>  <r_i_glide_esite>  (312) 
0

>  <r_i_glide_emodel>  (312) 
-55.5085

>  <r_i_glide_energy>  (312) 
-45.4834

>  <r_i_glide_einternal>  (312) 
3.97335

>  <r_i_glide_intrahb_reward>  (312) 
-0

>  <i_i_glide_confnum>  (312) 
2

>  <i_i_glide_posenum>  (312) 
17

>  <r_i_glide_eff_state_penalty>  (312) 
0

>  <ligand_id>  (312) 
107

>  <original_smiles>  (312) 
Oc1ccc2c3c1OC1C4=C(c5cc(CN6CCN(c7ccncc7)CC6)oc54)C(O)C4(O)C(C=CC314)C2

>  <smiles>  (312) 
[H]Oc1c([H])c([H])c2c3c1OC1([H])C4=C(c5c4oc(C([H])([H])N4C([H])([H])C([H])([H])N(c6c([H])c([H])[n+]([H])c([H])c6[H])C([H])([H])C4([H])[H])c5[H])C([H])(O[H])C4(O[H])C([H])(C([H])=C([H])C314)C2([H])[H]

$$$$
107:1:1
     RDKit          3D

 66 74  0  0  1  0  0  0  0  0999 V2000
    1.7541   -4.9463    7.5786 O   0  0  0  0  0  0  0  0  0  0  0  0
    1.2312   -5.6965    6.5686 C   0  0  0  0  0  0  0  0  0  0  0  0
   -0.1397   -5.5798    6.2239 C   0  0  0  0  0  0  0  0  0  0  0  0
   -0.7320   -6.3675    5.1947 C   0  0  0  0  0  0  0  0  0  0  0  0
    0.0642   -7.2935    4.4913 C   0  0  0  0  0  0  0  0  0  0  0  0
    1.4031   -7.3166    4.8834 C   0  0  0  0  0  0  0  0  0  0  0  0
    2.0499   -6.5973    5.8596 C   0  0  0  0  0  0  0  0  0  0  0  0
    3.3896   -6.9398    5.9955 O   0  0  0  0  0  0  0  0  0  0  0  0
    3.6630   -7.6360    4.7637 C   0  0  1  0  0  0  0  0  0  0  0  0
    4.7721   -8.6539    4.6196 C   0  0  0  0  0  0  0  0  0  0  0  0
    4.6613   -9.5553    3.6178 C   0  0  0  0  0  0  0  0  0  0  0  0
    6.0276   -9.3202    3.0806 C   0  0  0  0  0  0  0  0  0  0  0  0
    6.6210   -8.7125    1.9444 C   0  0  0  0  0  0  0  0  0  0  0  0
    6.9090   -7.4309    2.3245 C   0  0  0  0  0  0  0  0  0  0  0  0
    7.3076   -6.2287    1.5310 C   0  0  0  0  0  0  0  0  0  0  0  0
    6.2342   -5.2398    1.4138 N   0  0  0  0  0  0  0  0  0  0  0  0
    6.7800   -3.9869    0.8828 C   0  0  0  0  0  0  0  0  0  0  0  0
    5.6800   -2.9081    0.7894 C   0  0  0  0  0  0  0  0  0  0  0  0
    4.5667   -3.3897   -0.0436 N   0  0  0  0  0  0  0  0  0  0  0  0
    4.0537   -2.6628   -1.1541 C   0  0  0  0  0  0  0  0  0  0  0  0
    4.4574   -1.3287   -1.4410 C   0  0  0  0  0  0  0  0  0  0  0  0
    3.9419   -0.6590   -2.5628 C   0  0  0  0  0  0  0  0  0  0  0  0
    3.0400   -1.2524   -3.3659 N   0  0  0  0  0  0  0  0  0  0  0  0
    2.6132   -2.5139   -3.1417 C   0  0  0  0  0  0  0  0  0  0  0  0
    3.1031   -3.2320   -2.0387 C   0  0  0  0  0  0  0  0  0  0  0  0
    4.0453   -4.6911    0.3850 C   0  0  0  0  0  0  0  0  0  0  0  0
    5.1945   -5.7093    0.4899 C   0  0  0  0  0  0  0  0  0  0  0  0
    6.5820   -7.1739    3.6362 O   0  0  0  0  0  0  0  0  0  0  0  0
    6.1534   -8.3495    4.1713 C   0  0  0  0  0  0  0  0  0  0  0  0
    3.4506   -9.7433    2.6735 C   0  0  1  0  0  0  0  0  0  0  0  0
    3.1434  -11.1116    2.5855 O   0  0  0  0  0  0  0  0  0  0  0  0
    2.2041   -8.8013    2.9830 C   0  0  1  0  0  0  0  0  0  0  0  0
    2.2227   -7.7400    2.0349 O   0  0  0  0  0  0  0  0  0  0  0  0
    0.7952   -9.4546    3.1536 C   0  0  1  0  0  0  0  0  0  0  0  0
    1.0220  -10.2108    4.4482 C   0  0  0  0  0  0  0  0  0  0  0  0
    1.9566   -9.5873    5.1651 C   0  0  0  0  0  0  0  0  0  0  0  0
    2.3573   -8.3260    4.4227 C   0  0  2  0  0  0  0  0  0  0  0  0
   -0.2947   -8.3485    3.4128 C   0  0  0  0  0  0  0  0  0  0  0  0
    2.6660   -5.1458    7.7437 H   0  0  0  0  0  0  0  0  0  0  0  0
   -0.7563   -4.9036    6.7920 H   0  0  0  0  0  0  0  0  0  0  0  0
   -1.7879   -6.2871    4.9935 H   0  0  0  0  0  0  0  0  0  0  0  0
    3.8550   -6.8816    3.9983 H   0  0  0  0  0  0  0  0  0  0  0  0
    6.6304   -9.0875    0.9318 H   0  0  0  0  0  0  0  0  0  0  0  0
    8.1604   -5.7772    2.0296 H   0  0  0  0  0  0  0  0  0  0  0  0
    7.6248   -6.5519    0.5379 H   0  0  0  0  0  0  0  0  0  0  0  0
    7.5680   -3.6279    1.5500 H   0  0  0  0  0  0  0  0  0  0  0  0
    7.2415   -4.1406   -0.0967 H   0  0  0  0  0  0  0  0  0  0  0  0
    5.3056   -2.6632    1.7859 H   0  0  0  0  0  0  0  0  0  0  0  0
    6.1698   -2.0105    0.4229 H   0  0  0  0  0  0  0  0  0  0  0  0
    5.1316   -0.7737   -0.8015 H   0  0  0  0  0  0  0  0  0  0  0  0
    4.1766    0.3745   -2.7958 H   0  0  0  0  0  0  0  0  0  0  0  0
    1.8675   -2.9043   -3.8235 H   0  0  0  0  0  0  0  0  0  0  0  0
    2.7142   -4.2299   -1.9098 H   0  0  0  0  0  0  0  0  0  0  0  0
    3.5555   -4.5650    1.3556 H   0  0  0  0  0  0  0  0  0  0  0  0
    3.3130   -5.1521   -0.2765 H   0  0  0  0  0  0  0  0  0  0  0  0
    5.6177   -5.8732   -0.5038 H   0  0  0  0  0  0  0  0  0  0  0  0
    4.7881   -6.6627    0.8249 H   0  0  0  0  0  0  0  0  0  0  0  0
    3.8295   -9.4824    1.6904 H   0  0  0  0  0  0  0  0  0  0  0  0
    3.6336  -11.4769    1.8460 H   0  0  0  0  0  0  0  0  0  0  0  0
    3.1080   -7.4074    1.9729 H   0  0  0  0  0  0  0  0  0  0  0  0
    0.5448  -10.1368    2.3373 H   0  0  0  0  0  0  0  0  0  0  0  0
    0.5257  -11.1281    4.7166 H   0  0  0  0  0  0  0  0  0  0  0  0
    2.3611   -9.8901    6.1179 H   0  0  0  0  0  0  0  0  0  0  0  0
   -1.2270   -8.8342    3.6976 H   0  0  0  0  0  0  0  0  0  0  0  0
   -0.4741   -7.8185    2.4790 H   0  0  0  0  0  0  0  0  0  0  0  0
    2.6212   -0.7205   -4.1342 H   0  0  0  0  0  0  0  0  0  0  0  0
  1  2  1  0
  1 39  1  0
  2  7  2  0
  2  3  1  0
  3  4  2  0
  3 40  1  0
  4  5  1  0
  4 41  1  0
  5 38  1  0
  5  6  2  0
  6 37  1  0
  6  7  1  0
  7  8  1  0
  8  9  1  0
  9 37  1  0
  9 10  1  0
  9 42  1  6
 10 29  1  0
 10 11  2  0
 11 12  1  0
 11 30  1  0
 12 29  2  0
 12 13  1  0
 13 14  2  0
 13 43  1  0
 14 15  1  0
 14 28  1  0
 15 16  1  0
 15 44  1  0
 15 45  1  0
 16 27  1  0
 16 17  1  0
 17 18  1  0
 17 46  1  0
 17 47  1  0
 18 19  1  0
 18 48  1  0
 18 49  1  0
 19 20  1  0
 19 26  1  0
 20 25  1  0
 20 21  2  0
 21 22  1  0
 21 50  1  0
 22 23  2  0
 22 51  1  0
 23 24  1  0
 23 66  1  0
 24 25  2  0
 24 52  1  0
 25 53  1  0
 26 27  1  0
 26 54  1  0
 26 55  1  0
 27 56  1  0
 27 57  1  0
 28 29  1  0
 30 31  1  0
 30 32  1  0
 30 58  1  6
 31 59  1  0
 32 37  1  0
 32 33  1  6
 32 34  1  0
 33 60  1  0
 34 35  1  0
 34 38  1  0
 34 61  1  6
 35 36  2  0
 35 62  1  0
 37 36  1  1
 36 63  1  0
 38 64  1  0
 38 65  1  0
M  CHG  1  23   1
M  END
>  <i_m_ct_stereo_status>  (313) 
1

>  <s_m_source_file>  (313) 
/var/tmp/pbs.5076255.sched01/tmp_gsyjirk/108c9vsds16.sdf

>  <i_m_source_file_index>  (313) 
30

>  <i_lp_mmshare_version>  (313) 
48012

>  <i_f3d_flags>  (313) 
0

>  <s_epik_input>  (313) 
W0NAQF0xMjNjNGM1W2NIXVtjSF1jKFtPSF0pYzRPW0NASF0xQzY9QyhbQ0BASF0oW09IXSlbQ0BAXTIoW09IXSlbQ0BIXShbQ0gyXTUpW0NIXT1bQ0hdMyljN2M2b2MoW2NIXTcpW0NIMl1OOFtDSDJdW0NIMl1OKFtDSDJdW0NIMl04KWM5W2NIXVtjSF1uW2NIXVtjSF05

>  <s_epik_cmdline>  (313) 
J2VwaWtfcHl0aG9uJywgJy1waHQnLCAnMi4wJywgJy1waCcsICc3LjAnLCAnLXRuJywgJzgnLCAnLW1hJywgJzIwMCcsICctaW1hZScsICc8aW5maWxlLm1hZT4nLCAnLW9tYWUnLCAnPG91dGZpbGUubWFlPic=

>  <r_lp_tautomer_probability>  (313) 
1

>  <r_epik_Ionization_Penalty>  (313) 
1.51733

>  <r_epik_Ionization_Penalty_Charging>  (313) 
0.000696867

>  <r_epik_Ionization_Penalty_Neutral>  (313) 
1.51664

>  <r_epik_State_Penalty>  (313) 
1.60641

>  <r_epik_Charging_Adjusted_Penalty>  (313) 
1.60711

>  <i_epik_Tot_Q>  (313) 
1

>  <i_epik_Tot_abs_Q>  (313) 
1

>  <s_lp_Force_Field>  (313) 
OPLS3e

>  <r_lp_Energy>  (313) 
188.454

>  <b_lp_Chiralities_Consistent>  (313) 
1

>  <s_lp_Variant>  (313) 
107:0-2

>  <s_i_glide_gridfile>  (313) 
pfpi4k_grid

>  <i_i_glide_lignum>  (313) 
30

>  <i_i_glide_rotatable_bonds>  (313) 
6

>  <r_i_docking_score>  (313) 
-3.53923

>  <r_i_glide_ligand_efficiency>  (313) 
-0.0931377

>  <r_i_glide_ligand_efficiency_sa>  (313) 
-0.313127

>  <r_i_glide_ligand_efficiency_ln>  (313) 
-0.763163

>  <r_i_glide_gscore>  (313) 
-3.53923

>  <r_i_glide_lipo>  (313) 
-0.605349

>  <r_i_glide_hbond>  (313) 
-0.16

>  <r_i_glide_metal>  (313) 
-0

>  <r_i_glide_rewards>  (313) 
-0.0490292

>  <r_i_glide_evdw>  (313) 
-34.2745

>  <r_i_glide_ecoul>  (313) 
-8.31276

>  <r_i_glide_erotb>  (313) 
0.235782

>  <r_i_glide_esite>  (313) 
0

>  <r_i_glide_emodel>  (313) 
-52.2368

>  <r_i_glide_energy>  (313) 
-42.5872

>  <r_i_glide_einternal>  (313) 
2.89789

>  <r_i_glide_intrahb_reward>  (313) 
-0

>  <i_i_glide_confnum>  (313) 
2

>  <i_i_glide_posenum>  (313) 
30

>  <r_i_glide_eff_state_penalty>  (313) 
0

>  <ligand_id>  (313) 
107

>  <original_smiles>  (313) 
Oc1ccc2c3c1OC1C4=C(c5cc(CN6CCN(c7ccncc7)CC6)oc54)C(O)C4(O)C(C=CC314)C2

>  <smiles>  (313) 
[H]Oc1c([H])c([H])c2c3c1OC1([H])C4=C(c5c4oc(C([H])([H])N4C([H])([H])C([H])([H])N(c6c([H])c([H])[n+]([H])c([H])c6[H])C([H])([H])C4([H])[H])c5[H])C([H])(O[H])C4(O[H])C([H])(C([H])=C([H])C314)C2([H])[H]

$$$$
107:1:2
     RDKit          3D

 66 74  0  0  1  0  0  0  0  0999 V2000
    1.9397   -4.9025    7.6455 O   0  0  0  0  0  0  0  0  0  0  0  0
    1.3813   -5.6330    6.6382 C   0  0  0  0  0  0  0  0  0  0  0  0
    0.0078   -5.4848    6.3176 C   0  0  0  0  0  0  0  0  0  0  0  0
   -0.6168   -6.2562    5.2943 C   0  0  0  0  0  0  0  0  0  0  0  0
    0.1471   -7.1768    4.5594 C   0  0  0  0  0  0  0  0  0  0  0  0
    1.4896   -7.2354    4.9298 C   0  0  0  0  0  0  0  0  0  0  0  0
    2.1678   -6.5441    5.9083 C   0  0  0  0  0  0  0  0  0  0  0  0
    3.4988   -6.9243    6.0214 O   0  0  0  0  0  0  0  0  0  0  0  0
    3.7378   -7.6108    4.7751 C   0  0  1  0  0  0  0  0  0  0  0  0
    4.8135   -8.6611    4.5993 C   0  0  0  0  0  0  0  0  0  0  0  0
    4.6641   -9.5510    3.5918 C   0  0  0  0  0  0  0  0  0  0  0  0
    6.0333   -9.3411    3.0449 C   0  0  0  0  0  0  0  0  0  0  0  0
    6.6251   -8.7316    1.9086 C   0  0  0  0  0  0  0  0  0  0  0  0
    6.9557   -7.4633    2.3003 C   0  0  0  0  0  0  0  0  0  0  0  0
    7.3749   -6.2617    1.5157 C   0  0  0  0  0  0  0  0  0  0  0  0
    6.3204   -5.2505    1.4098 N   0  0  0  0  0  0  0  0  0  0  0  0
    6.8821   -4.0143    0.8559 C   0  0  0  0  0  0  0  0  0  0  0  0
    5.8027   -2.9139    0.7695 C   0  0  0  0  0  0  0  0  0  0  0  0
    4.6623   -3.3781   -0.0374 N   0  0  0  0  0  0  0  0  0  0  0  0
    4.1367   -2.6558   -1.1376 C   0  0  0  0  0  0  0  0  0  0  0  0
    4.5467   -1.3258   -1.4343 C   0  0  0  0  0  0  0  0  0  0  0  0
    4.0164   -0.6494   -2.5525 C   0  0  0  0  0  0  0  0  0  0  0  0
    3.0923   -1.2440   -3.3395 N   0  0  0  0  0  0  0  0  0  0  0  0
    2.6564   -2.5004   -3.1003 C   0  0  0  0  0  0  0  0  0  0  0  0
    3.1670   -3.2206   -2.0070 C   0  0  0  0  0  0  0  0  0  0  0  0
    4.1197   -4.6648    0.4226 C   0  0  0  0  0  0  0  0  0  0  0  0
    5.2484   -5.7064    0.5151 C   0  0  0  0  0  0  0  0  0  0  0  0
    6.6530   -7.2161    3.6201 O   0  0  0  0  0  0  0  0  0  0  0  0
    6.1985   -8.3885    4.1461 C   0  0  0  0  0  0  0  0  0  0  0  0
    3.4356   -9.6905    2.6554 C   0  0  1  0  0  0  0  0  0  0  0  0
    3.0694  -11.0482    2.5286 O   0  0  0  0  0  0  0  0  0  0  0  0
    2.2204   -8.7193    3.0010 C   0  0  1  0  0  0  0  0  0  0  0  0
    2.2294   -7.6695    2.0449 O   0  0  0  0  0  0  0  0  0  0  0  0
    0.8004   -9.3340    3.1859 C   0  0  1  0  0  0  0  0  0  0  0  0
    1.0243  -10.1127    4.4656 C   0  0  0  0  0  0  0  0  0  0  0  0
    1.9853   -9.5228    5.1765 C   0  0  0  0  0  0  0  0  0  0  0  0
    2.4107   -8.2615    4.4437 C   0  0  2  0  0  0  0  0  0  0  0  0
   -0.2565   -8.2043    3.4715 C   0  0  0  0  0  0  0  0  0  0  0  0
    2.8579   -5.1009    7.7710 H   0  0  0  0  0  0  0  0  0  0  0  0
   -0.5824   -4.7968    6.8998 H   0  0  0  0  0  0  0  0  0  0  0  0
   -1.6747   -6.1701    5.1151 H   0  0  0  0  0  0  0  0  0  0  0  0
    3.9371   -6.8531    4.0145 H   0  0  0  0  0  0  0  0  0  0  0  0
    6.6106   -9.0911    0.8907 H   0  0  0  0  0  0  0  0  0  0  0  0
    8.2380   -5.8276    2.0130 H   0  0  0  0  0  0  0  0  0  0  0  0
    7.6812   -6.5824    0.5180 H   0  0  0  0  0  0  0  0  0  0  0  0
    7.6938   -3.6662    1.4990 H   0  0  0  0  0  0  0  0  0  0  0  0
    7.3167   -4.1891   -0.1322 H   0  0  0  0  0  0  0  0  0  0  0  0
    5.4565   -2.6474    1.7706 H   0  0  0  0  0  0  0  0  0  0  0  0
    6.3013   -2.0308    0.3782 H   0  0  0  0  0  0  0  0  0  0  0  0
    5.2389   -0.7788   -0.8101 H   0  0  0  0  0  0  0  0  0  0  0  0
    4.2566    0.3752   -2.7971 H   0  0  0  0  0  0  0  0  0  0  0  0
    1.9048   -2.8896   -3.7700 H   0  0  0  0  0  0  0  0  0  0  0  0
    2.7822   -4.2195   -1.8750 H   0  0  0  0  0  0  0  0  0  0  0  0
    3.6595   -4.5195    1.4046 H   0  0  0  0  0  0  0  0  0  0  0  0
    3.3602   -5.1098   -0.2186 H   0  0  0  0  0  0  0  0  0  0  0  0
    5.6454   -5.8947   -0.4846 H   0  0  0  0  0  0  0  0  0  0  0  0
    4.8252   -6.6447    0.8747 H   0  0  0  0  0  0  0  0  0  0  0  0
    3.8188   -9.4094    1.6801 H   0  0  0  0  0  0  0  0  0  0  0  0
    3.5619  -11.4284    1.7976 H   0  0  0  0  0  0  0  0  0  0  0  0
    2.0305   -8.0573    1.2032 H   0  0  0  0  0  0  0  0  0  0  0  0
    0.5198   -9.9968    2.3656 H   0  0  0  0  0  0  0  0  0  0  0  0
    0.5046  -11.0195    4.7277 H   0  0  0  0  0  0  0  0  0  0  0  0
    2.3926   -9.8477    6.1211 H   0  0  0  0  0  0  0  0  0  0  0  0
   -1.1990   -8.6649    3.7637 H   0  0  0  0  0  0  0  0  0  0  0  0
   -0.4364   -7.6525    2.5503 H   0  0  0  0  0  0  0  0  0  0  0  0
    2.6767   -0.7163   -4.1062 H   0  0  0  0  0  0  0  0  0  0  0  0
  1  2  1  0
  1 39  1  0
  2  7  2  0
  2  3  1  0
  3  4  2  0
  3 40  1  0
  4  5  1  0
  4 41  1  0
  5 38  1  0
  5  6  2  0
  6 37  1  0
  6  7  1  0
  7  8  1  0
  8  9  1  0
  9 37  1  0
  9 10  1  0
  9 42  1  6
 10 29  1  0
 10 11  2  0
 11 12  1  0
 11 30  1  0
 12 29  2  0
 12 13  1  0
 13 14  2  0
 13 43  1  0
 14 15  1  0
 14 28  1  0
 15 16  1  0
 15 44  1  0
 15 45  1  0
 16 27  1  0
 16 17  1  0
 17 18  1  0
 17 46  1  0
 17 47  1  0
 18 19  1  0
 18 48  1  0
 18 49  1  0
 19 20  1  0
 19 26  1  0
 20 25  1  0
 20 21  2  0
 21 22  1  0
 21 50  1  0
 22 23  2  0
 22 51  1  0
 23 24  1  0
 23 66  1  0
 24 25  2  0
 24 52  1  0
 25 53  1  0
 26 27  1  0
 26 54  1  0
 26 55  1  0
 27 56  1  0
 27 57  1  0
 28 29  1  0
 30 31  1  0
 30 32  1  0
 30 58  1  6
 31 59  1  0
 32 37  1  0
 32 33  1  6
 32 34  1  0
 33 60  1  0
 34 35  1  0
 34 38  1  0
 34 61  1  6
 35 36  2  0
 35 62  1  0
 37 36  1  1
 36 63  1  0
 38 64  1  0
 38 65  1  0
M  CHG  1  23   1
M  END
>  <i_m_ct_stereo_status>  (314) 
1

>  <s_m_source_file>  (314) 
/var/tmp/pbs.5076255.sched01/tmp_gsyjirk/108c9vsds16.sdf

>  <i_m_source_file_index>  (314) 
30

>  <i_lp_mmshare_version>  (314) 
48012

>  <i_f3d_flags>  (314) 
0

>  <s_epik_input>  (314) 
W0NAQF0xMjNjNGM1W2NIXVtjSF1jKFtPSF0pYzRPW0NASF0xQzY9QyhbQ0BASF0oW09IXSlbQ0BAXTIoW09IXSlbQ0BIXShbQ0gyXTUpW0NIXT1bQ0hdMyljN2M2b2MoW2NIXTcpW0NIMl1OOFtDSDJdW0NIMl1OKFtDSDJdW0NIMl04KWM5W2NIXVtjSF1uW2NIXVtjSF05

>  <s_epik_cmdline>  (314) 
J2VwaWtfcHl0aG9uJywgJy1waHQnLCAnMi4wJywgJy1waCcsICc3LjAnLCAnLXRuJywgJzgnLCAnLW1hJywgJzIwMCcsICctaW1hZScsICc8aW5maWxlLm1hZT4nLCAnLW9tYWUnLCAnPG91dGZpbGUubWFlPic=

>  <r_lp_tautomer_probability>  (314) 
1

>  <r_epik_Ionization_Penalty>  (314) 
1.51733

>  <r_epik_Ionization_Penalty_Charging>  (314) 
0.000696867

>  <r_epik_Ionization_Penalty_Neutral>  (314) 
1.51664

>  <r_epik_State_Penalty>  (314) 
1.60641

>  <r_epik_Charging_Adjusted_Penalty>  (314) 
1.60711

>  <i_epik_Tot_Q>  (314) 
1

>  <i_epik_Tot_abs_Q>  (314) 
1

>  <s_lp_Force_Field>  (314) 
OPLS3e

>  <r_lp_Energy>  (314) 
188.454

>  <b_lp_Chiralities_Consistent>  (314) 
1

>  <s_lp_Variant>  (314) 
107:0-2

>  <s_i_glide_gridfile>  (314) 
pfpi4k_grid

>  <i_i_glide_lignum>  (314) 
30

>  <i_i_glide_rotatable_bonds>  (314) 
6

>  <r_i_docking_score>  (314) 
-3.52963

>  <r_i_glide_ligand_efficiency>  (314) 
-0.092885

>  <r_i_glide_ligand_efficiency_sa>  (314) 
-0.312277

>  <r_i_glide_ligand_efficiency_ln>  (314) 
-0.761092

>  <r_i_glide_gscore>  (314) 
-3.52963

>  <r_i_glide_lipo>  (314) 
-0.606948

>  <r_i_glide_hbond>  (314) 
-0.16

>  <r_i_glide_metal>  (314) 
-0

>  <r_i_glide_rewards>  (314) 
-0.0505147

>  <r_i_glide_evdw>  (314) 
-34.5588

>  <r_i_glide_ecoul>  (314) 
-8.1334

>  <r_i_glide_erotb>  (314) 
0.235782

>  <r_i_glide_esite>  (314) 
0

>  <r_i_glide_emodel>  (314) 
-52.4384

>  <r_i_glide_energy>  (314) 
-42.6922

>  <r_i_glide_einternal>  (314) 
2.76283

>  <r_i_glide_intrahb_reward>  (314) 
-0

>  <i_i_glide_confnum>  (314) 
2

>  <i_i_glide_posenum>  (314) 
36

>  <r_i_glide_eff_state_penalty>  (314) 
0

>  <ligand_id>  (314) 
107

>  <original_smiles>  (314) 
Oc1ccc2c3c1OC1C4=C(c5cc(CN6CCN(c7ccncc7)CC6)oc54)C(O)C4(O)C(C=CC314)C2

>  <smiles>  (314) 
[H]Oc1c([H])c([H])c2c3c1OC1([H])C4=C(c5c4oc(C([H])([H])N4C([H])([H])C([H])([H])N(c6c([H])c([H])[n+]([H])c([H])c6[H])C([H])([H])C4([H])[H])c5[H])C([H])(O[H])C4(O[H])C([H])(C([H])=C([H])C314)C2([H])[H]

$$$$
108:0:0
     RDKit          3D

 64 69  0  0  1  0  0  0  0  0999 V2000
    1.4243   -5.2234   -0.3640 C   0  0  0  0  0  0  0  0  0  0  0  0
    2.2714   -4.8314    0.5924 C   0  0  0  0  0  0  0  0  0  0  0  0
    2.8142   -5.9530    1.5301 C   0  0  2  0  0  0  0  0  0  0  0  0
    2.0042   -6.0356    2.8215 C   0  0  0  0  0  0  0  0  0  0  0  0
    2.9004   -5.4090    3.9125 C   0  0  1  0  0  0  0  0  0  0  0  0
    3.0790   -6.3931    4.9169 O   0  0  0  0  0  0  0  0  0  0  0  0
    4.2491   -5.0238    3.2265 C   0  0  1  0  0  0  0  0  0  0  0  0
    5.4342   -5.1888    4.2110 C   0  0  0  0  0  0  0  0  0  0  0  0
    4.2697   -6.0085    2.0855 C   0  0  2  0  0  0  0  0  0  0  0  0
    5.4704   -5.6207    1.2552 C   0  0  0  0  0  0  0  0  0  0  0  0
    5.3318   -4.0888    1.1157 C   0  0  2  0  0  0  0  0  0  0  0  0
    4.4491   -3.6868    2.4035 C   0  0  1  0  0  0  0  0  0  0  0  0
    3.2131   -2.7996    2.0341 C   0  0  0  0  0  0  0  0  0  0  0  0
    2.0418   -2.6437    3.0343 C   0  0  0  0  0  0  0  0  0  0  0  0
    3.7370   -1.3255    2.0196 C   0  0  0  0  0  0  0  0  0  0  0  0
    2.6456   -3.3116    0.6720 C   0  0  1  0  0  0  0  0  0  0  0  0
    3.5833   -2.8798   -0.4528 C   0  0  2  0  0  0  0  0  0  0  0  0
    3.0487   -2.5964   -1.8832 C   0  0  2  0  0  0  0  0  0  0  0  0
    2.6098   -3.7616   -2.5921 O   0  0  0  0  0  0  0  0  0  0  0  0
    3.2528   -3.2808   -3.7863 C   0  0  0  0  0  0  0  0  0  0  0  0
    4.0911   -2.3130   -2.9555 C   0  0  1  0  0  0  0  0  0  0  0  0
    3.9710   -0.8587   -3.4364 C   0  0  0  0  0  0  0  0  0  0  0  0
    4.5038    0.1329   -2.7291 C   0  0  0  0  0  0  0  0  0  0  0  0
    3.2408   -0.4779   -4.7060 C   0  0  0  0  0  0  0  0  0  0  0  0
    5.5377   -2.7235   -2.6115 C   0  0  0  0  0  0  0  0  0  0  0  0
    5.9265   -2.9486   -1.1484 C   0  0  0  0  0  0  0  0  0  0  0  0
    4.8690   -3.6869   -0.3549 C   0  0  1  0  0  0  0  0  0  0  0  0
    4.6990   -4.8507   -1.1248 O   0  0  0  0  0  0  0  0  0  0  0  0
    1.0370   -4.5271   -1.0987 H   0  0  0  0  0  0  0  0  0  0  0  0
    1.0579   -6.2396   -0.4117 H   0  0  0  0  0  0  0  0  0  0  0  0
    2.6704   -6.8736    0.9649 H   0  0  0  0  0  0  0  0  0  0  0  0
    1.0221   -5.5689    2.7526 H   0  0  0  0  0  0  0  0  0  0  0  0
    1.8240   -7.0901    3.0418 H   0  0  0  0  0  0  0  0  0  0  0  0
    2.4399   -4.6065    4.4690 H   0  0  0  0  0  0  0  0  0  0  0  0
    3.4716   -7.1536    4.5265 H   0  0  0  0  0  0  0  0  0  0  0  0
    6.3790   -4.8604    3.7842 H   0  0  0  0  0  0  0  0  0  0  0  0
    5.5798   -6.2253    4.5111 H   0  0  0  0  0  0  0  0  0  0  0  0
    5.2664   -4.6025    5.1129 H   0  0  0  0  0  0  0  0  0  0  0  0
    4.4445   -7.0171    2.4575 H   0  0  0  0  0  0  0  0  0  0  0  0
    6.3873   -5.8213    1.8015 H   0  0  0  0  0  0  0  0  0  0  0  0
    5.6058   -6.2717    0.3921 H   0  0  0  0  0  0  0  0  0  0  0  0
    6.3247   -3.6552    1.2592 H   0  0  0  0  0  0  0  0  0  0  0  0
    5.0819   -3.0498    3.0293 H   0  0  0  0  0  0  0  0  0  0  0  0
    1.4335   -1.7779    2.7732 H   0  0  0  0  0  0  0  0  0  0  0  0
    2.3927   -2.4810    4.0537 H   0  0  0  0  0  0  0  0  0  0  0  0
    1.3435   -3.4672    3.0041 H   0  0  0  0  0  0  0  0  0  0  0  0
    3.0465   -0.6553    1.5030 H   0  0  0  0  0  0  0  0  0  0  0  0
    4.7176   -1.2204    1.5493 H   0  0  0  0  0  0  0  0  0  0  0  0
    3.8621   -0.9351    3.0296 H   0  0  0  0  0  0  0  0  0  0  0  0
    1.7577   -2.7234    0.4822 H   0  0  0  0  0  0  0  0  0  0  0  0
    3.8648   -1.8704   -0.2259 H   0  0  0  0  0  0  0  0  0  0  0  0
    2.3024   -1.8001   -1.9557 H   0  0  0  0  0  0  0  0  0  0  0  0
    3.8768   -4.0178   -4.3004 H   0  0  0  0  0  0  0  0  0  0  0  0
    2.5033   -2.8770   -4.4656 H   0  0  0  0  0  0  0  0  0  0  0  0
    5.0208   -0.0083   -1.7969 H   0  0  0  0  0  0  0  0  0  0  0  0
    4.4004    1.1381   -3.1357 H   0  0  0  0  0  0  0  0  0  0  0  0
    3.6806   -1.0034   -5.5506 H   0  0  0  0  0  0  0  0  0  0  0  0
    3.2826    0.6009   -4.9241 H   0  0  0  0  0  0  0  0  0  0  0  0
    2.1770   -0.7104   -4.6428 H   0  0  0  0  0  0  0  0  0  0  0  0
    5.8423   -3.5845   -3.2235 H   0  0  0  0  0  0  0  0  0  0  0  0
    6.2087   -1.8868   -2.7041 H   0  0  0  0  0  0  0  0  0  0  0  0
    6.8770   -3.4836   -1.1429 H   0  0  0  0  0  0  0  0  0  0  0  0
    6.1153   -1.9737   -0.6912 H   0  0  0  0  0  0  0  0  0  0  0  0
    3.9042   -4.7543   -1.6384 H   0  0  0  0  0  0  0  0  0  0  0  0
  1  2  2  0
  1 29  1  0
  1 30  1  0
  2 16  1  0
  2  3  1  0
  3  9  1  0
  3  4  1  0
  3 31  1  6
  4  5  1  0
  4 32  1  0
  4 33  1  0
  5  6  1  0
  5  7  1  0
  5 34  1  1
  6 35  1  0
  7 12  1  0
  7  8  1  1
  7  9  1  0
  8 36  1  0
  8 37  1  0
  8 38  1  0
  9 10  1  0
  9 39  1  1
 10 11  1  0
 10 40  1  0
 10 41  1  0
 11 27  1  0
 11 12  1  0
 11 42  1  1
 12 13  1  0
 12 43  1  1
 13 14  1  0
 13 15  1  0
 13 16  1  0
 14 44  1  0
 14 45  1  0
 14 46  1  0
 15 47  1  0
 15 48  1  0
 15 49  1  0
 16 17  1  0
 16 50  1  6
 17 27  1  0
 17 18  1  0
 17 51  1  1
 18 21  1  0
 18 19  1  0
 18 52  1  1
 19 20  1  0
 20 21  1  0
 20 53  1  0
 20 54  1  0
 21 22  1  6
 21 25  1  0
 22 23  2  0
 22 24  1  0
 23 55  1  0
 23 56  1  0
 24 57  1  0
 24 58  1  0
 24 59  1  0
 25 26  1  0
 25 60  1  0
 25 61  1  0
 26 27  1  0
 26 62  1  0
 26 63  1  0
 27 28  1  6
 28 64  1  0
M  END
>  <i_m_ct_stereo_status>  (315) 
1

>  <s_m_source_file>  (315) 
/var/tmp/pbs.5076255.sched01/tmp_gsyjirk/108c9vsds16.sdf

>  <i_m_source_file_index>  (315) 
31

>  <i_lp_mmshare_version>  (315) 
48012

>  <i_f3d_flags>  (315) 
0

>  <s_epik_input>  (315) 
W09IXVtDQEBIXTFbQ0gyXVtDSF0oW0NAQEhdMltDQF0xM1tDSDNdKUMoPVtDSDJdKVtDQEBIXTRbQ0BASF01W0NASF02W0NAQF0oW0NIMl1PNikoQyg9W0NIMl0pW0NIM10pW0NIMl1bQ0gyXVtDQEBdNShbT0hdKVtDQEhdKFtDSDJdMilbQ0BIXTNDNChbQ0gzXSlbQ0gzXQ==

>  <s_epik_cmdline>  (315) 
J2VwaWtfcHl0aG9uJywgJy1waHQnLCAnMi4wJywgJy1waCcsICc3LjAnLCAnLXRuJywgJzgnLCAnLW1hJywgJzIwMCcsICctaW1hZScsICc8aW5maWxlLm1hZT4nLCAnLW9tYWUnLCAnPG91dGZpbGUubWFlPic=

>  <r_lp_tautomer_probability>  (315) 
1

>  <r_epik_Ionization_Penalty>  (315) 
2.73011e-06

>  <r_epik_Ionization_Penalty_Charging>  (315) 
0

>  <r_epik_Ionization_Penalty_Neutral>  (315) 
2.73011e-06

>  <r_epik_State_Penalty>  (315) 
-0

>  <r_epik_Charging_Adjusted_Penalty>  (315) 
0

>  <i_epik_Tot_Q>  (315) 
0

>  <i_epik_Tot_abs_Q>  (315) 
0

>  <s_lp_Force_Field>  (315) 
OPLS3e

>  <r_lp_Energy>  (315) 
101.806

>  <b_lp_Chiralities_Consistent>  (315) 
1

>  <s_lp_Variant>  (315) 
108:0-1

>  <s_i_glide_gridfile>  (315) 
pfpi4k_grid

>  <i_i_glide_lignum>  (315) 
31

>  <i_i_glide_rotatable_bonds>  (315) 
3

>  <r_i_docking_score>  (315) 
-2.76738

>  <r_i_glide_ligand_efficiency>  (315) 
-0.0988351

>  <r_i_glide_ligand_efficiency_sa>  (315) 
-0.300122

>  <r_i_glide_ligand_efficiency_ln>  (315) 
-0.638793

>  <r_i_glide_gscore>  (315) 
-2.76738

>  <r_i_glide_lipo>  (315) 
-1.16942

>  <r_i_glide_hbond>  (315) 
0

>  <r_i_glide_metal>  (315) 
-0

>  <r_i_glide_rewards>  (315) 
-0.787149

>  <r_i_glide_evdw>  (315) 
-21.2387

>  <r_i_glide_ecoul>  (315) 
0.797595

>  <r_i_glide_erotb>  (315) 
0.131484

>  <r_i_glide_esite>  (315) 
0

>  <r_i_glide_emodel>  (315) 
-19.7222

>  <r_i_glide_energy>  (315) 
-20.4411

>  <r_i_glide_einternal>  (315) 
5.17589

>  <r_i_glide_intrahb_reward>  (315) 
-0

>  <i_i_glide_confnum>  (315) 
2

>  <i_i_glide_posenum>  (315) 
15

>  <r_i_glide_eff_state_penalty>  (315) 
0

>  <ligand_id>  (315) 
108

>  <original_smiles>  (315) 
C=C1C2CC(O)C3(C)C2CC2C3C(C)(C)C1C1C3OCC3(C(=C)C)CCC21O

>  <smiles>  (315) 
[H]OC1([H])C([H])([H])C2([H])C(=C([H])[H])C3([H])C4([H])C5([H])OC([H])([H])C5(C(=C([H])[H])C([H])([H])[H])C([H])([H])C([H])([H])C4(O[H])C4([H])C([H])([H])C2([H])C1(C([H])([H])[H])C4([H])C3(C([H])([H])[H])C([H])([H])[H]

$$$$
108:0:1
     RDKit          3D

 64 69  0  0  1  0  0  0  0  0999 V2000
    4.7560   -9.4569    0.9016 C   0  0  0  0  0  0  0  0  0  0  0  0
    4.2543   -9.3525    2.1465 C   0  0  0  0  0  0  0  0  0  0  0  0
    4.9392  -10.2121    3.2586 C   0  0  2  0  0  0  0  0  0  0  0  0
    4.2482  -11.5750    3.3765 C   0  0  0  0  0  0  0  0  0  0  0  0
    3.3830  -11.5145    4.6563 C   0  0  1  0  0  0  0  0  0  0  0  0
    3.8258  -12.5819    5.4764 O   0  0  0  0  0  0  0  0  0  0  0  0
    3.6403  -10.1077    5.2953 C   0  0  1  0  0  0  0  0  0  0  0  0
    3.5651  -10.1981    6.8449 C   0  0  0  0  0  0  0  0  0  0  0  0
    5.0231   -9.8072    4.7709 C   0  0  2  0  0  0  0  0  0  0  0  0
    5.3172   -8.3958    5.2213 C   0  0  0  0  0  0  0  0  0  0  0  0
    4.0456   -7.6273    4.8345 C   0  0  2  0  0  0  0  0  0  0  0  0
    2.9135   -8.7862    4.8090 C   0  0  1  0  0  0  0  0  0  0  0  0
    2.0483   -8.7931    3.5038 C   0  0  0  0  0  0  0  0  0  0  0  0
    1.2287  -10.0413    3.1062 C   0  0  0  0  0  0  0  0  0  0  0  0
    0.8967   -7.7666    3.7424 C   0  0  0  0  0  0  0  0  0  0  0  0
    3.0008   -8.4482    2.3102 C   0  0  1  0  0  0  0  0  0  0  0  0
    3.3927   -6.9564    2.3974 C   0  0  2  0  0  0  0  0  0  0  0  0
    3.6980   -6.1530    1.1194 C   0  0  2  0  0  0  0  0  0  0  0  0
    4.9722   -6.4037    0.4807 O   0  0  0  0  0  0  0  0  0  0  0  0
    5.1351   -4.9830    0.2744 C   0  0  0  0  0  0  0  0  0  0  0  0
    4.0502   -4.6507    1.3254 C   0  0  1  0  0  0  0  0  0  0  0  0
    2.9605   -3.6860    0.7710 C   0  0  0  0  0  0  0  0  0  0  0  0
    2.3621   -3.8498   -0.4283 C   0  0  0  0  0  0  0  0  0  0  0  0
    2.5643   -2.4919    1.6255 C   0  0  0  0  0  0  0  0  0  0  0  0
    4.6200   -4.2333    2.7400 C   0  0  0  0  0  0  0  0  0  0  0  0
    4.2091   -5.1704    3.9069 C   0  0  0  0  0  0  0  0  0  0  0  0
    4.3218   -6.6783    3.5840 C   0  0  1  0  0  0  0  0  0  0  0  0
    5.6651   -6.7930    3.1182 O   0  0  0  0  0  0  0  0  0  0  0  0
    4.3106   -8.9263    0.0747 H   0  0  0  0  0  0  0  0  0  0  0  0
    5.5903  -10.1065    0.6817 H   0  0  0  0  0  0  0  0  0  0  0  0
    5.9678  -10.3533    2.9228 H   0  0  0  0  0  0  0  0  0  0  0  0
    3.6916  -11.8405    2.4834 H   0  0  0  0  0  0  0  0  0  0  0  0
    5.0314  -12.3303    3.4773 H   0  0  0  0  0  0  0  0  0  0  0  0
    2.3397  -11.7580    4.4904 H   0  0  0  0  0  0  0  0  0  0  0  0
    3.1225  -12.8275    6.0751 H   0  0  0  0  0  0  0  0  0  0  0  0
    3.6489   -9.2278    7.3371 H   0  0  0  0  0  0  0  0  0  0  0  0
    4.3507  -10.8310    7.2574 H   0  0  0  0  0  0  0  0  0  0  0  0
    2.6117  -10.6264    7.1541 H   0  0  0  0  0  0  0  0  0  0  0  0
    5.7452  -10.4625    5.2539 H   0  0  0  0  0  0  0  0  0  0  0  0
    5.4129   -8.3616    6.3051 H   0  0  0  0  0  0  0  0  0  0  0  0
    6.2977   -8.0503    4.9062 H   0  0  0  0  0  0  0  0  0  0  0  0
    3.7957   -6.9683    5.6667 H   0  0  0  0  0  0  0  0  0  0  0  0
    2.2068   -8.5537    5.6124 H   0  0  0  0  0  0  0  0  0  0  0  0
    0.4772   -9.7860    2.3580 H   0  0  0  0  0  0  0  0  0  0  0  0
    0.6875  -10.4638    3.9579 H   0  0  0  0  0  0  0  0  0  0  0  0
    1.8239  -10.8080    2.6236 H   0  0  0  0  0  0  0  0  0  0  0  0
    0.4162   -7.4726    2.8091 H   0  0  0  0  0  0  0  0  0  0  0  0
    1.2227   -6.8617    4.2610 H   0  0  0  0  0  0  0  0  0  0  0  0
    0.1193   -8.1947    4.3800 H   0  0  0  0  0  0  0  0  0  0  0  0
    2.4171   -8.5552    1.3931 H   0  0  0  0  0  0  0  0  0  0  0  0
    2.4695   -6.4462    2.6429 H   0  0  0  0  0  0  0  0  0  0  0  0
    2.9075   -6.2736    0.3667 H   0  0  0  0  0  0  0  0  0  0  0  0
    6.1353   -4.6554    0.5448 H   0  0  0  0  0  0  0  0  0  0  0  0
    4.8952   -4.7196   -0.7606 H   0  0  0  0  0  0  0  0  0  0  0  0
    2.5682   -4.6585   -1.1038 H   0  0  0  0  0  0  0  0  0  0  0  0
    1.6294   -3.1266   -0.7539 H   0  0  0  0  0  0  0  0  0  0  0  0
    2.1921   -2.8313    2.5940 H   0  0  0  0  0  0  0  0  0  0  0  0
    1.7650   -1.9126    1.1619 H   0  0  0  0  0  0  0  0  0  0  0  0
    3.4164   -1.8208    1.7575 H   0  0  0  0  0  0  0  0  0  0  0  0
    5.7187   -4.2581    2.7020 H   0  0  0  0  0  0  0  0  0  0  0  0
    4.3677   -3.2177    3.0546 H   0  0  0  0  0  0  0  0  0  0  0  0
    4.8396   -4.9523    4.7741 H   0  0  0  0  0  0  0  0  0  0  0  0
    3.1872   -4.9523    4.2138 H   0  0  0  0  0  0  0  0  0  0  0  0
    5.7528   -7.6592    2.7735 H   0  0  0  0  0  0  0  0  0  0  0  0
  1  2  2  0
  1 29  1  0
  1 30  1  0
  2 16  1  0
  2  3  1  0
  3  9  1  0
  3  4  1  0
  3 31  1  6
  4  5  1  0
  4 32  1  0
  4 33  1  0
  5  6  1  0
  5  7  1  0
  5 34  1  6
  6 35  1  0
  7 12  1  0
  7  8  1  1
  7  9  1  0
  8 36  1  0
  8 37  1  0
  8 38  1  0
  9 10  1  0
  9 39  1  1
 10 11  1  0
 10 40  1  0
 10 41  1  0
 11 27  1  0
 11 12  1  0
 11 42  1  1
 12 13  1  0
 12 43  1  1
 13 14  1  0
 13 15  1  0
 13 16  1  0
 14 44  1  0
 14 45  1  0
 14 46  1  0
 15 47  1  0
 15 48  1  0
 15 49  1  0
 16 17  1  0
 16 50  1  6
 17 27  1  0
 17 18  1  0
 17 51  1  1
 18 21  1  0
 18 19  1  0
 18 52  1  6
 19 20  1  0
 20 21  1  0
 20 53  1  0
 20 54  1  0
 21 22  1  6
 21 25  1  0
 22 23  2  0
 22 24  1  0
 23 55  1  0
 23 56  1  0
 24 57  1  0
 24 58  1  0
 24 59  1  0
 25 26  1  0
 25 60  1  0
 25 61  1  0
 26 27  1  0
 26 62  1  0
 26 63  1  0
 27 28  1  6
 28 64  1  0
M  END
>  <i_m_ct_stereo_status>  (316) 
1

>  <s_m_source_file>  (316) 
/var/tmp/pbs.5076255.sched01/tmp_gsyjirk/108c9vsds16.sdf

>  <i_m_source_file_index>  (316) 
31

>  <i_lp_mmshare_version>  (316) 
48012

>  <i_f3d_flags>  (316) 
0

>  <s_epik_input>  (316) 
W09IXVtDQEBIXTFbQ0gyXVtDSF0oW0NAQEhdMltDQF0xM1tDSDNdKUMoPVtDSDJdKVtDQEBIXTRbQ0BASF01W0NASF02W0NAQF0oW0NIMl1PNikoQyg9W0NIMl0pW0NIM10pW0NIMl1bQ0gyXVtDQEBdNShbT0hdKVtDQEhdKFtDSDJdMilbQ0BIXTNDNChbQ0gzXSlbQ0gzXQ==

>  <s_epik_cmdline>  (316) 
J2VwaWtfcHl0aG9uJywgJy1waHQnLCAnMi4wJywgJy1waCcsICc3LjAnLCAnLXRuJywgJzgnLCAnLW1hJywgJzIwMCcsICctaW1hZScsICc8aW5maWxlLm1hZT4nLCAnLW9tYWUnLCAnPG91dGZpbGUubWFlPic=

>  <r_lp_tautomer_probability>  (316) 
1

>  <r_epik_Ionization_Penalty>  (316) 
2.73011e-06

>  <r_epik_Ionization_Penalty_Charging>  (316) 
0

>  <r_epik_Ionization_Penalty_Neutral>  (316) 
2.73011e-06

>  <r_epik_State_Penalty>  (316) 
-0

>  <r_epik_Charging_Adjusted_Penalty>  (316) 
0

>  <i_epik_Tot_Q>  (316) 
0

>  <i_epik_Tot_abs_Q>  (316) 
0

>  <s_lp_Force_Field>  (316) 
OPLS3e

>  <r_lp_Energy>  (316) 
101.806

>  <b_lp_Chiralities_Consistent>  (316) 
1

>  <s_lp_Variant>  (316) 
108:0-1

>  <s_i_glide_gridfile>  (316) 
pfpi4k_grid

>  <i_i_glide_lignum>  (316) 
31

>  <i_i_glide_rotatable_bonds>  (316) 
3

>  <r_i_docking_score>  (316) 
-2.71754

>  <r_i_glide_ligand_efficiency>  (316) 
-0.0970549

>  <r_i_glide_ligand_efficiency_sa>  (316) 
-0.294716

>  <r_i_glide_ligand_efficiency_ln>  (316) 
-0.627288

>  <r_i_glide_gscore>  (316) 
-2.71754

>  <r_i_glide_lipo>  (316) 
-0.250682

>  <r_i_glide_hbond>  (316) 
-0.155102

>  <r_i_glide_metal>  (316) 
-0

>  <r_i_glide_rewards>  (316) 
-0.787149

>  <r_i_glide_evdw>  (316) 
-22.8486

>  <r_i_glide_ecoul>  (316) 
-3.42441

>  <r_i_glide_erotb>  (316) 
0.131484

>  <r_i_glide_esite>  (316) 
0

>  <r_i_glide_emodel>  (316) 
-25.3259

>  <r_i_glide_energy>  (316) 
-26.273

>  <r_i_glide_einternal>  (316) 
11.0623

>  <r_i_glide_intrahb_reward>  (316) 
-0

>  <i_i_glide_confnum>  (316) 
4

>  <i_i_glide_posenum>  (316) 
27

>  <r_i_glide_eff_state_penalty>  (316) 
0

>  <ligand_id>  (316) 
108

>  <original_smiles>  (316) 
C=C1C2CC(O)C3(C)C2CC2C3C(C)(C)C1C1C3OCC3(C(=C)C)CCC21O

>  <smiles>  (316) 
[H]OC1([H])C([H])([H])C2([H])C(=C([H])[H])C3([H])C4([H])C5([H])OC([H])([H])C5(C(=C([H])[H])C([H])([H])[H])C([H])([H])C([H])([H])C4(O[H])C4([H])C([H])([H])C2([H])C1(C([H])([H])[H])C4([H])C3(C([H])([H])[H])C([H])([H])[H]

$$$$
108:0:2
     RDKit          3D

 64 69  0  0  1  0  0  0  0  0999 V2000
    2.6669   -0.2631    0.8879 C   0  0  0  0  0  0  0  0  0  0  0  0
    3.2323   -1.2729    0.1863 C   0  0  0  0  0  0  0  0  0  0  0  0
    4.1837   -0.9170   -1.0017 C   0  0  2  0  0  0  0  0  0  0  0  0
    3.4047   -0.8602   -2.3351 C   0  0  0  0  0  0  0  0  0  0  0  0
    3.7235   -2.1438   -3.0819 C   0  0  1  0  0  0  0  0  0  0  0  0
    4.2072   -1.6626   -4.3152 O   0  0  0  0  0  0  0  0  0  0  0  0
    4.7700   -2.8824   -2.2091 C   0  0  1  0  0  0  0  0  0  0  0  0
    5.7334   -3.6033   -3.1165 C   0  0  0  0  0  0  0  0  0  0  0  0
    5.4012   -1.7518   -1.4620 C   0  0  2  0  0  0  0  0  0  0  0  0
    6.3668   -2.3687   -0.4865 C   0  0  0  0  0  0  0  0  0  0  0  0
    5.5325   -3.5026    0.1429 C   0  0  2  0  0  0  0  0  0  0  0  0
    4.4171   -3.8218   -0.9899 C   0  0  1  0  0  0  0  0  0  0  0  0
    2.9448   -3.8370   -0.4549 C   0  0  0  0  0  0  0  0  0  0  0  0
    1.8039   -3.7661   -1.5043 C   0  0  0  0  0  0  0  0  0  0  0  0
    2.7041   -5.2637    0.1281 C   0  0  0  0  0  0  0  0  0  0  0  0
    2.8349   -2.7041    0.6064 C   0  0  1  0  0  0  0  0  0  0  0  0
    3.5993   -3.1102    1.8756 C   0  0  2  0  0  0  0  0  0  0  0  0
    3.1543   -2.6570    3.2803 C   0  0  2  0  0  0  0  0  0  0  0  0
    3.4395   -1.2953    3.6184 O   0  0  0  0  0  0  0  0  0  0  0  0
    3.8622   -1.6844    4.9030 C   0  0  0  0  0  0  0  0  0  0  0  0
    4.0195   -3.1486    4.4437 C   0  0  1  0  0  0  0  0  0  0  0  0
    3.2477   -4.1414    5.3557 C   0  0  0  0  0  0  0  0  0  0  0  0
    2.9671   -3.9195    6.6560 C   0  0  0  0  0  0  0  0  0  0  0  0
    2.8492   -5.4624    4.7095 C   0  0  0  0  0  0  0  0  0  0  0  0
    5.4145   -3.7115    4.1586 C   0  0  0  0  0  0  0  0  0  0  0  0
    5.6904   -4.1412    2.6828 C   0  0  0  0  0  0  0  0  0  0  0  0
    5.1102   -3.1595    1.6536 C   0  0  1  0  0  0  0  0  0  0  0  0
    5.5992   -1.8616    2.0119 O   0  0  0  0  0  0  0  0  0  0  0  0
    1.9669   -0.4771    1.6722 H   0  0  0  0  0  0  0  0  0  0  0  0
    2.8616    0.7654    0.6744 H   0  0  0  0  0  0  0  0  0  0  0  0
    4.5692    0.0811   -0.7544 H   0  0  0  0  0  0  0  0  0  0  0  0
    2.3230   -0.7289   -2.2569 H   0  0  0  0  0  0  0  0  0  0  0  0
    3.7635    0.0181   -2.8791 H   0  0  0  0  0  0  0  0  0  0  0  0
    2.8679   -2.7103   -3.4281 H   0  0  0  0  0  0  0  0  0  0  0  0
    3.5161   -1.1329   -4.6546 H   0  0  0  0  0  0  0  0  0  0  0  0
    6.4152   -4.2092   -2.5326 H   0  0  0  0  0  0  0  0  0  0  0  0
    6.3571   -2.9173   -3.6574 H   0  0  0  0  0  0  0  0  0  0  0  0
    5.1890   -4.2539   -3.8110 H   0  0  0  0  0  0  0  0  0  0  0  0
    5.9566   -1.1320   -2.1567 H   0  0  0  0  0  0  0  0  0  0  0  0
    7.1916   -2.8348   -1.0305 H   0  0  0  0  0  0  0  0  0  0  0  0
    6.8765   -1.6329    0.1253 H   0  0  0  0  0  0  0  0  0  0  0  0
    6.1717   -4.3941    0.1936 H   0  0  0  0  0  0  0  0  0  0  0  0
    4.6132   -4.8398   -1.3416 H   0  0  0  0  0  0  0  0  0  0  0  0
    0.8894   -4.2141   -1.1473 H   0  0  0  0  0  0  0  0  0  0  0  0
    1.9932   -4.2573   -2.4531 H   0  0  0  0  0  0  0  0  0  0  0  0
    1.5704   -2.7604   -1.7692 H   0  0  0  0  0  0  0  0  0  0  0  0
    1.8540   -5.2823    0.8131 H   0  0  0  0  0  0  0  0  0  0  0  0
    3.5812   -5.7030    0.6298 H   0  0  0  0  0  0  0  0  0  0  0  0
    2.4377   -5.9467   -0.6660 H   0  0  0  0  0  0  0  0  0  0  0  0
    1.7980   -2.6314    0.9141 H   0  0  0  0  0  0  0  0  0  0  0  0
    3.3627   -4.1592    2.0211 H   0  0  0  0  0  0  0  0  0  0  0  0
    2.1057   -2.8878    3.4822 H   0  0  0  0  0  0  0  0  0  0  0  0
    4.8108   -1.2287    5.2060 H   0  0  0  0  0  0  0  0  0  0  0  0
    3.0755   -1.4789    5.6291 H   0  0  0  0  0  0  0  0  0  0  0  0
    3.2517   -3.0119    7.1800 H   0  0  0  0  0  0  0  0  0  0  0  0
    2.4341   -4.6760    7.2264 H   0  0  0  0  0  0  0  0  0  0  0  0
    2.1763   -5.3022    3.8643 H   0  0  0  0  0  0  0  0  0  0  0  0
    2.3420   -6.1002    5.4380 H   0  0  0  0  0  0  0  0  0  0  0  0
    3.7393   -5.9947    4.3631 H   0  0  0  0  0  0  0  0  0  0  0  0
    6.1160   -2.9414    4.4430 H   0  0  0  0  0  0  0  0  0  0  0  0
    5.6670   -4.5245    4.8309 H   0  0  0  0  0  0  0  0  0  0  0  0
    6.7499   -4.2515    2.4705 H   0  0  0  0  0  0  0  0  0  0  0  0
    5.2764   -5.1360    2.5174 H   0  0  0  0  0  0  0  0  0  0  0  0
    6.5254   -1.8880    1.9980 H   0  0  0  0  0  0  0  0  0  0  0  0
  1  2  2  0
  1 29  1  0
  1 30  1  0
  2 16  1  0
  2  3  1  0
  3  9  1  0
  3  4  1  0
  3 31  1  1
  4  5  1  0
  4 32  1  0
  4 33  1  0
  5  6  1  0
  5  7  1  0
  5 34  1  6
  6 35  1  0
  7 12  1  0
  7  8  1  6
  7  9  1  0
  8 36  1  0
  8 37  1  0
  8 38  1  0
  9 10  1  0
  9 39  1  6
 10 11  1  0
 10 40  1  0
 10 41  1  0
 11 27  1  0
 11 12  1  0
 11 42  1  1
 12 13  1  0
 12 43  1  6
 13 14  1  0
 13 15  1  0
 13 16  1  0
 14 44  1  0
 14 45  1  0
 14 46  1  0
 15 47  1  0
 15 48  1  0
 15 49  1  0
 16 17  1  0
 16 50  1  1
 17 27  1  0
 17 18  1  0
 17 51  1  1
 18 21  1  0
 18 19  1  0
 18 52  1  1
 19 20  1  0
 20 21  1  0
 20 53  1  0
 20 54  1  0
 21 22  1  1
 21 25  1  0
 22 23  2  0
 22 24  1  0
 23 55  1  0
 23 56  1  0
 24 57  1  0
 24 58  1  0
 24 59  1  0
 25 26  1  0
 25 60  1  0
 25 61  1  0
 26 27  1  0
 26 62  1  0
 26 63  1  0
 27 28  1  1
 28 64  1  0
M  END
>  <i_m_ct_stereo_status>  (317) 
1

>  <s_m_source_file>  (317) 
/var/tmp/pbs.5076255.sched01/tmp_gsyjirk/108c9vsds16.sdf

>  <i_m_source_file_index>  (317) 
31

>  <i_lp_mmshare_version>  (317) 
48012

>  <i_f3d_flags>  (317) 
0

>  <s_epik_input>  (317) 
W09IXVtDQEBIXTFbQ0gyXVtDSF0oW0NAQEhdMltDQF0xM1tDSDNdKUMoPVtDSDJdKVtDQEBIXTRbQ0BASF01W0NASF02W0NAQF0oW0NIMl1PNikoQyg9W0NIMl0pW0NIM10pW0NIMl1bQ0gyXVtDQEBdNShbT0hdKVtDQEhdKFtDSDJdMilbQ0BIXTNDNChbQ0gzXSlbQ0gzXQ==

>  <s_epik_cmdline>  (317) 
J2VwaWtfcHl0aG9uJywgJy1waHQnLCAnMi4wJywgJy1waCcsICc3LjAnLCAnLXRuJywgJzgnLCAnLW1hJywgJzIwMCcsICctaW1hZScsICc8aW5maWxlLm1hZT4nLCAnLW9tYWUnLCAnPG91dGZpbGUubWFlPic=

>  <r_lp_tautomer_probability>  (317) 
1

>  <r_epik_Ionization_Penalty>  (317) 
2.73011e-06

>  <r_epik_Ionization_Penalty_Charging>  (317) 
0

>  <r_epik_Ionization_Penalty_Neutral>  (317) 
2.73011e-06

>  <r_epik_State_Penalty>  (317) 
-0

>  <r_epik_Charging_Adjusted_Penalty>  (317) 
0

>  <i_epik_Tot_Q>  (317) 
0

>  <i_epik_Tot_abs_Q>  (317) 
0

>  <s_lp_Force_Field>  (317) 
OPLS3e

>  <r_lp_Energy>  (317) 
101.806

>  <b_lp_Chiralities_Consistent>  (317) 
1

>  <s_lp_Variant>  (317) 
108:0-1

>  <s_i_glide_gridfile>  (317) 
pfpi4k_grid

>  <i_i_glide_lignum>  (317) 
31

>  <i_i_glide_rotatable_bonds>  (317) 
3

>  <r_i_docking_score>  (317) 
-2.4275

>  <r_i_glide_ligand_efficiency>  (317) 
-0.0866964

>  <r_i_glide_ligand_efficiency_sa>  (317) 
-0.263261

>  <r_i_glide_ligand_efficiency_ln>  (317) 
-0.560338

>  <r_i_glide_gscore>  (317) 
-2.4275

>  <r_i_glide_lipo>  (317) 
-0.416744

>  <r_i_glide_hbond>  (317) 
-0.32

>  <r_i_glide_metal>  (317) 
-0

>  <r_i_glide_rewards>  (317) 
-0.787149

>  <r_i_glide_evdw>  (317) 
-12.3198

>  <r_i_glide_ecoul>  (317) 
-2.794

>  <r_i_glide_erotb>  (317) 
0.131484

>  <r_i_glide_esite>  (317) 
0

>  <r_i_glide_emodel>  (317) 
-18.5794

>  <r_i_glide_energy>  (317) 
-15.1138

>  <r_i_glide_einternal>  (317) 
0.416037

>  <r_i_glide_intrahb_reward>  (317) 
-0

>  <i_i_glide_confnum>  (317) 
1

>  <i_i_glide_posenum>  (317) 
1

>  <r_i_glide_eff_state_penalty>  (317) 
0

>  <ligand_id>  (317) 
108

>  <original_smiles>  (317) 
C=C1C2CC(O)C3(C)C2CC2C3C(C)(C)C1C1C3OCC3(C(=C)C)CCC21O

>  <smiles>  (317) 
[H]OC1([H])C([H])([H])C2([H])C(=C([H])[H])C3([H])C4([H])C5([H])OC([H])([H])C5(C(=C([H])[H])C([H])([H])[H])C([H])([H])C([H])([H])C4(O[H])C4([H])C([H])([H])C2([H])C1(C([H])([H])[H])C4([H])C3(C([H])([H])[H])C([H])([H])[H]

$$$$
110:0:0
     RDKit          3D

 69 74  0  0  1  0  0  0  0  0999 V2000
    0.4584   -2.7924    5.5451 C   0  0  0  0  0  0  0  0  0  0  0  0
    0.9300   -1.3652    5.8859 C   0  0  1  0  0  0  0  0  0  0  0  0
   -0.2843   -0.4621    6.1079 C   0  0  0  0  0  0  0  0  0  0  0  0
   -1.3922   -0.7042    5.6139 O   0  0  0  0  0  0  0  0  0  0  0  0
    0.0261    0.6185    7.1443 C   0  0  1  0  0  0  0  0  0  0  0  0
   -1.1527    1.3284    7.6715 N   0  0  0  0  0  0  0  0  0  0  0  0
   -1.7528    2.2081    6.6571 C   0  0  0  0  0  0  0  0  0  0  0  0
   -2.9853    2.9462    7.1875 C   0  0  0  0  0  0  0  0  0  0  0  0
   -2.6466    3.6887    8.3536 O   0  0  0  0  0  0  0  0  0  0  0  0
   -2.1100    2.8662    9.3849 C   0  0  0  0  0  0  0  0  0  0  0  0
   -0.8608    2.1307    8.8644 C   0  0  0  0  0  0  0  0  0  0  0  0
    0.8522   -0.2090    8.1359 C   0  0  0  0  0  0  0  0  0  0  0  0
    1.5704   -1.3122    7.3111 C   0  0  2  0  0  0  0  0  0  0  0  0
    3.1047   -1.1410    7.3156 C   0  0  0  0  0  0  0  0  0  0  0  0
    3.7609   -1.9104    6.1651 C   0  0  0  0  0  0  0  0  0  0  0  0
    3.3434   -1.3377    4.7915 C   0  0  2  0  0  0  0  0  0  0  0  0
    1.8795   -0.7625    4.7913 C   0  0  1  0  0  0  0  0  0  0  0  0
    1.2444   -0.5422    3.3734 C   0  0  0  0  0  0  0  0  0  0  0  0
    1.7045   -1.4951    2.2478 C   0  0  0  0  0  0  0  0  0  0  0  0
    3.2345   -1.6587    2.2403 C   0  0  2  0  0  0  0  0  0  0  0  0
    3.8795   -0.2565    2.0000 C   0  0  0  0  0  0  0  0  0  0  0  0
    3.7945   -2.6975    1.2246 C   0  0  1  0  0  0  0  0  0  0  0  0
    3.8510   -2.3053   -0.2499 C   0  0  0  0  0  0  0  0  0  0  0  0
    3.2338   -3.0092   -1.3288 C   0  0  0  0  0  0  0  0  0  0  0  0
    3.4881   -2.2969   -2.4710 C   0  0  0  0  0  0  0  0  0  0  0  0
    4.2449   -1.2076   -2.1921 O   0  0  0  0  0  0  0  0  0  0  0  0
    4.4622   -1.2369   -0.8526 C   0  0  0  0  0  0  0  0  0  0  0  0
    5.1241   -3.1945    1.8674 C   0  0  1  0  0  0  0  0  0  0  0  0
    6.3082   -2.7508    1.2295 O   0  0  0  0  0  0  0  0  0  0  0  0
    5.0964   -2.7082    3.3420 C   0  0  0  0  0  0  0  0  0  0  0  0
    3.6435   -2.2892    3.5961 C   0  0  1  0  0  0  0  0  0  0  0  0
    2.9467   -3.5039    3.8380 O   0  0  0  0  0  0  0  0  0  0  0  0
    1.2417   -3.5186    5.7383 H   0  0  0  0  0  0  0  0  0  0  0  0
    0.1635   -2.8760    4.5013 H   0  0  0  0  0  0  0  0  0  0  0  0
   -0.3984   -3.0884    6.1510 H   0  0  0  0  0  0  0  0  0  0  0  0
    0.6934    1.3534    6.6877 H   0  0  0  0  0  0  0  0  0  0  0  0
   -1.0188    2.9432    6.3223 H   0  0  0  0  0  0  0  0  0  0  0  0
   -2.0627    1.6611    5.7690 H   0  0  0  0  0  0  0  0  0  0  0  0
   -3.3636    3.6254    6.4257 H   0  0  0  0  0  0  0  0  0  0  0  0
   -3.7841    2.2404    7.4103 H   0  0  0  0  0  0  0  0  0  0  0  0
   -1.8570    3.4847   10.2464 H   0  0  0  0  0  0  0  0  0  0  0  0
   -2.8626    2.1502    9.7167 H   0  0  0  0  0  0  0  0  0  0  0  0
   -0.4888    1.5009    9.6722 H   0  0  0  0  0  0  0  0  0  0  0  0
   -0.0714    2.8535    8.6501 H   0  0  0  0  0  0  0  0  0  0  0  0
    1.5561    0.4185    8.6846 H   0  0  0  0  0  0  0  0  0  0  0  0
    0.2005   -0.6761    8.8800 H   0  0  0  0  0  0  0  0  0  0  0  0
    1.3676   -2.2582    7.8148 H   0  0  0  0  0  0  0  0  0  0  0  0
    3.3823   -0.0870    7.2593 H   0  0  0  0  0  0  0  0  0  0  0  0
    3.4982   -1.5001    8.2684 H   0  0  0  0  0  0  0  0  0  0  0  0
    4.8423   -1.8517    6.2687 H   0  0  0  0  0  0  0  0  0  0  0  0
    3.5155   -2.9650    6.2604 H   0  0  0  0  0  0  0  0  0  0  0  0
    3.9993   -0.4758    4.6701 H   0  0  0  0  0  0  0  0  0  0  0  0
    2.0306    0.2618    5.1334 H   0  0  0  0  0  0  0  0  0  0  0  0
    0.1588   -0.5759    3.4155 H   0  0  0  0  0  0  0  0  0  0  0  0
    1.4580    0.4794    3.0524 H   0  0  0  0  0  0  0  0  0  0  0  0
    1.2065   -2.4547    2.3725 H   0  0  0  0  0  0  0  0  0  0  0  0
    1.3705   -1.1129    1.2836 H   0  0  0  0  0  0  0  0  0  0  0  0
    4.9629   -0.3200    1.9037 H   0  0  0  0  0  0  0  0  0  0  0  0
    3.6823    0.4721    2.7853 H   0  0  0  0  0  0  0  0  0  0  0  0
    3.4830    0.2014    1.0931 H   0  0  0  0  0  0  0  0  0  0  0  0
    3.1148   -3.5519    1.2459 H   0  0  0  0  0  0  0  0  0  0  0  0
    2.6474   -3.9116   -1.2893 H   0  0  0  0  0  0  0  0  0  0  0  0
    3.2086   -2.4180   -3.5068 H   0  0  0  0  0  0  0  0  0  0  0  0
    5.0432   -0.3998   -0.4979 H   0  0  0  0  0  0  0  0  0  0  0  0
    5.1439   -4.2838    1.8394 H   0  0  0  0  0  0  0  0  0  0  0  0
    6.3653   -1.8105    1.3014 H   0  0  0  0  0  0  0  0  0  0  0  0
    5.4432   -3.4705    4.0421 H   0  0  0  0  0  0  0  0  0  0  0  0
    5.7454   -1.8423    3.4757 H   0  0  0  0  0  0  0  0  0  0  0  0
    3.1337   -4.1129    3.1421 H   0  0  0  0  0  0  0  0  0  0  0  0
  2  1  1  6
  1 33  1  0
  1 34  1  0
  1 35  1  0
  2 13  1  0
  2 17  1  0
  2  3  1  0
  3  4  2  0
  3  5  1  0
  5  6  1  0
  5 12  1  0
  5 36  1  6
  6 11  1  0
  6  7  1  0
  7  8  1  0
  7 37  1  0
  7 38  1  0
  8  9  1  0
  8 39  1  0
  8 40  1  0
  9 10  1  0
 10 11  1  0
 10 41  1  0
 10 42  1  0
 11 43  1  0
 11 44  1  0
 12 13  1  0
 12 45  1  0
 12 46  1  0
 13 14  1  0
 13 47  1  1
 14 15  1  0
 14 48  1  0
 14 49  1  0
 15 16  1  0
 15 50  1  0
 15 51  1  0
 16 31  1  0
 16 17  1  0
 16 52  1  6
 17 18  1  0
 17 53  1  1
 18 19  1  0
 18 54  1  0
 18 55  1  0
 19 20  1  0
 19 56  1  0
 19 57  1  0
 20 31  1  0
 20 21  1  6
 20 22  1  0
 21 58  1  0
 21 59  1  0
 21 60  1  0
 22 23  1  0
 22 28  1  0
 22 61  1  6
 23 27  2  0
 23 24  1  0
 24 25  2  0
 24 62  1  0
 25 26  1  0
 25 63  1  0
 26 27  1  0
 27 64  1  0
 28 29  1  0
 28 30  1  0
 28 65  1  1
 29 66  1  0
 30 31  1  0
 30 67  1  0
 30 68  1  0
 31 32  1  1
 32 69  1  0
M  END
>  <i_m_ct_stereo_status>  (318) 
1

>  <s_m_source_file>  (318) 
/var/tmp/pbs.5076255.sched01/tmp_gsyjirk/108c9vsds16.sdf

>  <i_m_source_file_index>  (318) 
34

>  <i_lp_mmshare_version>  (318) 
48012

>  <i_f3d_flags>  (318) 
0

>  <s_epik_input>  (318) 
W0NIMl0xW0NIMl1PW0NIMl1bQ0gyXU4xW0NASF0oQzI9TylbQ0gyXVtDQEBIXShbQ0BAXTIzW0NIM10pW0NIMl1bQ0gyXVtDQEBIXTRbQ0BIXTNbQ0gyXVtDSDJdW0NAQF01KFtDSDNdKVtDQEBdNChbT0hdKVtDSDJdW0NASF0oW09IXSlbQ0BASF01YzZbY0hdW2NIXW9bY0hdNg==

>  <s_epik_cmdline>  (318) 
J2VwaWtfcHl0aG9uJywgJy1waHQnLCAnMi4wJywgJy1waCcsICc3LjAnLCAnLXRuJywgJzgnLCAnLW1hJywgJzIwMCcsICctaW1hZScsICc8aW5maWxlLm1hZT4nLCAnLW9tYWUnLCAnPG91dGZpbGUubWFlPic=

>  <r_lp_tautomer_probability>  (318) 
0.99995

>  <r_epik_Ionization_Penalty>  (318) 
0.104982

>  <r_epik_Ionization_Penalty_Charging>  (318) 
0

>  <r_epik_Ionization_Penalty_Neutral>  (318) 
0.104982

>  <r_epik_State_Penalty>  (318) 
0.0948692

>  <r_epik_Charging_Adjusted_Penalty>  (318) 
0.0948692

>  <i_epik_Tot_Q>  (318) 
0

>  <i_epik_Tot_abs_Q>  (318) 
0

>  <s_lp_Force_Field>  (318) 
OPLS3e

>  <r_lp_Energy>  (318) 
50.8537

>  <b_lp_Chiralities_Consistent>  (318) 
1

>  <s_lp_Variant>  (318) 
110:0-1

>  <s_i_glide_gridfile>  (318) 
pfpi4k_grid

>  <i_i_glide_lignum>  (318) 
34

>  <i_i_glide_rotatable_bonds>  (318) 
4

>  <r_i_docking_score>  (318) 
-2.55524

>  <r_i_glide_ligand_efficiency>  (318) 
-0.0798513

>  <r_i_glide_ligand_efficiency_sa>  (318) 
-0.253512

>  <r_i_glide_ligand_efficiency_ln>  (318) 
-0.572189

>  <r_i_glide_gscore>  (318) 
-2.55524

>  <r_i_glide_lipo>  (318) 
-0.315338

>  <r_i_glide_hbond>  (318) 
-0.00706951

>  <r_i_glide_metal>  (318) 
-0

>  <r_i_glide_rewards>  (318) 
-0.384711

>  <r_i_glide_evdw>  (318) 
-30.9232

>  <r_i_glide_ecoul>  (318) 
-3.12173

>  <r_i_glide_erotb>  (318) 
0.203221

>  <r_i_glide_esite>  (318) 
-0.0369252

>  <r_i_glide_emodel>  (318) 
-39.4953

>  <r_i_glide_energy>  (318) 
-34.0449

>  <r_i_glide_einternal>  (318) 
0.343168

>  <r_i_glide_intrahb_reward>  (318) 
-0

>  <i_i_glide_confnum>  (318) 
3

>  <i_i_glide_posenum>  (318) 
15

>  <r_i_glide_eff_state_penalty>  (318) 
0

>  <ligand_id>  (318) 
110

>  <original_smiles>  (318) 
CC12C(=O)C(N3CCOCC3)CC1CCC1C2CCC2(C)C(c3ccoc3)C(O)CC12O

>  <smiles>  (318) 
[H]OC1([H])C([H])([H])C2(O[H])C3([H])C([H])([H])C([H])([H])C4([H])C([H])([H])C([H])(N5C([H])([H])C([H])([H])OC([H])([H])C5([H])[H])C(=O)C4(C([H])([H])[H])C3([H])C([H])([H])C([H])([H])C2(C([H])([H])[H])C1([H])c1c([H])oc([H])c1[H]

$$$$
110:0:1
     RDKit          3D

 69 74  0  0  1  0  0  0  0  0999 V2000
    0.3041   -2.8239    5.4291 C   0  0  0  0  0  0  0  0  0  0  0  0
    0.8170   -1.4337    5.8536 C   0  0  1  0  0  0  0  0  0  0  0  0
   -0.3704   -0.4971    6.0826 C   0  0  0  0  0  0  0  0  0  0  0  0
   -1.4721   -0.6748    5.5488 O   0  0  0  0  0  0  0  0  0  0  0  0
   -0.0495    0.5242    7.1757 C   0  0  1  0  0  0  0  0  0  0  0  0
   -1.2158    1.2552    7.6999 N   0  0  0  0  0  0  0  0  0  0  0  0
   -1.7640    2.1911    6.7077 C   0  0  0  0  0  0  0  0  0  0  0  0
   -2.9853    2.9481    7.2399 C   0  0  0  0  0  0  0  0  0  0  0  0
   -2.6479    3.6399    8.4381 O   0  0  0  0  0  0  0  0  0  0  0  0
   -2.1610    2.7654    9.4506 C   0  0  0  0  0  0  0  0  0  0  0  0
   -0.9271    2.0016    8.9307 C   0  0  0  0  0  0  0  0  0  0  0  0
    0.7108   -0.3811    8.1530 C   0  0  0  0  0  0  0  0  0  0  0  0
    1.4127   -1.4719    7.2988 C   0  0  2  0  0  0  0  0  0  0  0  0
    2.9518   -1.3647    7.3590 C   0  0  0  0  0  0  0  0  0  0  0  0
    3.6159   -2.1027    6.1929 C   0  0  0  0  0  0  0  0  0  0  0  0
    3.2644   -1.4534    4.8344 C   0  0  2  0  0  0  0  0  0  0  0  0
    1.8238   -0.8171    4.8182 C   0  0  1  0  0  0  0  0  0  0  0  0
    1.2408   -0.5058    3.3952 C   0  0  0  0  0  0  0  0  0  0  0  0
    1.7019   -1.4206    2.2402 C   0  0  0  0  0  0  0  0  0  0  0  0
    3.2245   -1.6418    2.2692 C   0  0  2  0  0  0  0  0  0  0  0  0
    3.9248   -0.2540    2.1222 C   0  0  0  0  0  0  0  0  0  0  0  0
    3.7708   -2.6580    1.2236 C   0  0  1  0  0  0  0  0  0  0  0  0
    3.8711   -2.2227   -0.2418 C   0  0  0  0  0  0  0  0  0  0  0  0
    4.4818   -1.0675   -0.8210 C   0  0  0  0  0  0  0  0  0  0  0  0
    4.2325   -1.1104   -2.1648 C   0  0  0  0  0  0  0  0  0  0  0  0
    3.5570   -2.2390   -2.4845 O   0  0  0  0  0  0  0  0  0  0  0  0
    3.3573   -2.9011   -1.3135 C   0  0  0  0  0  0  0  0  0  0  0  0
    5.0635   -3.2330    1.8742 C   0  0  1  0  0  0  0  0  0  0  0  0
    6.2745   -2.8055    1.2774 O   0  0  0  0  0  0  0  0  0  0  0  0
    5.0177   -2.8124    3.3696 C   0  0  0  0  0  0  0  0  0  0  0  0
    3.5717   -2.3535    3.6012 C   0  0  1  0  0  0  0  0  0  0  0  0
    2.8267   -3.5546    3.7479 O   0  0  0  0  0  0  0  0  0  0  0  0
    1.0511   -3.5903    5.6097 H   0  0  0  0  0  0  0  0  0  0  0  0
    0.0385   -2.8451    4.3741 H   0  0  0  0  0  0  0  0  0  0  0  0
   -0.5832   -3.1129    5.9934 H   0  0  0  0  0  0  0  0  0  0  0  0
    0.6606    1.2524    6.7754 H   0  0  0  0  0  0  0  0  0  0  0  0
   -0.9979    2.9130    6.4172 H   0  0  0  0  0  0  0  0  0  0  0  0
   -2.0722    1.6868    5.7940 H   0  0  0  0  0  0  0  0  0  0  0  0
   -3.3235    3.6658    6.4945 H   0  0  0  0  0  0  0  0  0  0  0  0
   -3.8064    2.2590    7.4195 H   0  0  0  0  0  0  0  0  0  0  0  0
   -1.9082    3.3423   10.3399 H   0  0  0  0  0  0  0  0  0  0  0  0
   -2.9507    2.0733    9.7409 H   0  0  0  0  0  0  0  0  0  0  0  0
   -0.5951    1.3303    9.7227 H   0  0  0  0  0  0  0  0  0  0  0  0
   -0.1092    2.7039    8.7625 H   0  0  0  0  0  0  0  0  0  0  0  0
    1.4203    0.1909    8.7529 H   0  0  0  0  0  0  0  0  0  0  0  0
    0.0184   -0.8551    8.8546 H   0  0  0  0  0  0  0  0  0  0  0  0
    1.1569   -2.4316    7.7496 H   0  0  0  0  0  0  0  0  0  0  0  0
    3.2706   -0.3208    7.3609 H   0  0  0  0  0  0  0  0  0  0  0  0
    3.3005   -1.7823    8.3057 H   0  0  0  0  0  0  0  0  0  0  0  0
    4.6947   -2.0902    6.3314 H   0  0  0  0  0  0  0  0  0  0  0  0
    3.3265   -3.1485    6.2358 H   0  0  0  0  0  0  0  0  0  0  0  0
    3.9527   -0.6093    4.7814 H   0  0  0  0  0  0  0  0  0  0  0  0
    2.0016    0.1842    5.2140 H   0  0  0  0  0  0  0  0  0  0  0  0
    0.1536   -0.4957    3.4016 H   0  0  0  0  0  0  0  0  0  0  0  0
    1.5026    0.5209    3.1301 H   0  0  0  0  0  0  0  0  0  0  0  0
    1.1637   -2.3641    2.2971 H   0  0  0  0  0  0  0  0  0  0  0  0
    1.4148   -0.9772    1.2859 H   0  0  0  0  0  0  0  0  0  0  0  0
    5.0064   -0.3556    2.0405 H   0  0  0  0  0  0  0  0  0  0  0  0
    3.7392    0.4334    2.9470 H   0  0  0  0  0  0  0  0  0  0  0  0
    3.5577    0.2683    1.2382 H   0  0  0  0  0  0  0  0  0  0  0  0
    3.0603   -3.4897    1.2076 H   0  0  0  0  0  0  0  0  0  0  0  0
    5.0082   -0.2645   -0.3354 H   0  0  0  0  0  0  0  0  0  0  0  0
    4.4503   -0.4445   -2.9836 H   0  0  0  0  0  0  0  0  0  0  0  0
    2.8088   -3.8263   -1.4269 H   0  0  0  0  0  0  0  0  0  0  0  0
    5.0401   -4.3199    1.7995 H   0  0  0  0  0  0  0  0  0  0  0  0
    6.3578   -1.8707    1.3892 H   0  0  0  0  0  0  0  0  0  0  0  0
    5.3175   -3.6214    4.0402 H   0  0  0  0  0  0  0  0  0  0  0  0
    5.6966   -1.9786    3.5658 H   0  0  0  0  0  0  0  0  0  0  0  0
    3.1167   -3.9954    4.5325 H   0  0  0  0  0  0  0  0  0  0  0  0
  2  1  1  6
  1 33  1  0
  1 34  1  0
  1 35  1  0
  2 13  1  0
  2 17  1  0
  2  3  1  0
  3  4  2  0
  3  5  1  0
  5  6  1  0
  5 12  1  0
  5 36  1  6
  6 11  1  0
  6  7  1  0
  7  8  1  0
  7 37  1  0
  7 38  1  0
  8  9  1  0
  8 39  1  0
  8 40  1  0
  9 10  1  0
 10 11  1  0
 10 41  1  0
 10 42  1  0
 11 43  1  0
 11 44  1  0
 12 13  1  0
 12 45  1  0
 12 46  1  0
 13 14  1  0
 13 47  1  1
 14 15  1  0
 14 48  1  0
 14 49  1  0
 15 16  1  0
 15 50  1  0
 15 51  1  0
 16 31  1  0
 16 17  1  0
 16 52  1  6
 17 18  1  0
 17 53  1  1
 18 19  1  0
 18 54  1  0
 18 55  1  0
 19 20  1  0
 19 56  1  0
 19 57  1  0
 20 31  1  0
 20 21  1  1
 20 22  1  0
 21 58  1  0
 21 59  1  0
 21 60  1  0
 22 23  1  0
 22 28  1  0
 22 61  1  6
 23 27  2  0
 23 24  1  0
 24 25  2  0
 24 62  1  0
 25 26  1  0
 25 63  1  0
 26 27  1  0
 27 64  1  0
 28 29  1  0
 28 30  1  0
 28 65  1  1
 29 66  1  0
 30 31  1  0
 30 67  1  0
 30 68  1  0
 31 32  1  1
 32 69  1  0
M  END
>  <i_m_ct_stereo_status>  (319) 
1

>  <s_m_source_file>  (319) 
/var/tmp/pbs.5076255.sched01/tmp_gsyjirk/108c9vsds16.sdf

>  <i_m_source_file_index>  (319) 
34

>  <i_lp_mmshare_version>  (319) 
48012

>  <i_f3d_flags>  (319) 
0

>  <s_epik_input>  (319) 
W0NIMl0xW0NIMl1PW0NIMl1bQ0gyXU4xW0NASF0oQzI9TylbQ0gyXVtDQEBIXShbQ0BAXTIzW0NIM10pW0NIMl1bQ0gyXVtDQEBIXTRbQ0BIXTNbQ0gyXVtDSDJdW0NAQF01KFtDSDNdKVtDQEBdNChbT0hdKVtDSDJdW0NASF0oW09IXSlbQ0BASF01YzZbY0hdW2NIXW9bY0hdNg==

>  <s_epik_cmdline>  (319) 
J2VwaWtfcHl0aG9uJywgJy1waHQnLCAnMi4wJywgJy1waCcsICc3LjAnLCAnLXRuJywgJzgnLCAnLW1hJywgJzIwMCcsICctaW1hZScsICc8aW5maWxlLm1hZT4nLCAnLW9tYWUnLCAnPG91dGZpbGUubWFlPic=

>  <r_lp_tautomer_probability>  (319) 
0.99995

>  <r_epik_Ionization_Penalty>  (319) 
0.104982

>  <r_epik_Ionization_Penalty_Charging>  (319) 
0

>  <r_epik_Ionization_Penalty_Neutral>  (319) 
0.104982

>  <r_epik_State_Penalty>  (319) 
0.0948692

>  <r_epik_Charging_Adjusted_Penalty>  (319) 
0.0948692

>  <i_epik_Tot_Q>  (319) 
0

>  <i_epik_Tot_abs_Q>  (319) 
0

>  <s_lp_Force_Field>  (319) 
OPLS3e

>  <r_lp_Energy>  (319) 
50.8537

>  <b_lp_Chiralities_Consistent>  (319) 
1

>  <s_lp_Variant>  (319) 
110:0-1

>  <s_i_glide_gridfile>  (319) 
pfpi4k_grid

>  <i_i_glide_lignum>  (319) 
34

>  <i_i_glide_rotatable_bonds>  (319) 
4

>  <r_i_docking_score>  (319) 
-2.53035

>  <r_i_glide_ligand_efficiency>  (319) 
-0.0790735

>  <r_i_glide_ligand_efficiency_sa>  (319) 
-0.251043

>  <r_i_glide_ligand_efficiency_ln>  (319) 
-0.566615

>  <r_i_glide_gscore>  (319) 
-2.53035

>  <r_i_glide_lipo>  (319) 
-0.309445

>  <r_i_glide_hbond>  (319) 
-0.0369364

>  <r_i_glide_metal>  (319) 
-0

>  <r_i_glide_rewards>  (319) 
-0.384711

>  <r_i_glide_evdw>  (319) 
-31.0711

>  <r_i_glide_ecoul>  (319) 
-2.72705

>  <r_i_glide_erotb>  (319) 
0.203221

>  <r_i_glide_esite>  (319) 
-0.0398694

>  <r_i_glide_emodel>  (319) 
-39.0692

>  <r_i_glide_energy>  (319) 
-33.7981

>  <r_i_glide_einternal>  (319) 
0.445833

>  <r_i_glide_intrahb_reward>  (319) 
-0

>  <i_i_glide_confnum>  (319) 
1

>  <i_i_glide_posenum>  (319) 
33

>  <r_i_glide_eff_state_penalty>  (319) 
0

>  <ligand_id>  (319) 
110

>  <original_smiles>  (319) 
CC12C(=O)C(N3CCOCC3)CC1CCC1C2CCC2(C)C(c3ccoc3)C(O)CC12O

>  <smiles>  (319) 
[H]OC1([H])C([H])([H])C2(O[H])C3([H])C([H])([H])C([H])([H])C4([H])C([H])([H])C([H])(N5C([H])([H])C([H])([H])OC([H])([H])C5([H])[H])C(=O)C4(C([H])([H])[H])C3([H])C([H])([H])C([H])([H])C2(C([H])([H])[H])C1([H])c1c([H])oc([H])c1[H]

$$$$
110:0:2
     RDKit          3D

 69 74  0  0  1  0  0  0  0  0999 V2000
    0.3208   -2.8224    5.4533 C   0  0  0  0  0  0  0  0  0  0  0  0
    0.8295   -1.4266    5.8619 C   0  0  1  0  0  0  0  0  0  0  0  0
   -0.3596   -0.4921    6.0894 C   0  0  0  0  0  0  0  0  0  0  0  0
   -1.4636   -0.6823    5.5658 O   0  0  0  0  0  0  0  0  0  0  0  0
   -0.0387    0.5390    7.1732 C   0  0  1  0  0  0  0  0  0  0  0  0
   -1.2048    1.2695    7.6990 N   0  0  0  0  0  0  0  0  0  0  0  0
   -1.7646    2.1940    6.7030 C   0  0  0  0  0  0  0  0  0  0  0  0
   -2.9824    2.9492    7.2370 C   0  0  0  0  0  0  0  0  0  0  0  0
   -2.6433    3.6529    8.4267 O   0  0  0  0  0  0  0  0  0  0  0  0
   -2.1452    2.7899    9.4434 C   0  0  0  0  0  0  0  0  0  0  0  0
   -0.9111    2.0279    8.9213 C   0  0  0  0  0  0  0  0  0  0  0  0
    0.7344   -0.3530    8.1521 C   0  0  0  0  0  0  0  0  0  0  0  0
    1.4361   -1.4488    7.3028 C   0  0  2  0  0  0  0  0  0  0  0  0
    2.9747   -1.3303    7.3497 C   0  0  0  0  0  0  0  0  0  0  0  0
    3.6331   -2.0773    6.1857 C   0  0  0  0  0  0  0  0  0  0  0  0
    3.2697   -1.4394    4.8251 C   0  0  2  0  0  0  0  0  0  0  0  0
    1.8252   -0.8142    4.8146 C   0  0  1  0  0  0  0  0  0  0  0  0
    1.2317   -0.5165    3.3936 C   0  0  0  0  0  0  0  0  0  0  0  0
    1.6885   -1.4392    2.2425 C   0  0  0  0  0  0  0  0  0  0  0  0
    3.2126   -1.6523    2.2615 C   0  0  2  0  0  0  0  0  0  0  0  0
    3.9062   -0.2635    2.0944 C   0  0  0  0  0  0  0  0  0  0  0  0
    3.7587   -2.6709    1.2186 C   0  0  1  0  0  0  0  0  0  0  0  0
    3.8649   -2.2243   -0.2383 C   0  0  0  0  0  0  0  0  0  0  0  0
    3.2675   -2.8760   -1.3604 C   0  0  0  0  0  0  0  0  0  0  0  0
    3.5652   -2.1250   -2.4676 C   0  0  0  0  0  0  0  0  0  0  0  0
    4.3350   -1.0631   -2.1260 O   0  0  0  0  0  0  0  0  0  0  0  0
    4.5120   -1.1457   -0.7827 C   0  0  0  0  0  0  0  0  0  0  0  0
    5.0552   -3.2381    1.8708 C   0  0  1  0  0  0  0  0  0  0  0  0
    6.2667   -2.8135    1.2737 O   0  0  0  0  0  0  0  0  0  0  0  0
    5.0179   -2.8042    3.3620 C   0  0  0  0  0  0  0  0  0  0  0  0
    3.5721   -2.3495    3.5986 C   0  0  1  0  0  0  0  0  0  0  0  0
    2.8363   -3.5540    3.7580 O   0  0  0  0  0  0  0  0  0  0  0  0
    1.0730   -3.5838    5.6350 H   0  0  0  0  0  0  0  0  0  0  0  0
    0.0471   -2.8541    4.4007 H   0  0  0  0  0  0  0  0  0  0  0  0
   -0.5613   -3.1107    6.0269 H   0  0  0  0  0  0  0  0  0  0  0  0
    0.6641    1.2671    6.7605 H   0  0  0  0  0  0  0  0  0  0  0  0
   -1.0040    2.9178    6.4016 H   0  0  0  0  0  0  0  0  0  0  0  0
   -2.0764    1.6822    5.7953 H   0  0  0  0  0  0  0  0  0  0  0  0
   -3.3328    3.6585    6.4880 H   0  0  0  0  0  0  0  0  0  0  0  0
   -3.8012    2.2576    7.4284 H   0  0  0  0  0  0  0  0  0  0  0  0
   -1.8887    3.3761   10.3251 H   0  0  0  0  0  0  0  0  0  0  0  0
   -2.9292    2.0966    9.7459 H   0  0  0  0  0  0  0  0  0  0  0  0
   -0.5705    1.3650    9.7170 H   0  0  0  0  0  0  0  0  0  0  0  0
   -0.0977    2.7326    8.7410 H   0  0  0  0  0  0  0  0  0  0  0  0
    1.4454    0.2283    8.7413 H   0  0  0  0  0  0  0  0  0  0  0  0
    0.0500   -0.8241    8.8625 H   0  0  0  0  0  0  0  0  0  0  0  0
    1.1893   -2.4059    7.7649 H   0  0  0  0  0  0  0  0  0  0  0  0
    3.2878   -0.2843    7.3406 H   0  0  0  0  0  0  0  0  0  0  0  0
    3.3329   -1.7386    8.2971 H   0  0  0  0  0  0  0  0  0  0  0  0
    4.7135   -2.0574    6.3174 H   0  0  0  0  0  0  0  0  0  0  0  0
    3.3498   -3.1246    6.2402 H   0  0  0  0  0  0  0  0  0  0  0  0
    3.9537   -0.5924    4.7578 H   0  0  0  0  0  0  0  0  0  0  0  0
    2.0003    0.1911    5.2005 H   0  0  0  0  0  0  0  0  0  0  0  0
    0.1442   -0.5148    3.4081 H   0  0  0  0  0  0  0  0  0  0  0  0
    1.4855    0.5088    3.1180 H   0  0  0  0  0  0  0  0  0  0  0  0
    1.1559   -2.3851    2.3155 H   0  0  0  0  0  0  0  0  0  0  0  0
    1.3904   -1.0059    1.2872 H   0  0  0  0  0  0  0  0  0  0  0  0
    4.9881   -0.3618    2.0171 H   0  0  0  0  0  0  0  0  0  0  0  0
    3.7149    0.4372    2.9057 H   0  0  0  0  0  0  0  0  0  0  0  0
    3.5414    0.2422    1.1995 H   0  0  0  0  0  0  0  0  0  0  0  0
    3.0501   -3.5025    1.1973 H   0  0  0  0  0  0  0  0  0  0  0  0
    2.6641   -3.7670   -1.3711 H   0  0  0  0  0  0  0  0  0  0  0  0
    3.3104   -2.1983   -3.5133 H   0  0  0  0  0  0  0  0  0  0  0  0
    5.0979   -0.3330   -0.3824 H   0  0  0  0  0  0  0  0  0  0  0  0
    5.0338   -4.3259    1.8037 H   0  0  0  0  0  0  0  0  0  0  0  0
    6.3409   -1.8755    1.3655 H   0  0  0  0  0  0  0  0  0  0  0  0
    5.3272   -3.6061    4.0362 H   0  0  0  0  0  0  0  0  0  0  0  0
    5.6949   -1.9654    3.5436 H   0  0  0  0  0  0  0  0  0  0  0  0
    3.1315   -3.9863    4.5452 H   0  0  0  0  0  0  0  0  0  0  0  0
  2  1  1  6
  1 33  1  0
  1 34  1  0
  1 35  1  0
  2 13  1  0
  2 17  1  0
  2  3  1  0
  3  4  2  0
  3  5  1  0
  5  6  1  0
  5 12  1  0
  5 36  1  6
  6 11  1  0
  6  7  1  0
  7  8  1  0
  7 37  1  0
  7 38  1  0
  8  9  1  0
  8 39  1  0
  8 40  1  0
  9 10  1  0
 10 11  1  0
 10 41  1  0
 10 42  1  0
 11 43  1  0
 11 44  1  0
 12 13  1  0
 12 45  1  0
 12 46  1  0
 13 14  1  0
 13 47  1  1
 14 15  1  0
 14 48  1  0
 14 49  1  0
 15 16  1  0
 15 50  1  0
 15 51  1  0
 16 31  1  0
 16 17  1  0
 16 52  1  6
 17 18  1  0
 17 53  1  1
 18 19  1  0
 18 54  1  0
 18 55  1  0
 19 20  1  0
 19 56  1  0
 19 57  1  0
 20 31  1  0
 20 21  1  1
 20 22  1  0
 21 58  1  0
 21 59  1  0
 21 60  1  0
 22 23  1  0
 22 28  1  0
 22 61  1  6
 23 27  2  0
 23 24  1  0
 24 25  2  0
 24 62  1  0
 25 26  1  0
 25 63  1  0
 26 27  1  0
 27 64  1  0
 28 29  1  0
 28 30  1  0
 28 65  1  1
 29 66  1  0
 30 31  1  0
 30 67  1  0
 30 68  1  0
 31 32  1  1
 32 69  1  0
M  END
>  <i_m_ct_stereo_status>  (320) 
1

>  <s_m_source_file>  (320) 
/var/tmp/pbs.5076255.sched01/tmp_gsyjirk/108c9vsds16.sdf

>  <i_m_source_file_index>  (320) 
34

>  <i_lp_mmshare_version>  (320) 
48012

>  <i_f3d_flags>  (320) 
0

>  <s_epik_input>  (320) 
W0NIMl0xW0NIMl1PW0NIMl1bQ0gyXU4xW0NASF0oQzI9TylbQ0gyXVtDQEBIXShbQ0BAXTIzW0NIM10pW0NIMl1bQ0gyXVtDQEBIXTRbQ0BIXTNbQ0gyXVtDSDJdW0NAQF01KFtDSDNdKVtDQEBdNChbT0hdKVtDSDJdW0NASF0oW09IXSlbQ0BASF01YzZbY0hdW2NIXW9bY0hdNg==

>  <s_epik_cmdline>  (320) 
J2VwaWtfcHl0aG9uJywgJy1waHQnLCAnMi4wJywgJy1waCcsICc3LjAnLCAnLXRuJywgJzgnLCAnLW1hJywgJzIwMCcsICctaW1hZScsICc8aW5maWxlLm1hZT4nLCAnLW9tYWUnLCAnPG91dGZpbGUubWFlPic=

>  <r_lp_tautomer_probability>  (320) 
0.99995

>  <r_epik_Ionization_Penalty>  (320) 
0.104982

>  <r_epik_Ionization_Penalty_Charging>  (320) 
0

>  <r_epik_Ionization_Penalty_Neutral>  (320) 
0.104982

>  <r_epik_State_Penalty>  (320) 
0.0948692

>  <r_epik_Charging_Adjusted_Penalty>  (320) 
0.0948692

>  <i_epik_Tot_Q>  (320) 
0

>  <i_epik_Tot_abs_Q>  (320) 
0

>  <s_lp_Force_Field>  (320) 
OPLS3e

>  <r_lp_Energy>  (320) 
50.8537

>  <b_lp_Chiralities_Consistent>  (320) 
1

>  <s_lp_Variant>  (320) 
110:0-1

>  <s_i_glide_gridfile>  (320) 
pfpi4k_grid

>  <i_i_glide_lignum>  (320) 
34

>  <i_i_glide_rotatable_bonds>  (320) 
4

>  <r_i_docking_score>  (320) 
-2.51394

>  <r_i_glide_ligand_efficiency>  (320) 
-0.0785608

>  <r_i_glide_ligand_efficiency_sa>  (320) 
-0.249415

>  <r_i_glide_ligand_efficiency_ln>  (320) 
-0.562941

>  <r_i_glide_gscore>  (320) 
-2.51394

>  <r_i_glide_lipo>  (320) 
-0.308772

>  <r_i_glide_hbond>  (320) 
-0.031416

>  <r_i_glide_metal>  (320) 
-0

>  <r_i_glide_rewards>  (320) 
-0.384711

>  <r_i_glide_evdw>  (320) 
-31.1121

>  <r_i_glide_ecoul>  (320) 
-2.64711

>  <r_i_glide_erotb>  (320) 
0.203221

>  <r_i_glide_esite>  (320) 
-0.0395941

>  <r_i_glide_emodel>  (320) 
-39.0798

>  <r_i_glide_energy>  (320) 
-33.7592

>  <r_i_glide_einternal>  (320) 
0.362723

>  <r_i_glide_intrahb_reward>  (320) 
-0

>  <i_i_glide_confnum>  (320) 
3

>  <i_i_glide_posenum>  (320) 
9

>  <r_i_glide_eff_state_penalty>  (320) 
0

>  <ligand_id>  (320) 
110

>  <original_smiles>  (320) 
CC12C(=O)C(N3CCOCC3)CC1CCC1C2CCC2(C)C(c3ccoc3)C(O)CC12O

>  <smiles>  (320) 
[H]OC1([H])C([H])([H])C2(O[H])C3([H])C([H])([H])C([H])([H])C4([H])C([H])([H])C([H])(N5C([H])([H])C([H])([H])OC([H])([H])C5([H])[H])C(=O)C4(C([H])([H])[H])C3([H])C([H])([H])C([H])([H])C2(C([H])([H])[H])C1([H])c1c([H])oc([H])c1[H]

$$$$
110:1:0
     RDKit          3D

 70 75  0  0  1  0  0  0  0  0999 V2000
    2.6677   -6.7344    1.5623 C   0  0  0  0  0  0  0  0  0  0  0  0
    3.9990   -6.8363    2.3351 C   0  0  1  0  0  0  0  0  0  0  0  0
    3.8013   -7.9162    3.4129 C   0  0  0  0  0  0  0  0  0  0  0  0
    2.8970   -7.8638    4.2449 O   0  0  0  0  0  0  0  0  0  0  0  0
    4.8228   -9.0504    3.2576 C   0  0  1  0  0  0  0  0  0  0  0  0
    4.3086  -10.3428    3.8100 N   0  0  0  0  0  0  0  0  0  0  0  0
    5.0093  -11.5284    3.2604 C   0  0  0  0  0  0  0  0  0  0  0  0
    4.4813  -12.8363    3.8766 C   0  0  0  0  0  0  0  0  0  0  0  0
    4.6251  -12.7765    5.2865 O   0  0  0  0  0  0  0  0  0  0  0  0
    3.8725  -11.7147    5.8548 C   0  0  0  0  0  0  0  0  0  0  0  0
    4.3817  -10.3783    5.2932 C   0  0  0  0  0  0  0  0  0  0  0  0
    5.1078   -8.9939    1.7566 C   0  0  0  0  0  0  0  0  0  0  0  0
    5.0890   -7.4879    1.4317 C   0  0  2  0  0  0  0  0  0  0  0  0
    6.4806   -6.8536    1.6130 C   0  0  0  0  0  0  0  0  0  0  0  0
    6.3969   -5.3787    1.2278 C   0  0  0  0  0  0  0  0  0  0  0  0
    5.4479   -4.5862    2.1513 C   0  0  2  0  0  0  0  0  0  0  0  0
    4.4616   -5.4804    2.9941 C   0  0  1  0  0  0  0  0  0  0  0  0
    3.3524   -4.6786    3.7528 C   0  0  0  0  0  0  0  0  0  0  0  0
    2.7721   -3.4597    2.9992 C   0  0  0  0  0  0  0  0  0  0  0  0
    3.9019   -2.5540    2.4688 C   0  0  2  0  0  0  0  0  0  0  0  0
    4.7404   -2.0552    3.6863 C   0  0  0  0  0  0  0  0  0  0  0  0
    3.4436   -1.3577    1.5759 C   0  0  1  0  0  0  0  0  0  0  0  0
    2.7939   -0.1368    2.2473 C   0  0  0  0  0  0  0  0  0  0  0  0
    1.6353    0.5394    1.7768 C   0  0  0  0  0  0  0  0  0  0  0  0
    1.3297    1.5289    2.6667 C   0  0  0  0  0  0  0  0  0  0  0  0
    2.2366    1.5353    3.6698 O   0  0  0  0  0  0  0  0  0  0  0  0
    3.1279    0.5472    3.3880 C   0  0  0  0  0  0  0  0  0  0  0  0
    4.6520   -1.0910    0.6285 C   0  0  1  0  0  0  0  0  0  0  0  0
    5.3805    0.0817    0.9132 O   0  0  0  0  0  0  0  0  0  0  0  0
    5.6021   -2.3101    0.7745 C   0  0  0  0  0  0  0  0  0  0  0  0
    4.7461   -3.3821    1.4606 C   0  0  1  0  0  0  0  0  0  0  0  0
    3.9309   -3.9212    0.4271 O   0  0  0  0  0  0  0  0  0  0  0  0
    2.7632   -6.1402    0.6590 H   0  0  0  0  0  0  0  0  0  0  0  0
    1.8709   -6.3061    2.1635 H   0  0  0  0  0  0  0  0  0  0  0  0
    2.3180   -7.7227    1.2619 H   0  0  0  0  0  0  0  0  0  0  0  0
    5.7407   -8.7863    3.7869 H   0  0  0  0  0  0  0  0  0  0  0  0
    4.9064  -11.5888    2.1773 H   0  0  0  0  0  0  0  0  0  0  0  0
    6.0795  -11.4414    3.4509 H   0  0  0  0  0  0  0  0  0  0  0  0
    3.4406  -13.0093    3.6080 H   0  0  0  0  0  0  0  0  0  0  0  0
    5.0514  -13.6875    3.5082 H   0  0  0  0  0  0  0  0  0  0  0  0
    2.8072  -11.8437    5.6656 H   0  0  0  0  0  0  0  0  0  0  0  0
    4.0037  -11.7242    6.9363 H   0  0  0  0  0  0  0  0  0  0  0  0
    5.4229  -10.2407    5.5902 H   0  0  0  0  0  0  0  0  0  0  0  0
    3.8088   -9.5760    5.7595 H   0  0  0  0  0  0  0  0  0  0  0  0
    6.0581   -9.4695    1.4903 H   0  0  0  0  0  0  0  0  0  0  0  0
    4.3220   -9.5006    1.1919 H   0  0  0  0  0  0  0  0  0  0  0  0
    4.8251   -7.3748    0.3784 H   0  0  0  0  0  0  0  0  0  0  0  0
    6.8538   -6.9698    2.6371 H   0  0  0  0  0  0  0  0  0  0  0  0
    7.2081   -7.3590    0.9734 H   0  0  0  0  0  0  0  0  0  0  0  0
    7.3907   -4.9439    1.2581 H   0  0  0  0  0  0  0  0  0  0  0  0
    6.0721   -5.3203    0.1896 H   0  0  0  0  0  0  0  0  0  0  0  0
    6.1465   -4.1718    2.8820 H   0  0  0  0  0  0  0  0  0  0  0  0
    5.0959   -5.8165    3.8133 H   0  0  0  0  0  0  0  0  0  0  0  0
    2.5329   -5.3195    4.0596 H   0  0  0  0  0  0  0  0  0  0  0  0
    3.7627   -4.3303    4.7044 H   0  0  0  0  0  0  0  0  0  0  0  0
    2.1270   -3.8048    2.1914 H   0  0  0  0  0  0  0  0  0  0  0  0
    2.1210   -2.8876    3.6623 H   0  0  0  0  0  0  0  0  0  0  0  0
    5.4542   -1.2896    3.3880 H   0  0  0  0  0  0  0  0  0  0  0  0
    5.3188   -2.8304    4.1932 H   0  0  0  0  0  0  0  0  0  0  0  0
    4.0840   -1.6297    4.4481 H   0  0  0  0  0  0  0  0  0  0  0  0
    2.6572   -1.7461    0.9265 H   0  0  0  0  0  0  0  0  0  0  0  0
    1.0565    0.3335    0.8912 H   0  0  0  0  0  0  0  0  0  0  0  0
    0.5523    2.2775    2.7280 H   0  0  0  0  0  0  0  0  0  0  0  0
    3.9214    0.4738    4.1232 H   0  0  0  0  0  0  0  0  0  0  0  0
    4.2972   -1.0126   -0.4044 H   0  0  0  0  0  0  0  0  0  0  0  0
    5.0889    0.7627    0.3195 H   0  0  0  0  0  0  0  0  0  0  0  0
    6.0115   -2.6379   -0.1842 H   0  0  0  0  0  0  0  0  0  0  0  0
    6.4565   -2.0645    1.4113 H   0  0  0  0  0  0  0  0  0  0  0  0
    4.4781   -4.3975   -0.1834 H   0  0  0  0  0  0  0  0  0  0  0  0
    3.3378  -10.4331    3.5404 H   0  0  0  0  0  0  0  0  0  0  0  0
  2  1  1  6
  1 33  1  0
  1 34  1  0
  1 35  1  0
  2 13  1  0
  2 17  1  0
  2  3  1  0
  3  4  2  0
  3  5  1  0
  5  6  1  0
  5 12  1  0
  5 36  1  1
  6 11  1  0
  6  7  1  0
  6 70  1  0
  7  8  1  0
  7 37  1  0
  7 38  1  0
  8  9  1  0
  8 39  1  0
  8 40  1  0
  9 10  1  0
 10 11  1  0
 10 41  1  0
 10 42  1  0
 11 43  1  0
 11 44  1  0
 12 13  1  0
 12 45  1  0
 12 46  1  0
 13 14  1  0
 13 47  1  6
 14 15  1  0
 14 48  1  0
 14 49  1  0
 15 16  1  0
 15 50  1  0
 15 51  1  0
 16 31  1  0
 16 17  1  0
 16 52  1  1
 17 18  1  0
 17 53  1  1
 18 19  1  0
 18 54  1  0
 18 55  1  0
 19 20  1  0
 19 56  1  0
 19 57  1  0
 20 31  1  0
 20 21  1  1
 20 22  1  0
 21 58  1  0
 21 59  1  0
 21 60  1  0
 22 23  1  0
 22 28  1  0
 22 61  1  6
 23 27  2  0
 23 24  1  0
 24 25  2  0
 24 62  1  0
 25 26  1  0
 25 63  1  0
 26 27  1  0
 27 64  1  0
 28 29  1  0
 28 30  1  0
 28 65  1  6
 29 66  1  0
 30 31  1  0
 30 67  1  0
 30 68  1  0
 31 32  1  6
 32 69  1  0
M  CHG  1   6   1
M  END
>  <i_m_ct_stereo_status>  (321) 
1

>  <s_m_source_file>  (321) 
/var/tmp/pbs.5076255.sched01/tmp_gsyjirk/108c9vsds16.sdf

>  <i_m_source_file_index>  (321) 
35

>  <i_lp_mmshare_version>  (321) 
48012

>  <i_f3d_flags>  (321) 
0

>  <s_epik_input>  (321) 
W0NIMl0xW0NIMl1PW0NIMl1bQ0gyXU4xW0NASF0oQzI9TylbQ0gyXVtDQEBIXShbQ0BAXTIzW0NIM10pW0NIMl1bQ0gyXVtDQEBIXTRbQ0BIXTNbQ0gyXVtDSDJdW0NAQF01KFtDSDNdKVtDQEBdNChbT0hdKVtDSDJdW0NASF0oW09IXSlbQ0BASF01YzZbY0hdW2NIXW9bY0hdNg==

>  <s_epik_cmdline>  (321) 
J2VwaWtfcHl0aG9uJywgJy1waHQnLCAnMi4wJywgJy1waCcsICc3LjAnLCAnLXRuJywgJzgnLCAnLW1hJywgJzIwMCcsICctaW1hZScsICc8aW5maWxlLm1hZT4nLCAnLW9tYWUnLCAnPG91dGZpbGUubWFlPic=

>  <r_epik_Ionization_Penalty>  (321) 
1.07704

>  <r_epik_Ionization_Penalty_Charging>  (321) 
1.07704

>  <r_epik_Ionization_Penalty_Neutral>  (321) 
1.12183e-06

>  <r_epik_State_Penalty>  (321) 
1.13213

>  <r_epik_Charging_Adjusted_Penalty>  (321) 
2.20917

>  <i_epik_Tot_Q>  (321) 
1

>  <i_epik_Tot_abs_Q>  (321) 
1

>  <s_lp_Force_Field>  (321) 
OPLS3e

>  <r_lp_Energy>  (321) 
57.184

>  <b_lp_Chiralities_Consistent>  (321) 
1

>  <s_lp_Variant>  (321) 
110:0-2

>  <s_i_glide_gridfile>  (321) 
pfpi4k_grid

>  <i_i_glide_lignum>  (321) 
35

>  <i_i_glide_rotatable_bonds>  (321) 
4

>  <r_i_docking_score>  (321) 
-3.57094

>  <r_i_glide_ligand_efficiency>  (321) 
-0.111592

>  <r_i_glide_ligand_efficiency_sa>  (321) 
-0.354282

>  <r_i_glide_ligand_efficiency_ln>  (321) 
-0.79963

>  <r_i_glide_gscore>  (321) 
-3.57094

>  <r_i_glide_lipo>  (321) 
-0.46678

>  <r_i_glide_hbond>  (321) 
-0.507123

>  <r_i_glide_metal>  (321) 
-0

>  <r_i_glide_rewards>  (321) 
-0.377839

>  <r_i_glide_evdw>  (321) 
-26.3566

>  <r_i_glide_ecoul>  (321) 
-7.26205

>  <r_i_glide_erotb>  (321) 
0.202385

>  <r_i_glide_esite>  (321) 
-0.0144392

>  <r_i_glide_emodel>  (321) 
-41.6733

>  <r_i_glide_energy>  (321) 
-33.6187

>  <r_i_glide_einternal>  (321) 
2.27977

>  <r_i_glide_intrahb_reward>  (321) 
-0

>  <i_i_glide_confnum>  (321) 
4

>  <i_i_glide_posenum>  (321) 
8

>  <r_i_glide_eff_state_penalty>  (321) 
0

>  <ligand_id>  (321) 
110

>  <original_smiles>  (321) 
CC12C(=O)C(N3CCOCC3)CC1CCC1C2CCC2(C)C(c3ccoc3)C(O)CC12O

>  <smiles>  (321) 
[H]OC1([H])C([H])([H])C2(O[H])C3([H])C([H])([H])C([H])([H])C4([H])C([H])([H])C([H])([N+]5([H])C([H])([H])C([H])([H])OC([H])([H])C5([H])[H])C(=O)C4(C([H])([H])[H])C3([H])C([H])([H])C([H])([H])C2(C([H])([H])[H])C1([H])c1c([H])oc([H])c1[H]

$$$$
110:1:1
     RDKit          3D

 70 75  0  0  1  0  0  0  0  0999 V2000
    4.2962   -2.7504    4.0361 C   0  0  0  0  0  0  0  0  0  0  0  0
    3.6276   -2.4378    2.6810 C   0  0  1  0  0  0  0  0  0  0  0  0
    2.7320   -1.2107    2.8883 C   0  0  0  0  0  0  0  0  0  0  0  0
    1.7787   -1.1930    3.6718 O   0  0  0  0  0  0  0  0  0  0  0  0
    3.1732   -0.0504    2.0075 C   0  0  1  0  0  0  0  0  0  0  0  0
    2.8452    1.2672    2.6267 N   0  0  0  0  0  0  0  0  0  0  0  0
    1.3993    1.5893    2.4845 C   0  0  0  0  0  0  0  0  0  0  0  0
    1.0533    2.9484    3.1056 C   0  0  0  0  0  0  0  0  0  0  0  0
    1.4967    2.9780    4.4552 O   0  0  0  0  0  0  0  0  0  0  0  0
    2.9012    2.8359    4.5704 C   0  0  0  0  0  0  0  0  0  0  0  0
    3.3169    1.4625    4.0292 C   0  0  0  0  0  0  0  0  0  0  0  0
    4.6524   -0.3557    1.7557 C   0  0  0  0  0  0  0  0  0  0  0  0
    4.7010   -1.8981    1.6768 C   0  0  2  0  0  0  0  0  0  0  0  0
    4.4864   -2.4036    0.2395 C   0  0  0  0  0  0  0  0  0  0  0  0
    4.5839   -3.9329    0.2470 C   0  0  0  0  0  0  0  0  0  0  0  0
    3.4746   -4.6021    1.0946 C   0  0  2  0  0  0  0  0  0  0  0  0
    2.7665   -3.6252    2.1043 C   0  0  1  0  0  0  0  0  0  0  0  0
    1.8174   -4.3341    3.1331 C   0  0  0  0  0  0  0  0  0  0  0  0
    2.2967   -5.7052    3.6642 C   0  0  0  0  0  0  0  0  0  0  0  0
    2.7195   -6.6248    2.4987 C   0  0  2  0  0  0  0  0  0  0  0  0
    1.4682   -6.8830    1.5964 C   0  0  0  0  0  0  0  0  0  0  0  0
    3.3593   -7.9786    2.9055 C   0  0  1  0  0  0  0  0  0  0  0  0
    2.4275   -9.0569    3.4396 C   0  0  0  0  0  0  0  0  0  0  0  0
    2.3672   -9.4948    4.7995 C   0  0  0  0  0  0  0  0  0  0  0  0
    1.4071  -10.4625    4.8699 C   0  0  0  0  0  0  0  0  0  0  0  0
    0.8504  -10.6689    3.6464 O   0  0  0  0  0  0  0  0  0  0  0  0
    1.4840   -9.8084    2.8011 C   0  0  0  0  0  0  0  0  0  0  0  0
    4.2919   -8.3627    1.7105 C   0  0  1  0  0  0  0  0  0  0  0  0
    3.8254   -9.4076    0.8720 O   0  0  0  0  0  0  0  0  0  0  0  0
    4.4432   -7.0683    0.8662 C   0  0  0  0  0  0  0  0  0  0  0  0
    3.9022   -5.9439    1.7568 C   0  0  1  0  0  0  0  0  0  0  0  0
    4.9709   -5.6315    2.6390 O   0  0  0  0  0  0  0  0  0  0  0  0
    5.0803   -3.4967    3.9543 H   0  0  0  0  0  0  0  0  0  0  0  0
    3.5839   -3.1043    4.7792 H   0  0  0  0  0  0  0  0  0  0  0  0
    4.7557   -1.8581    4.4632 H   0  0  0  0  0  0  0  0  0  0  0  0
    2.6590   -0.1107    1.0480 H   0  0  0  0  0  0  0  0  0  0  0  0
    1.1118    1.5833    1.4320 H   0  0  0  0  0  0  0  0  0  0  0  0
    0.7966    0.8294    2.9856 H   0  0  0  0  0  0  0  0  0  0  0  0
    1.4850    3.7769    2.5413 H   0  0  0  0  0  0  0  0  0  0  0  0
   -0.0322    3.0779    3.0840 H   0  0  0  0  0  0  0  0  0  0  0  0
    3.4122    3.6609    4.0727 H   0  0  0  0  0  0  0  0  0  0  0  0
    3.1630    2.8953    5.6287 H   0  0  0  0  0  0  0  0  0  0  0  0
    2.8956    0.6982    4.6845 H   0  0  0  0  0  0  0  0  0  0  0  0
    4.4005    1.3821    4.0858 H   0  0  0  0  0  0  0  0  0  0  0  0
    5.0341    0.1306    0.8570 H   0  0  0  0  0  0  0  0  0  0  0  0
    5.2741   -0.0255    2.5861 H   0  0  0  0  0  0  0  0  0  0  0  0
    5.6981   -2.2156    1.9822 H   0  0  0  0  0  0  0  0  0  0  0  0
    3.5276   -2.0703   -0.1634 H   0  0  0  0  0  0  0  0  0  0  0  0
    5.2505   -1.9808   -0.4154 H   0  0  0  0  0  0  0  0  0  0  0  0
    4.5404   -4.3032   -0.7798 H   0  0  0  0  0  0  0  0  0  0  0  0
    5.5693   -4.1946    0.6210 H   0  0  0  0  0  0  0  0  0  0  0  0
    2.7192   -4.8398    0.3512 H   0  0  0  0  0  0  0  0  0  0  0  0
    2.0534   -3.1181    1.4467 H   0  0  0  0  0  0  0  0  0  0  0  0
    1.5819   -3.6948    3.9799 H   0  0  0  0  0  0  0  0  0  0  0  0
    0.8486   -4.4775    2.6700 H   0  0  0  0  0  0  0  0  0  0  0  0
    3.1145   -5.5506    4.3672 H   0  0  0  0  0  0  0  0  0  0  0  0
    1.4949   -6.1692    4.2432 H   0  0  0  0  0  0  0  0  0  0  0  0
    1.6889   -7.6175    0.8284 H   0  0  0  0  0  0  0  0  0  0  0  0
    1.0877   -5.9969    1.0880 H   0  0  0  0  0  0  0  0  0  0  0  0
    0.6353   -7.2790    2.1797 H   0  0  0  0  0  0  0  0  0  0  0  0
    4.0227   -7.7667    3.7451 H   0  0  0  0  0  0  0  0  0  0  0  0
    2.9620   -9.1443    5.6276 H   0  0  0  0  0  0  0  0  0  0  0  0
    1.0171  -11.0725    5.6743 H   0  0  0  0  0  0  0  0  0  0  0  0
    1.1324   -9.8701    1.7799 H   0  0  0  0  0  0  0  0  0  0  0  0
    5.2683   -8.6536    2.1052 H   0  0  0  0  0  0  0  0  0  0  0  0
    4.0303  -10.2560    1.2514 H   0  0  0  0  0  0  0  0  0  0  0  0
    5.4633   -6.8931    0.5289 H   0  0  0  0  0  0  0  0  0  0  0  0
    3.8558   -7.1088   -0.0440 H   0  0  0  0  0  0  0  0  0  0  0  0
    5.2577   -6.4237    3.0616 H   0  0  0  0  0  0  0  0  0  0  0  0
    3.3329    1.9649    2.0845 H   0  0  0  0  0  0  0  0  0  0  0  0
  2  1  1  1
  1 33  1  0
  1 34  1  0
  1 35  1  0
  2 13  1  0
  2 17  1  0
  2  3  1  0
  3  4  2  0
  3  5  1  0
  5  6  1  0
  5 12  1  0
  5 36  1  6
  6 11  1  0
  6  7  1  0
  6 70  1  0
  7  8  1  0
  7 37  1  0
  7 38  1  0
  8  9  1  0
  8 39  1  0
  8 40  1  0
  9 10  1  0
 10 11  1  0
 10 41  1  0
 10 42  1  0
 11 43  1  0
 11 44  1  0
 12 13  1  0
 12 45  1  0
 12 46  1  0
 13 14  1  0
 13 47  1  1
 14 15  1  0
 14 48  1  0
 14 49  1  0
 15 16  1  0
 15 50  1  0
 15 51  1  0
 16 31  1  0
 16 17  1  0
 16 52  1  6
 17 18  1  0
 17 53  1  6
 18 19  1  0
 18 54  1  0
 18 55  1  0
 19 20  1  0
 19 56  1  0
 19 57  1  0
 20 31  1  0
 20 21  1  6
 20 22  1  0
 21 58  1  0
 21 59  1  0
 21 60  1  0
 22 23  1  0
 22 28  1  0
 22 61  1  1
 23 27  2  0
 23 24  1  0
 24 25  2  0
 24 62  1  0
 25 26  1  0
 25 63  1  0
 26 27  1  0
 27 64  1  0
 28 29  1  0
 28 30  1  0
 28 65  1  1
 29 66  1  0
 30 31  1  0
 30 67  1  0
 30 68  1  0
 31 32  1  1
 32 69  1  0
M  CHG  1   6   1
M  END
>  <i_m_ct_stereo_status>  (322) 
1

>  <s_m_source_file>  (322) 
/var/tmp/pbs.5076255.sched01/tmp_gsyjirk/108c9vsds16.sdf

>  <i_m_source_file_index>  (322) 
35

>  <i_lp_mmshare_version>  (322) 
48012

>  <i_f3d_flags>  (322) 
0

>  <s_epik_input>  (322) 
W0NIMl0xW0NIMl1PW0NIMl1bQ0gyXU4xW0NASF0oQzI9TylbQ0gyXVtDQEBIXShbQ0BAXTIzW0NIM10pW0NIMl1bQ0gyXVtDQEBIXTRbQ0BIXTNbQ0gyXVtDSDJdW0NAQF01KFtDSDNdKVtDQEBdNChbT0hdKVtDSDJdW0NASF0oW09IXSlbQ0BASF01YzZbY0hdW2NIXW9bY0hdNg==

>  <s_epik_cmdline>  (322) 
J2VwaWtfcHl0aG9uJywgJy1waHQnLCAnMi4wJywgJy1waCcsICc3LjAnLCAnLXRuJywgJzgnLCAnLW1hJywgJzIwMCcsICctaW1hZScsICc8aW5maWxlLm1hZT4nLCAnLW9tYWUnLCAnPG91dGZpbGUubWFlPic=

>  <r_epik_Ionization_Penalty>  (322) 
1.07704

>  <r_epik_Ionization_Penalty_Charging>  (322) 
1.07704

>  <r_epik_Ionization_Penalty_Neutral>  (322) 
1.12183e-06

>  <r_epik_State_Penalty>  (322) 
1.13213

>  <r_epik_Charging_Adjusted_Penalty>  (322) 
2.20917

>  <i_epik_Tot_Q>  (322) 
1

>  <i_epik_Tot_abs_Q>  (322) 
1

>  <s_lp_Force_Field>  (322) 
OPLS3e

>  <r_lp_Energy>  (322) 
57.184

>  <b_lp_Chiralities_Consistent>  (322) 
1

>  <s_lp_Variant>  (322) 
110:0-2

>  <s_i_glide_gridfile>  (322) 
pfpi4k_grid

>  <i_i_glide_lignum>  (322) 
35

>  <i_i_glide_rotatable_bonds>  (322) 
4

>  <r_i_docking_score>  (322) 
-3.23284

>  <r_i_glide_ligand_efficiency>  (322) 
-0.101026

>  <r_i_glide_ligand_efficiency_sa>  (322) 
-0.320739

>  <r_i_glide_ligand_efficiency_ln>  (322) 
-0.723922

>  <r_i_glide_gscore>  (322) 
-3.23284

>  <r_i_glide_lipo>  (322) 
-0.435539

>  <r_i_glide_hbond>  (322) 
-0.0775921

>  <r_i_glide_metal>  (322) 
-0

>  <r_i_glide_rewards>  (322) 
-0.377839

>  <r_i_glide_evdw>  (322) 
-30.386

>  <r_i_glide_ecoul>  (322) 
-6.78039

>  <r_i_glide_erotb>  (322) 
0.202385

>  <r_i_glide_esite>  (322) 
-0.00789852

>  <r_i_glide_emodel>  (322) 
-41.0905

>  <r_i_glide_energy>  (322) 
-37.1664

>  <r_i_glide_einternal>  (322) 
8.83543

>  <r_i_glide_intrahb_reward>  (322) 
-0

>  <i_i_glide_confnum>  (322) 
4

>  <i_i_glide_posenum>  (322) 
18

>  <r_i_glide_eff_state_penalty>  (322) 
0

>  <ligand_id>  (322) 
110

>  <original_smiles>  (322) 
CC12C(=O)C(N3CCOCC3)CC1CCC1C2CCC2(C)C(c3ccoc3)C(O)CC12O

>  <smiles>  (322) 
[H]OC1([H])C([H])([H])C2(O[H])C3([H])C([H])([H])C([H])([H])C4([H])C([H])([H])C([H])([N+]5([H])C([H])([H])C([H])([H])OC([H])([H])C5([H])[H])C(=O)C4(C([H])([H])[H])C3([H])C([H])([H])C([H])([H])C2(C([H])([H])[H])C1([H])c1c([H])oc([H])c1[H]

$$$$
110:1:2
     RDKit          3D

 70 75  0  0  1  0  0  0  0  0999 V2000
    4.0137   -2.6118    3.9663 C   0  0  0  0  0  0  0  0  0  0  0  0
    3.2634   -2.5044    2.6229 C   0  0  1  0  0  0  0  0  0  0  0  0
    2.1124   -1.5143    2.8271 C   0  0  0  0  0  0  0  0  0  0  0  0
    1.2016   -1.7003    3.6423 O   0  0  0  0  0  0  0  0  0  0  0  0
    2.2532   -0.3057    1.9083 C   0  0  1  0  0  0  0  0  0  0  0  0
    1.6258    0.9149    2.4929 N   0  0  0  0  0  0  0  0  0  0  0  0
    0.1400    0.8523    2.4293 C   0  0  0  0  0  0  0  0  0  0  0  0
   -0.5157    2.0940    3.0386 C   0  0  0  0  0  0  0  0  0  0  0  0
   -0.0245    2.3006    4.3563 O   0  0  0  0  0  0  0  0  0  0  0  0
    1.3762    2.5267    4.3851 C   0  0  0  0  0  0  0  0  0  0  0  0
    2.1026    1.2863    3.8558 C   0  0  0  0  0  0  0  0  0  0  0  0
    3.7551   -0.2627    1.6234 C   0  0  0  0  0  0  0  0  0  0  0  0
    4.1587   -1.7544    1.5777 C   0  0  2  0  0  0  0  0  0  0  0  0
    4.0413   -2.3375    0.1584 C   0  0  0  0  0  0  0  0  0  0  0  0
    4.4976   -3.7993    0.1994 C   0  0  0  0  0  0  0  0  0  0  0  0
    3.5941   -4.6862    1.0903 C   0  0  2  0  0  0  0  0  0  0  0  0
    2.6950   -3.8782    2.0957 C   0  0  1  0  0  0  0  0  0  0  0  0
    1.9542   -4.7627    3.1572 C   0  0  0  0  0  0  0  0  0  0  0  0
    2.7564   -5.9640    3.7095 C   0  0  0  0  0  0  0  0  0  0  0  0
    3.3661   -6.7914    2.5557 C   0  0  2  0  0  0  0  0  0  0  0  0
    2.2055   -7.3732    1.6818 C   0  0  0  0  0  0  0  0  0  0  0  0
    4.3163   -7.9404    2.9786 C   0  0  1  0  0  0  0  0  0  0  0  0
    3.6732   -9.1930    3.5664 C   0  0  0  0  0  0  0  0  0  0  0  0
    3.5366   -9.4681    4.9637 C   0  0  0  0  0  0  0  0  0  0  0  0
    2.9216  -10.6829    5.0760 C   0  0  0  0  0  0  0  0  0  0  0  0
    2.6541  -11.1956    3.8474 O   0  0  0  0  0  0  0  0  0  0  0  0
    3.1140  -10.2764    2.9533 C   0  0  0  0  0  0  0  0  0  0  0  0
    5.2892   -8.1204    1.7686 C   0  0  1  0  0  0  0  0  0  0  0  0
    5.0670   -9.2556    0.9590 O   0  0  0  0  0  0  0  0  0  0  0  0
    5.1013   -6.8619    0.8846 C   0  0  0  0  0  0  0  0  0  0  0  0
    4.3392   -5.8705    1.7696 C   0  0  1  0  0  0  0  0  0  0  0  0
    5.3239   -5.2909    2.6157 O   0  0  0  0  0  0  0  0  0  0  0  0
    4.9511   -3.1533    3.8810 H   0  0  0  0  0  0  0  0  0  0  0  0
    3.4191   -3.1026    4.7353 H   0  0  0  0  0  0  0  0  0  0  0  0
    4.2568   -1.6235    4.3611 H   0  0  0  0  0  0  0  0  0  0  0  0
    1.7649   -0.5109    0.9600 H   0  0  0  0  0  0  0  0  0  0  0  0
   -0.1830    0.7352    1.3925 H   0  0  0  0  0  0  0  0  0  0  0  0
   -0.2284   -0.0071    2.9876 H   0  0  0  0  0  0  0  0  0  0  0  0
   -0.3327    2.9738    2.4356 H   0  0  0  0  0  0  0  0  0  0  0  0
   -1.5990    1.9552    3.0708 H   0  0  0  0  0  0  0  0  0  0  0  0
    1.6391    3.4300    3.8324 H   0  0  0  0  0  0  0  0  0  0  0  0
    1.6706    2.6940    5.4237 H   0  0  0  0  0  0  0  0  0  0  0  0
    1.9195    0.4714    4.5570 H   0  0  0  0  0  0  0  0  0  0  0  0
    3.1723    1.4770    3.8555 H   0  0  0  0  0  0  0  0  0  0  0  0
    3.9899    0.2704    0.7016 H   0  0  0  0  0  0  0  0  0  0  0  0
    4.3021    0.2266    2.4268 H   0  0  0  0  0  0  0  0  0  0  0  0
    5.2086   -1.8218    1.8638 H   0  0  0  0  0  0  0  0  0  0  0  0
    3.0233   -2.2507   -0.2286 H   0  0  0  0  0  0  0  0  0  0  0  0
    4.6703   -1.7657   -0.5258 H   0  0  0  0  0  0  0  0  0  0  0  0
    4.5246   -4.2012   -0.8167 H   0  0  0  0  0  0  0  0  0  0  0  0
    5.5248   -3.8095    0.5536 H   0  0  0  0  0  0  0  0  0  0  0  0
    2.9039   -5.1210    0.3745 H   0  0  0  0  0  0  0  0  0  0  0  0
    1.8715   -3.5703    1.4450 H   0  0  0  0  0  0  0  0  0  0  0  0
    1.5913   -4.1736    3.9962 H   0  0  0  0  0  0  0  0  0  0  0  0
    1.0348   -5.1388    2.7173 H   0  0  0  0  0  0  0  0  0  0  0  0
    3.5282   -5.5987    4.3866 H   0  0  0  0  0  0  0  0  0  0  0  0
    2.1048   -6.5880    4.3236 H   0  0  0  0  0  0  0  0  0  0  0  0
    2.5779   -8.0458    0.9086 H   0  0  0  0  0  0  0  0  0  0  0  0
    1.6032   -6.6154    1.1800 H   0  0  0  0  0  0  0  0  0  0  0  0
    1.5121   -7.9483    2.2981 H   0  0  0  0  0  0  0  0  0  0  0  0
    4.9305   -7.5580    3.7975 H   0  0  0  0  0  0  0  0  0  0  0  0
    3.8566   -8.8526    5.7874 H   0  0  0  0  0  0  0  0  0  0  0  0
    2.6165  -11.2951    5.9146 H   0  0  0  0  0  0  0  0  0  0  0  0
    2.9630  -10.5719    1.9233 H   0  0  0  0  0  0  0  0  0  0  0  0
    6.3095   -8.1718    2.1468 H   0  0  0  0  0  0  0  0  0  0  0  0
    5.0086  -10.0229    1.5161 H   0  0  0  0  0  0  0  0  0  0  0  0
    6.0460   -6.4632    0.5157 H   0  0  0  0  0  0  0  0  0  0  0  0
    4.4974   -7.0883    0.0061 H   0  0  0  0  0  0  0  0  0  0  0  0
    5.7916   -5.9797    3.0625 H   0  0  0  0  0  0  0  0  0  0  0  0
    1.8836    1.6815    1.8887 H   0  0  0  0  0  0  0  0  0  0  0  0
  2  1  1  1
  1 33  1  0
  1 34  1  0
  1 35  1  0
  2 13  1  0
  2 17  1  0
  2  3  1  0
  3  4  2  0
  3  5  1  0
  5  6  1  0
  5 12  1  0
  5 36  1  6
  6 11  1  0
  6  7  1  0
  6 70  1  0
  7  8  1  0
  7 37  1  0
  7 38  1  0
  8  9  1  0
  8 39  1  0
  8 40  1  0
  9 10  1  0
 10 11  1  0
 10 41  1  0
 10 42  1  0
 11 43  1  0
 11 44  1  0
 12 13  1  0
 12 45  1  0
 12 46  1  0
 13 14  1  0
 13 47  1  1
 14 15  1  0
 14 48  1  0
 14 49  1  0
 15 16  1  0
 15 50  1  0
 15 51  1  0
 16 31  1  0
 16 17  1  0
 16 52  1  6
 17 18  1  0
 17 53  1  6
 18 19  1  0
 18 54  1  0
 18 55  1  0
 19 20  1  0
 19 56  1  0
 19 57  1  0
 20 31  1  0
 20 21  1  6
 20 22  1  0
 21 58  1  0
 21 59  1  0
 21 60  1  0
 22 23  1  0
 22 28  1  0
 22 61  1  1
 23 27  2  0
 23 24  1  0
 24 25  2  0
 24 62  1  0
 25 26  1  0
 25 63  1  0
 26 27  1  0
 27 64  1  0
 28 29  1  0
 28 30  1  0
 28 65  1  1
 29 66  1  0
 30 31  1  0
 30 67  1  0
 30 68  1  0
 31 32  1  1
 32 69  1  0
M  CHG  1   6   1
M  END
>  <i_m_ct_stereo_status>  (323) 
1

>  <s_m_source_file>  (323) 
/var/tmp/pbs.5076255.sched01/tmp_gsyjirk/108c9vsds16.sdf

>  <i_m_source_file_index>  (323) 
35

>  <i_lp_mmshare_version>  (323) 
48012

>  <i_f3d_flags>  (323) 
0

>  <s_epik_input>  (323) 
W0NIMl0xW0NIMl1PW0NIMl1bQ0gyXU4xW0NASF0oQzI9TylbQ0gyXVtDQEBIXShbQ0BAXTIzW0NIM10pW0NIMl1bQ0gyXVtDQEBIXTRbQ0BIXTNbQ0gyXVtDSDJdW0NAQF01KFtDSDNdKVtDQEBdNChbT0hdKVtDSDJdW0NASF0oW09IXSlbQ0BASF01YzZbY0hdW2NIXW9bY0hdNg==

>  <s_epik_cmdline>  (323) 
J2VwaWtfcHl0aG9uJywgJy1waHQnLCAnMi4wJywgJy1waCcsICc3LjAnLCAnLXRuJywgJzgnLCAnLW1hJywgJzIwMCcsICctaW1hZScsICc8aW5maWxlLm1hZT4nLCAnLW9tYWUnLCAnPG91dGZpbGUubWFlPic=

>  <r_epik_Ionization_Penalty>  (323) 
1.07704

>  <r_epik_Ionization_Penalty_Charging>  (323) 
1.07704

>  <r_epik_Ionization_Penalty_Neutral>  (323) 
1.12183e-06

>  <r_epik_State_Penalty>  (323) 
1.13213

>  <r_epik_Charging_Adjusted_Penalty>  (323) 
2.20917

>  <i_epik_Tot_Q>  (323) 
1

>  <i_epik_Tot_abs_Q>  (323) 
1

>  <s_lp_Force_Field>  (323) 
OPLS3e

>  <r_lp_Energy>  (323) 
57.184

>  <b_lp_Chiralities_Consistent>  (323) 
1

>  <s_lp_Variant>  (323) 
110:0-2

>  <s_i_glide_gridfile>  (323) 
pfpi4k_grid

>  <i_i_glide_lignum>  (323) 
35

>  <i_i_glide_rotatable_bonds>  (323) 
4

>  <r_i_docking_score>  (323) 
-2.74247

>  <r_i_glide_ligand_efficiency>  (323) 
-0.0857022

>  <r_i_glide_ligand_efficiency_sa>  (323) 
-0.272088

>  <r_i_glide_ligand_efficiency_ln>  (323) 
-0.614114

>  <r_i_glide_gscore>  (323) 
-2.74247

>  <r_i_glide_lipo>  (323) 
-0.227966

>  <r_i_glide_hbond>  (323) 
0

>  <r_i_glide_metal>  (323) 
-0

>  <r_i_glide_rewards>  (323) 
-0.377839

>  <r_i_glide_evdw>  (323) 
-29.4461

>  <r_i_glide_ecoul>  (323) 
-5.56783

>  <r_i_glide_erotb>  (323) 
0.202385

>  <r_i_glide_esite>  (323) 
-0.0315707

>  <r_i_glide_emodel>  (323) 
-37.6738

>  <r_i_glide_energy>  (323) 
-35.014

>  <r_i_glide_einternal>  (323) 
8.79579

>  <r_i_glide_intrahb_reward>  (323) 
-0

>  <i_i_glide_confnum>  (323) 
4

>  <i_i_glide_posenum>  (323) 
1

>  <r_i_glide_eff_state_penalty>  (323) 
0

>  <ligand_id>  (323) 
110

>  <original_smiles>  (323) 
CC12C(=O)C(N3CCOCC3)CC1CCC1C2CCC2(C)C(c3ccoc3)C(O)CC12O

>  <smiles>  (323) 
[H]OC1([H])C([H])([H])C2(O[H])C3([H])C([H])([H])C([H])([H])C4([H])C([H])([H])C([H])([N+]5([H])C([H])([H])C([H])([H])OC([H])([H])C5([H])[H])C(=O)C4(C([H])([H])[H])C3([H])C([H])([H])C([H])([H])C2(C([H])([H])[H])C1([H])c1c([H])oc([H])c1[H]

$$$$
111:0:0
     RDKit          3D

 58 62  0  0  1  0  0  0  0  0999 V2000
    3.2565   -3.3204   -0.8046 C   0  0  0  0  0  0  0  0  0  0  0  0
    4.6482   -2.7029   -1.1420 C   0  0  1  0  0  0  0  0  0  0  0  0
    5.0837   -3.1732   -2.5773 C   0  0  1  0  0  0  0  0  0  0  0  0
    5.0143   -4.5484   -2.6984 O   0  0  0  0  0  0  0  0  0  0  0  0
    4.1585   -2.7208   -3.7478 C   0  0  0  0  0  0  0  0  0  0  0  0
    4.0189   -1.2271   -3.8050 C   0  0  0  0  0  0  0  0  0  0  0  0
    3.6791   -0.6781   -2.4392 C   0  0  0  0  0  0  0  0  0  0  0  0
    4.5606   -1.1750   -1.2596 C   0  0  1  0  0  0  0  0  0  0  0  0
    4.2339   -0.5265    0.1003 C   0  0  0  0  0  0  0  0  0  0  0  0
    5.3515   -0.8059    1.1197 C   0  0  1  0  0  0  0  0  0  0  0  0
    5.1920   -0.1165    2.3254 O   0  0  0  0  0  0  0  0  0  0  0  0
    5.5613   -2.3115    1.3576 C   0  0  1  0  0  0  0  0  0  0  0  0
    4.5001   -3.0004    2.2935 C   0  0  2  0  0  0  0  0  0  0  0  0
    4.7317   -2.7501    3.8034 C   0  0  0  0  0  0  0  0  0  0  0  0
    3.6095   -3.3753    4.6520 C   0  0  0  0  0  0  0  0  0  0  0  0
    3.1891   -4.7606    4.1821 C   0  0  0  0  0  0  0  0  0  0  0  0
    3.5570   -5.2975    2.9976 C   0  0  0  0  0  0  0  0  0  0  0  0
    3.0565   -6.6873    2.5948 C   0  0  0  0  0  0  0  0  0  0  0  0
    1.6552   -7.0006    3.1408 C   0  0  0  0  0  0  0  0  0  0  0  0
    0.9794   -7.8966    2.6678 O   0  0  0  0  0  0  0  0  0  0  0  0
    1.1121   -6.1453    4.2925 C   0  0  0  0  0  0  0  0  0  0  0  0
    2.2414   -5.5022    5.1007 C   0  0  0  0  0  0  0  0  0  0  0  0
    4.4311   -4.5236    2.1367 C   0  0  0  0  0  0  0  0  0  0  0  0
    5.1636   -5.1528    1.1979 C   0  0  0  0  0  0  0  0  0  0  0  0
    6.0964   -4.4675    0.2446 C   0  0  0  0  0  0  0  0  0  0  0  0
    5.7397   -3.0058   -0.0317 C   0  0  1  0  0  0  0  0  0  0  0  0
    3.3164   -4.3915   -0.6207 H   0  0  0  0  0  0  0  0  0  0  0  0
    2.5418   -3.1836   -1.6067 H   0  0  0  0  0  0  0  0  0  0  0  0
    2.7911   -2.8688    0.0662 H   0  0  0  0  0  0  0  0  0  0  0  0
    6.1042   -2.8179   -2.7463 H   0  0  0  0  0  0  0  0  0  0  0  0
    4.1140   -4.8362   -2.6053 H   0  0  0  0  0  0  0  0  0  0  0  0
    4.5616   -3.0772   -4.6943 H   0  0  0  0  0  0  0  0  0  0  0  0
    3.1771   -3.1850   -3.6828 H   0  0  0  0  0  0  0  0  0  0  0  0
    4.9274   -0.7376   -4.1000 H   0  0  0  0  0  0  0  0  0  0  0  0
    3.2602   -0.9137   -4.5318 H   0  0  0  0  0  0  0  0  0  0  0  0
    3.8739    0.3725   -2.6011 H   0  0  0  0  0  0  0  0  0  0  0  0
    2.6228   -0.8808   -2.2225 H   0  0  0  0  0  0  0  0  0  0  0  0
    5.5574   -0.8115   -1.5309 H   0  0  0  0  0  0  0  0  0  0  0  0
    4.2054    0.5541    0.0078 H   0  0  0  0  0  0  0  0  0  0  0  0
    3.2426   -0.8014    0.4915 H   0  0  0  0  0  0  0  0  0  0  0  0
    6.2737   -0.4160    0.6869 H   0  0  0  0  0  0  0  0  0  0  0  0
    4.6283   -0.6423    2.8880 H   0  0  0  0  0  0  0  0  0  0  0  0
    6.5142   -2.4010    1.8917 H   0  0  0  0  0  0  0  0  0  0  0  0
    3.5076   -2.6159    2.0520 H   0  0  0  0  0  0  0  0  0  0  0  0
    5.6844   -3.1871    4.0975 H   0  0  0  0  0  0  0  0  0  0  0  0
    4.7935   -1.7031    4.0783 H   0  0  0  0  0  0  0  0  0  0  0  0
    3.9268   -3.4337    5.6899 H   0  0  0  0  0  0  0  0  0  0  0  0
    2.7183   -2.7441    4.5960 H   0  0  0  0  0  0  0  0  0  0  0  0
    2.9975   -6.7327    1.5097 H   0  0  0  0  0  0  0  0  0  0  0  0
    3.7707   -7.4460    2.9012 H   0  0  0  0  0  0  0  0  0  0  0  0
    0.4927   -5.3473    3.8623 H   0  0  0  0  0  0  0  0  0  0  0  0
    0.4586   -6.7368    4.9267 H   0  0  0  0  0  0  0  0  0  0  0  0
    2.8264   -6.2806    5.6078 H   0  0  0  0  0  0  0  0  0  0  0  0
    1.8433   -4.8485    5.8784 H   0  0  0  0  0  0  0  0  0  0  0  0
    5.1693   -6.2267    1.1168 H   0  0  0  0  0  0  0  0  0  0  0  0
    7.0935   -4.5172    0.6816 H   0  0  0  0  0  0  0  0  0  0  0  0
    6.0845   -5.0520   -0.6535 H   0  0  0  0  0  0  0  0  0  0  0  0
    6.6613   -2.5844   -0.4393 H   0  0  0  0  0  0  0  0  0  0  0  0
  2  1  1  1
  1 27  1  0
  1 28  1  0
  1 29  1  0
  2  8  1  0
  2 26  1  0
  2  3  1  0
  3  4  1  0
  3  5  1  0
  3 30  1  6
  4 31  1  0
  5  6  1  0
  5 32  1  0
  5 33  1  0
  6  7  1  0
  6 34  1  0
  6 35  1  0
  7  8  1  0
  7 36  1  0
  7 37  1  0
  8  9  1  0
  8 38  1  6
  9 10  1  0
  9 39  1  0
  9 40  1  0
 10 11  1  0
 10 12  1  0
 10 41  1  6
 11 42  1  0
 12 26  1  0
 12 13  1  0
 12 43  1  1
 13 23  1  0
 13 14  1  0
 13 44  1  6
 14 15  1  0
 14 45  1  0
 14 46  1  0
 15 16  1  0
 15 47  1  0
 15 48  1  0
 16 22  1  0
 16 17  2  0
 17 18  1  0
 17 23  1  0
 18 19  1  0
 18 49  1  0
 18 50  1  0
 19 20  2  0
 19 21  1  0
 21 22  1  0
 21 51  1  0
 21 52  1  0
 22 53  1  0
 22 54  1  0
 23 24  2  0
 24 25  1  0
 24 55  1  0
 25 26  1  0
 25 56  1  0
 25 57  1  0
 26 58  1  6
M  END
>  <i_m_ct_stereo_status>  (324) 
1

>  <s_m_source_file>  (324) 
/var/tmp/pbs.5076255.sched01/tmp_gsyjirk/108c9vsds16.sdf

>  <i_m_source_file_index>  (324) 
36

>  <i_lp_mmshare_version>  (324) 
48012

>  <i_f3d_flags>  (324) 
0

>  <s_epik_input>  (324) 
W09IXVtDQEhdMVtDSDJdW0NIMl1bQ0gyXVtDQEhdKFtDQEBdMTJbQ0gzXSlbQ0gyXVtDQEBIXShbT0hdKVtDQEhdM1tDQEhdNEMoPVtDSF1bQ0gyXVtDQEBIXTIzKUM1PUMoW0NIMl1bQ0gyXTQpW0NIMl1bQ0gyXUMoPU8pW0NIMl01

>  <s_epik_cmdline>  (324) 
J2VwaWtfcHl0aG9uJywgJy1waHQnLCAnMi4wJywgJy1waCcsICc3LjAnLCAnLXRuJywgJzgnLCAnLW1hJywgJzIwMCcsICctaW1hZScsICc8aW5maWxlLm1hZT4nLCAnLW9tYWUnLCAnPG91dGZpbGUubWFlPic=

>  <r_lp_tautomer_probability>  (324) 
1

>  <r_epik_Ionization_Penalty>  (324) 
2.37005e-06

>  <r_epik_Ionization_Penalty_Charging>  (324) 
0

>  <r_epik_Ionization_Penalty_Neutral>  (324) 
2.37005e-06

>  <r_epik_State_Penalty>  (324) 
-0

>  <r_epik_Charging_Adjusted_Penalty>  (324) 
0

>  <i_epik_Tot_Q>  (324) 
0

>  <i_epik_Tot_abs_Q>  (324) 
0

>  <s_lp_Force_Field>  (324) 
OPLS3e

>  <r_lp_Energy>  (324) 
40.5951

>  <b_lp_Chiralities_Consistent>  (324) 
1

>  <s_lp_Variant>  (324) 
111:0-1

>  <s_i_glide_gridfile>  (324) 
pfpi4k_grid

>  <i_i_glide_lignum>  (324) 
36

>  <i_i_glide_rotatable_bonds>  (324) 
2

>  <r_i_docking_score>  (324) 
-4.17515

>  <r_i_glide_ligand_efficiency>  (324) 
-0.160583

>  <r_i_glide_ligand_efficiency_sa>  (324) 
-0.475726

>  <r_i_glide_ligand_efficiency_ln>  (324) 
-0.980521

>  <r_i_glide_gscore>  (324) 
-4.17515

>  <r_i_glide_lipo>  (324) 
-1.07169

>  <r_i_glide_hbond>  (324) 
-0.472071

>  <r_i_glide_metal>  (324) 
-0

>  <r_i_glide_rewards>  (324) 
-0.97842

>  <r_i_glide_evdw>  (324) 
-20.2956

>  <r_i_glide_ecoul>  (324) 
-4.16549

>  <r_i_glide_erotb>  (324) 
0

>  <r_i_glide_esite>  (324) 
-0.0133665

>  <r_i_glide_emodel>  (324) 
-30.3202

>  <r_i_glide_energy>  (324) 
-24.4611

>  <r_i_glide_einternal>  (324) 
1.11005

>  <r_i_glide_intrahb_reward>  (324) 
-0

>  <i_i_glide_confnum>  (324) 
2

>  <i_i_glide_posenum>  (324) 
3

>  <r_i_glide_eff_state_penalty>  (324) 
0

>  <ligand_id>  (324) 
111

>  <original_smiles>  (324) 
CC12C(O)CCCC1CC(O)C1C3CCC4=C(CC(=O)CC4)C3=CCC12

>  <smiles>  (324) 
[H]OC1([H])C([H])([H])C2([H])C([H])([H])C([H])([H])C([H])([H])C([H])(O[H])C2(C([H])([H])[H])C2([H])C([H])([H])C([H])=C3C4=C(C([H])([H])C([H])([H])C(=O)C4([H])[H])C([H])([H])C([H])([H])C3([H])C12[H]

$$$$
111:0:1
     RDKit          3D

 58 62  0  0  1  0  0  0  0  0999 V2000
    3.4536   -2.6949    1.1794 C   0  0  0  0  0  0  0  0  0  0  0  0
    4.0048   -3.6907    0.1227 C   0  0  1  0  0  0  0  0  0  0  0  0
    3.2489   -3.4521   -1.2361 C   0  0  1  0  0  0  0  0  0  0  0  0
    1.8333   -3.4552   -1.1214 O   0  0  0  0  0  0  0  0  0  0  0  0
    3.5636   -2.1059   -1.9370 C   0  0  0  0  0  0  0  0  0  0  0  0
    5.0619   -1.8543   -2.0915 C   0  0  0  0  0  0  0  0  0  0  0  0
    5.7957   -2.0236   -0.7605 C   0  0  0  0  0  0  0  0  0  0  0  0
    5.5170   -3.4166   -0.1694 C   0  0  1  0  0  0  0  0  0  0  0  0
    6.4380   -3.7258    1.0188 C   0  0  0  0  0  0  0  0  0  0  0  0
    6.3175   -5.1999    1.4177 C   0  0  1  0  0  0  0  0  0  0  0  0
    7.2408   -5.4961    2.4386 O   0  0  0  0  0  0  0  0  0  0  0  0
    4.8649   -5.6197    1.7683 C   0  0  1  0  0  0  0  0  0  0  0  0
    4.3278   -5.2202    3.1934 C   0  0  2  0  0  0  0  0  0  0  0  0
    4.8412   -6.1176    4.3445 C   0  0  0  0  0  0  0  0  0  0  0  0
    4.3629   -5.6024    5.7166 C   0  0  0  0  0  0  0  0  0  0  0  0
    2.9121   -5.1423    5.7252 C   0  0  0  0  0  0  0  0  0  0  0  0
    2.1788   -4.9544    4.6049 C   0  0  0  0  0  0  0  0  0  0  0  0
    0.7388   -4.4389    4.7096 C   0  0  0  0  0  0  0  0  0  0  0  0
    0.4982   -3.5168    5.9171 C   0  0  0  0  0  0  0  0  0  0  0  0
   -0.5234   -2.8355    6.0040 O   0  0  0  0  0  0  0  0  0  0  0  0
    1.5491   -3.4942    7.0301 C   0  0  0  0  0  0  0  0  0  0  0  0
    2.3214   -4.8212    7.0872 C   0  0  0  0  0  0  0  0  0  0  0  0
    2.7973   -5.2275    3.3113 C   0  0  0  0  0  0  0  0  0  0  0  0
    2.0147   -5.4935    2.2498 C   0  0  0  0  0  0  0  0  0  0  0  0
    2.5306   -5.7988    0.8693 C   0  0  0  0  0  0  0  0  0  0  0  0
    3.9233   -5.2054    0.5919 C   0  0  1  0  0  0  0  0  0  0  0  0
    2.4319   -2.9347    1.4717 H   0  0  0  0  0  0  0  0  0  0  0  0
    3.4323   -1.6721    0.8060 H   0  0  0  0  0  0  0  0  0  0  0  0
    4.0542   -2.6696    2.0808 H   0  0  0  0  0  0  0  0  0  0  0  0
    3.5461   -4.2488   -1.9181 H   0  0  0  0  0  0  0  0  0  0  0  0
    1.5435   -2.5404   -1.1003 H   0  0  0  0  0  0  0  0  0  0  0  0
    3.1052   -2.0957   -2.9263 H   0  0  0  0  0  0  0  0  0  0  0  0
    3.1125   -1.2709   -1.3999 H   0  0  0  0  0  0  0  0  0  0  0  0
    5.4786   -2.5418   -2.8297 H   0  0  0  0  0  0  0  0  0  0  0  0
    5.2225   -0.8443   -2.4721 H   0  0  0  0  0  0  0  0  0  0  0  0
    6.8685   -1.9074   -0.9244 H   0  0  0  0  0  0  0  0  0  0  0  0
    5.4963   -1.2386   -0.0634 H   0  0  0  0  0  0  0  0  0  0  0  0
    5.8150   -4.1132   -0.9560 H   0  0  0  0  0  0  0  0  0  0  0  0
    7.4710   -3.5165    0.7340 H   0  0  0  0  0  0  0  0  0  0  0  0
    6.2215   -3.0791    1.8701 H   0  0  0  0  0  0  0  0  0  0  0  0
    6.6223   -5.7982    0.5571 H   0  0  0  0  0  0  0  0  0  0  0  0
    8.1143   -5.3671    2.1046 H   0  0  0  0  0  0  0  0  0  0  0  0
    4.8753   -6.7126    1.7786 H   0  0  0  0  0  0  0  0  0  0  0  0
    4.6589   -4.2095    3.4169 H   0  0  0  0  0  0  0  0  0  0  0  0
    4.4782   -7.1377    4.2040 H   0  0  0  0  0  0  0  0  0  0  0  0
    5.9247   -6.1911    4.3689 H   0  0  0  0  0  0  0  0  0  0  0  0
    4.5048   -6.3724    6.4761 H   0  0  0  0  0  0  0  0  0  0  0  0
    4.9637   -4.7401    6.0068 H   0  0  0  0  0  0  0  0  0  0  0  0
    0.5040   -3.8707    3.8108 H   0  0  0  0  0  0  0  0  0  0  0  0
    0.0466   -5.2785    4.7485 H   0  0  0  0  0  0  0  0  0  0  0  0
    2.2512   -2.6801    6.8315 H   0  0  0  0  0  0  0  0  0  0  0  0
    1.0761   -3.2726    7.9868 H   0  0  0  0  0  0  0  0  0  0  0  0
    1.6416   -5.6341    7.3578 H   0  0  0  0  0  0  0  0  0  0  0  0
    3.0923   -4.7852    7.8600 H   0  0  0  0  0  0  0  0  0  0  0  0
    0.9461   -5.5683    2.3615 H   0  0  0  0  0  0  0  0  0  0  0  0
    2.5917   -6.8847    0.8129 H   0  0  0  0  0  0  0  0  0  0  0  0
    1.7957   -5.5031    0.1310 H   0  0  0  0  0  0  0  0  0  0  0  0
    4.2718   -5.7715   -0.2735 H   0  0  0  0  0  0  0  0  0  0  0  0
  2  1  1  1
  1 27  1  0
  1 28  1  0
  1 29  1  0
  2  8  1  0
  2 26  1  0
  2  3  1  0
  3  4  1  0
  3  5  1  0
  3 30  1  6
  4 31  1  0
  5  6  1  0
  5 32  1  0
  5 33  1  0
  6  7  1  0
  6 34  1  0
  6 35  1  0
  7  8  1  0
  7 36  1  0
  7 37  1  0
  8  9  1  0
  8 38  1  6
  9 10  1  0
  9 39  1  0
  9 40  1  0
 10 11  1  0
 10 12  1  0
 10 41  1  6
 11 42  1  0
 12 26  1  0
 12 13  1  0
 12 43  1  1
 13 23  1  0
 13 14  1  0
 13 44  1  1
 14 15  1  0
 14 45  1  0
 14 46  1  0
 15 16  1  0
 15 47  1  0
 15 48  1  0
 16 22  1  0
 16 17  2  0
 17 18  1  0
 17 23  1  0
 18 19  1  0
 18 49  1  0
 18 50  1  0
 19 20  2  0
 19 21  1  0
 21 22  1  0
 21 51  1  0
 21 52  1  0
 22 53  1  0
 22 54  1  0
 23 24  2  0
 24 25  1  0
 24 55  1  0
 25 26  1  0
 25 56  1  0
 25 57  1  0
 26 58  1  6
M  END
>  <i_m_ct_stereo_status>  (325) 
1

>  <s_m_source_file>  (325) 
/var/tmp/pbs.5076255.sched01/tmp_gsyjirk/108c9vsds16.sdf

>  <i_m_source_file_index>  (325) 
36

>  <i_lp_mmshare_version>  (325) 
48012

>  <i_f3d_flags>  (325) 
0

>  <s_epik_input>  (325) 
W09IXVtDQEhdMVtDSDJdW0NIMl1bQ0gyXVtDQEhdKFtDQEBdMTJbQ0gzXSlbQ0gyXVtDQEBIXShbT0hdKVtDQEhdM1tDQEhdNEMoPVtDSF1bQ0gyXVtDQEBIXTIzKUM1PUMoW0NIMl1bQ0gyXTQpW0NIMl1bQ0gyXUMoPU8pW0NIMl01

>  <s_epik_cmdline>  (325) 
J2VwaWtfcHl0aG9uJywgJy1waHQnLCAnMi4wJywgJy1waCcsICc3LjAnLCAnLXRuJywgJzgnLCAnLW1hJywgJzIwMCcsICctaW1hZScsICc8aW5maWxlLm1hZT4nLCAnLW9tYWUnLCAnPG91dGZpbGUubWFlPic=

>  <r_lp_tautomer_probability>  (325) 
1

>  <r_epik_Ionization_Penalty>  (325) 
2.37005e-06

>  <r_epik_Ionization_Penalty_Charging>  (325) 
0

>  <r_epik_Ionization_Penalty_Neutral>  (325) 
2.37005e-06

>  <r_epik_State_Penalty>  (325) 
-0

>  <r_epik_Charging_Adjusted_Penalty>  (325) 
0

>  <i_epik_Tot_Q>  (325) 
0

>  <i_epik_Tot_abs_Q>  (325) 
0

>  <s_lp_Force_Field>  (325) 
OPLS3e

>  <r_lp_Energy>  (325) 
40.5951

>  <b_lp_Chiralities_Consistent>  (325) 
1

>  <s_lp_Variant>  (325) 
111:0-1

>  <s_i_glide_gridfile>  (325) 
pfpi4k_grid

>  <i_i_glide_lignum>  (325) 
36

>  <i_i_glide_rotatable_bonds>  (325) 
2

>  <r_i_docking_score>  (325) 
-3.23936

>  <r_i_glide_ligand_efficiency>  (325) 
-0.124591

>  <r_i_glide_ligand_efficiency_sa>  (325) 
-0.3691

>  <r_i_glide_ligand_efficiency_ln>  (325) 
-0.760754

>  <r_i_glide_gscore>  (325) 
-3.23936

>  <r_i_glide_lipo>  (325) 
-0.36407

>  <r_i_glide_hbond>  (325) 
-0.191724

>  <r_i_glide_metal>  (325) 
-0

>  <r_i_glide_rewards>  (325) 
-0.97842

>  <r_i_glide_evdw>  (325) 
-22.9361

>  <r_i_glide_ecoul>  (325) 
-3.68456

>  <r_i_glide_erotb>  (325) 
0

>  <r_i_glide_esite>  (325) 
-0.00565846

>  <r_i_glide_emodel>  (325) 
-31.4022

>  <r_i_glide_energy>  (325) 
-26.6207

>  <r_i_glide_einternal>  (325) 
1.38964

>  <r_i_glide_intrahb_reward>  (325) 
-0

>  <i_i_glide_confnum>  (325) 
2

>  <i_i_glide_posenum>  (325) 
33

>  <r_i_glide_eff_state_penalty>  (325) 
0

>  <ligand_id>  (325) 
111

>  <original_smiles>  (325) 
CC12C(O)CCCC1CC(O)C1C3CCC4=C(CC(=O)CC4)C3=CCC12

>  <smiles>  (325) 
[H]OC1([H])C([H])([H])C2([H])C([H])([H])C([H])([H])C([H])([H])C([H])(O[H])C2(C([H])([H])[H])C2([H])C([H])([H])C([H])=C3C4=C(C([H])([H])C([H])([H])C(=O)C4([H])[H])C([H])([H])C([H])([H])C3([H])C12[H]

$$$$
111:0:2
     RDKit          3D

 58 62  0  0  1  0  0  0  0  0999 V2000
    3.3237   -2.3273    0.5203 C   0  0  0  0  0  0  0  0  0  0  0  0
    3.8624   -3.3811   -0.4811 C   0  0  1  0  0  0  0  0  0  0  0  0
    2.9778   -3.3381   -1.7803 C   0  0  1  0  0  0  0  0  0  0  0  0
    1.5975   -3.4554   -1.5232 O   0  0  0  0  0  0  0  0  0  0  0  0
    3.1009   -2.0637   -2.6427 C   0  0  0  0  0  0  0  0  0  0  0  0
    4.5554   -1.7197   -2.9614 C   0  0  0  0  0  0  0  0  0  0  0  0
    5.4061   -1.6904   -1.6879 C   0  0  0  0  0  0  0  0  0  0  0  0
    5.3093   -3.0273   -0.9400 C   0  0  1  0  0  0  0  0  0  0  0  0
    6.3580   -3.1366    0.1791 C   0  0  0  0  0  0  0  0  0  0  0  0
    6.3968   -4.5610    0.7352 C   0  0  1  0  0  0  0  0  0  0  0  0
    7.4441   -4.6613    1.6712 O   0  0  0  0  0  0  0  0  0  0  0  0
    5.0276   -5.0574    1.2588 C   0  0  1  0  0  0  0  0  0  0  0  0
    4.5826   -4.5506    2.6793 C   0  0  2  0  0  0  0  0  0  0  0  0
    5.2740   -5.2739    3.8586 C   0  0  0  0  0  0  0  0  0  0  0  0
    4.8716   -4.6528    5.2106 C   0  0  0  0  0  0  0  0  0  0  0  0
    3.3924   -4.3042    5.3104 C   0  0  0  0  0  0  0  0  0  0  0  0
    2.5523   -4.3007    4.2530 C   0  0  0  0  0  0  0  0  0  0  0  0
    1.0829   -3.8912    4.4401 C   0  0  0  0  0  0  0  0  0  0  0  0
    0.8729   -2.8681    5.5691 C   0  0  0  0  0  0  0  0  0  0  0  0
   -0.1974   -2.2681    5.6847 O   0  0  0  0  0  0  0  0  0  0  0  0
    2.0065   -2.6405    6.5703 C   0  0  0  0  0  0  0  0  0  0  0  0
    2.8970   -3.8879    6.6833 C   0  0  0  0  0  0  0  0  0  0  0  0
    3.0785   -4.6623    2.9425 C   0  0  0  0  0  0  0  0  0  0  0  0
    2.2308   -5.1044    1.9919 C   0  0  0  0  0  0  0  0  0  0  0  0
    2.6487   -5.5072    0.6028 C   0  0  0  0  0  0  0  0  0  0  0  0
    3.9574   -4.8397    0.1404 C   0  0  1  0  0  0  0  0  0  0  0  0
    2.3542   -2.6117    0.9298 H   0  0  0  0  0  0  0  0  0  0  0  0
    3.1792   -1.3556    0.0490 H   0  0  0  0  0  0  0  0  0  0  0  0
    3.9977   -2.1578    1.3533 H   0  0  0  0  0  0  0  0  0  0  0  0
    3.2946   -4.1469   -2.4238 H   0  0  0  0  0  0  0  0  0  0  0  0
    1.2953   -2.5604   -1.3396 H   0  0  0  0  0  0  0  0  0  0  0  0
    2.5598   -2.2056   -3.5812 H   0  0  0  0  0  0  0  0  0  0  0  0
    2.6288   -1.2074   -2.1587 H   0  0  0  0  0  0  0  0  0  0  0  0
    4.9662   -2.4529   -3.6585 H   0  0  0  0  0  0  0  0  0  0  0  0
    4.6019   -0.7494   -3.4585 H   0  0  0  0  0  0  0  0  0  0  0  0
    6.4449   -1.5211   -1.9572 H   0  0  0  0  0  0  0  0  0  0  0  0
    5.0982   -0.8582   -1.0517 H   0  0  0  0  0  0  0  0  0  0  0  0
    5.5988   -3.7781   -1.6797 H   0  0  0  0  0  0  0  0  0  0  0  0
    7.3399   -2.8886   -0.2242 H   0  0  0  0  0  0  0  0  0  0  0  0
    6.1599   -2.4196    0.9748 H   0  0  0  0  0  0  0  0  0  0  0  0
    6.6704   -5.2222   -0.0855 H   0  0  0  0  0  0  0  0  0  0  0  0
    7.5344   -5.5651    1.9208 H   0  0  0  0  0  0  0  0  0  0  0  0
    5.1257   -6.1388    1.3718 H   0  0  0  0  0  0  0  0  0  0  0  0
    4.8402   -3.4983    2.7674 H   0  0  0  0  0  0  0  0  0  0  0  0
    4.9872   -6.3268    3.8588 H   0  0  0  0  0  0  0  0  0  0  0  0
    6.3576   -5.2581    3.7867 H   0  0  0  0  0  0  0  0  0  0  0  0
    5.1480   -5.3223    6.0263 H   0  0  0  0  0  0  0  0  0  0  0  0
    5.4174   -3.7185    5.3504 H   0  0  0  0  0  0  0  0  0  0  0  0
    0.7203   -3.4435    3.5169 H   0  0  0  0  0  0  0  0  0  0  0  0
    0.4761   -4.7722    4.6315 H   0  0  0  0  0  0  0  0  0  0  0  0
    2.6163   -1.8023    6.2251 H   0  0  0  0  0  0  0  0  0  0  0  0
    1.6011   -2.3527    7.5394 H   0  0  0  0  0  0  0  0  0  0  0  0
    2.3166   -4.7187    7.0987 H   0  0  0  0  0  0  0  0  0  0  0  0
    3.7262   -3.7127    7.3750 H   0  0  0  0  0  0  0  0  0  0  0  0
    1.1853   -5.2476    2.2120 H   0  0  0  0  0  0  0  0  0  0  0  0
    2.7964   -6.5897    0.6317 H   0  0  0  0  0  0  0  0  0  0  0  0
    1.8239   -5.3515   -0.0877 H   0  0  0  0  0  0  0  0  0  0  0  0
    4.2731   -5.4647   -0.6959 H   0  0  0  0  0  0  0  0  0  0  0  0
  2  1  1  1
  1 27  1  0
  1 28  1  0
  1 29  1  0
  2  8  1  0
  2 26  1  0
  2  3  1  0
  3  4  1  0
  3  5  1  0
  3 30  1  6
  4 31  1  0
  5  6  1  0
  5 32  1  0
  5 33  1  0
  6  7  1  0
  6 34  1  0
  6 35  1  0
  7  8  1  0
  7 36  1  0
  7 37  1  0
  8  9  1  0
  8 38  1  6
  9 10  1  0
  9 39  1  0
  9 40  1  0
 10 11  1  0
 10 12  1  0
 10 41  1  6
 11 42  1  0
 12 26  1  0
 12 13  1  0
 12 43  1  1
 13 23  1  0
 13 14  1  0
 13 44  1  6
 14 15  1  0
 14 45  1  0
 14 46  1  0
 15 16  1  0
 15 47  1  0
 15 48  1  0
 16 22  1  0
 16 17  2  0
 17 18  1  0
 17 23  1  0
 18 19  1  0
 18 49  1  0
 18 50  1  0
 19 20  2  0
 19 21  1  0
 21 22  1  0
 21 51  1  0
 21 52  1  0
 22 53  1  0
 22 54  1  0
 23 24  2  0
 24 25  1  0
 24 55  1  0
 25 26  1  0
 25 56  1  0
 25 57  1  0
 26 58  1  6
M  END
>  <i_m_ct_stereo_status>  (326) 
1

>  <s_m_source_file>  (326) 
/var/tmp/pbs.5076255.sched01/tmp_gsyjirk/108c9vsds16.sdf

>  <i_m_source_file_index>  (326) 
36

>  <i_lp_mmshare_version>  (326) 
48012

>  <i_f3d_flags>  (326) 
0

>  <s_epik_input>  (326) 
W09IXVtDQEhdMVtDSDJdW0NIMl1bQ0gyXVtDQEhdKFtDQEBdMTJbQ0gzXSlbQ0gyXVtDQEBIXShbT0hdKVtDQEhdM1tDQEhdNEMoPVtDSF1bQ0gyXVtDQEBIXTIzKUM1PUMoW0NIMl1bQ0gyXTQpW0NIMl1bQ0gyXUMoPU8pW0NIMl01

>  <s_epik_cmdline>  (326) 
J2VwaWtfcHl0aG9uJywgJy1waHQnLCAnMi4wJywgJy1waCcsICc3LjAnLCAnLXRuJywgJzgnLCAnLW1hJywgJzIwMCcsICctaW1hZScsICc8aW5maWxlLm1hZT4nLCAnLW9tYWUnLCAnPG91dGZpbGUubWFlPic=

>  <r_lp_tautomer_probability>  (326) 
1

>  <r_epik_Ionization_Penalty>  (326) 
2.37005e-06

>  <r_epik_Ionization_Penalty_Charging>  (326) 
0

>  <r_epik_Ionization_Penalty_Neutral>  (326) 
2.37005e-06

>  <r_epik_State_Penalty>  (326) 
-0

>  <r_epik_Charging_Adjusted_Penalty>  (326) 
0

>  <i_epik_Tot_Q>  (326) 
0

>  <i_epik_Tot_abs_Q>  (326) 
0

>  <s_lp_Force_Field>  (326) 
OPLS3e

>  <r_lp_Energy>  (326) 
40.5951

>  <b_lp_Chiralities_Consistent>  (326) 
1

>  <s_lp_Variant>  (326) 
111:0-1

>  <s_i_glide_gridfile>  (326) 
pfpi4k_grid

>  <i_i_glide_lignum>  (326) 
36

>  <i_i_glide_rotatable_bonds>  (326) 
2

>  <r_i_docking_score>  (326) 
-3.17509

>  <r_i_glide_ligand_efficiency>  (326) 
-0.122119

>  <r_i_glide_ligand_efficiency_sa>  (326) 
-0.361776

>  <r_i_glide_ligand_efficiency_ln>  (326) 
-0.745659

>  <r_i_glide_gscore>  (326) 
-3.17509

>  <r_i_glide_lipo>  (326) 
-0.446524

>  <r_i_glide_hbond>  (326) 
-0.183552

>  <r_i_glide_metal>  (326) 
-0

>  <r_i_glide_rewards>  (326) 
-0.97842

>  <r_i_glide_evdw>  (326) 
-22.8309

>  <r_i_glide_ecoul>  (326) 
-2.81714

>  <r_i_glide_erotb>  (326) 
0

>  <r_i_glide_esite>  (326) 
-0.00247256

>  <r_i_glide_emodel>  (326) 
-30.6754

>  <r_i_glide_energy>  (326) 
-25.6481

>  <r_i_glide_einternal>  (326) 
0.787938

>  <r_i_glide_intrahb_reward>  (326) 
-0

>  <i_i_glide_confnum>  (326) 
1

>  <i_i_glide_posenum>  (326) 
6

>  <r_i_glide_eff_state_penalty>  (326) 
0

>  <ligand_id>  (326) 
111

>  <original_smiles>  (326) 
CC12C(O)CCCC1CC(O)C1C3CCC4=C(CC(=O)CC4)C3=CCC12

>  <smiles>  (326) 
[H]OC1([H])C([H])([H])C2([H])C([H])([H])C([H])([H])C([H])([H])C([H])(O[H])C2(C([H])([H])[H])C2([H])C([H])([H])C([H])=C3C4=C(C([H])([H])C([H])([H])C(=O)C4([H])[H])C([H])([H])C([H])([H])C3([H])C12[H]

$$$$
